@<TRIPOS>MOLECULE
3R540
247   249    1
SMALL
USER_CHARGES


@<TRIPOS>ATOM
      1 CA          4.2649  -15.4081  -50.4951 C.3       0 UNK        -0.1800 
      2 C           3.8940  -15.0087  -49.0744 C.2       0 UNK         0.5000 
      3 O           4.7336  -15.0689  -48.1775 O.2       0 UNK        -0.5000 
      4 N           2.6432  -14.5813  -48.8703 N.am      1 UNK        -0.5000 
      5 CA          2.0676  -14.1786  -47.5808 C.3       1 UNK         0.1400 
      6 C6          0.5518  -14.4827  -47.4971 C.3       23 UNK        -0.0398 
      7 S7         -0.4218  -13.8829  -48.9248 S.3       23 UNK        -0.2404 
      8 C8         -1.2680  -15.4019  -49.4686 C.3       23 UNK        -0.0205 
      9 C9         -0.4275  -16.2514  -50.4129 C.ar      23 UNK        -0.0193 
     10 C10        -0.7220  -16.2610  -51.7770 C.ar      23 UNK        -0.1150 
     11 C11        -0.0346  -17.1032  -52.6533 C.ar      23 UNK        -0.0193 
     12 C12         1.0022  -17.9025  -52.1578 C.ar      23 UNK        -0.1150 
     13 C13         1.3093  -17.9138  -50.7940 C.ar      23 UNK        -0.0193 
     14 C14         0.5904  -17.0790  -49.9295 C.ar      23 UNK        -0.1150 
     15 C15         2.4126  -18.8468  -50.2917 C.3       23 UNK        -0.0205 
     16 S16         2.1777  -19.4813  -48.5946 S.3       23 UNK        -0.2404 
     17 C17         0.5529  -20.3035  -48.7184 C.3       23 UNK        -0.0398 
     18 CA          0.4970  -21.6354  -47.9325 C.3       11 UNK         0.1400 
     19 N           0.6111  -21.4582  -46.4799 N.am      11 UNK        -0.5000 
     20 C           0.7047  -22.4643  -45.5968 C.2       10 UNK         0.5000 
     21 O           0.7639  -23.6521  -45.9170 O.2       10 UNK        -0.5000 
     22 CA          0.6767  -22.0933  -44.1026 C.3       10 UNK         0.1400 
     23 CB          2.0467  -21.5812  -43.6341 C.3       10 UNK        -0.1800 
     24 N          -0.3630  -21.1145  -43.7792 N.am      10 UNK        -0.5000 
     25 C          -1.6790  -21.3342  -43.9193 C.2       9 UNK         0.5000 
     26 O          -2.1566  -22.4009  -44.3030 O.2       9 UNK        -0.5000 
     27 CA         -2.6226  -20.1528  -43.6290 C.3       9 UNK         0.1400 
     28 CB         -2.8553  -19.9890  -42.1199 C.3       9 UNK        -0.1800 
     29 N          -2.1363  -18.8942  -44.1907 N.am      9 UNK        -0.5000 
     30 C          -1.9395  -18.6699  -45.4973 C.2       8 UNK         0.5000 
     31 O          -2.1981  -19.4828  -46.3845 O.2       8 UNK        -0.5000 
     32 CA         -1.2826  -17.3308  -45.8676 C.3       8 UNK         0.1400 
     33 CB         -2.3191  -16.1949  -45.8591 C.3       8 UNK        -0.1800 
     34 N          -0.1548  -17.0035  -44.9888 N.am      8 UNK        -0.5000 
     35 C           0.9613  -17.7445  -44.8995 C.2       7 UNK         0.5000 
     36 O           1.1697  -18.7410  -45.5867 O.2       7 UNK        -0.5000 
     37 CA          1.9847  -17.3538  -43.8203 C.3       7 UNK         0.1400 
     38 CB          2.9424  -16.2638  -44.3234 C.3       7 UNK        -0.1800 
     39 N           1.3277  -16.9181  -42.5893 N.am      7 UNK        -0.5000 
     40 C           0.6953  -17.7523  -41.7495 C.2       6 UNK         0.5000 
     41 O           0.6547  -18.9725  -41.9059 O.2       6 UNK        -0.5000 
     42 CA         -0.0583  -17.1166  -40.5645 C.3       6 UNK         0.1400 
     43 CB          0.8766  -16.9521  -39.3573 C.3       6 UNK        -0.1800 
     44 N          -0.6481  -15.8191  -40.8967 N.am      6 UNK        -0.5000 
     45 C          -1.5926  -15.6256  -41.8283 C.2       5 UNK         0.5000 
     46 O          -2.1357  -16.5450  -42.4400 O.2       5 UNK        -0.5000 
     47 CA         -1.9509  -14.1654  -42.1753 C.3       5 UNK         0.1400 
     48 CB         -3.2422  -13.7457  -41.4582 C.3       5 UNK        -0.1800 
     49 N          -0.8883  -13.2026  -41.8589 N.am      5 UNK        -0.5000 
     50 C           0.3304  -13.1922  -42.4158 C.2       4 UNK         0.5000 
     51 O           0.6911  -13.9913  -43.2840 O.2       4 UNK        -0.5000 
     52 CA          1.3288  -12.1744  -41.8466 C.3       4 UNK         0.1400 
     53 CB          1.7832  -12.6165  -40.4390 C.3       4 UNK        -0.1800 
     54 N           2.4800  -12.0746  -42.7408 N.am      4 UNK        -0.5000 
     55 C           3.4448  -11.1481  -42.6697 C.2       3 UNK         0.5000 
     56 O           3.4430  -10.2155  -41.8652 O.2       3 UNK        -0.5000 
     57 CA          4.5938  -11.2696  -43.6785 C.3       3 UNK         0.1400 
     58 CB          5.3821  -12.5805  -43.4933 C.3       3 UNK        -0.1800 
     59 N           4.0676  -11.1757  -45.0341 N.am      3 UNK        -0.5000 
     60 C           4.7451  -10.7838  -46.1173 C.2       2 UNK         0.5000 
     61 O           5.9311  -10.4487  -46.0929 O.2       2 UNK        -0.5000 
     62 CA          3.9606  -10.7936  -47.4505 C.3       2 UNK         0.1400 
     63 CB          4.8033  -10.3032  -48.6417 C.3       2 UNK        -0.1800 
     64 N           3.4319  -12.1222  -47.7707 N.am      2 UNK        -0.5000 
     65 C           2.4019  -12.7271  -47.1648 C.2       1 UNK         0.5000 
     66 O           1.7446  -12.1824  -46.2750 O.2       1 UNK        -0.5000 
     67 C          -0.7711  -22.4280  -48.3027 C.2       11 UNK         0.5000 
     68 O          -0.6654  -23.4182  -49.0260 O.2       11 UNK        -0.5000 
     69 N          -1.9278  -22.0187  -47.7592 N.am      12 UNK        -0.5000 
     70 CA         -3.2190  -22.6645  -47.9981 C.3       12 UNK         0.1400 
     71 CB         -4.3448  -21.8308  -47.3697 C.3       12 UNK        -0.1800 
     72 C          -3.2686  -24.1195  -47.4998 C.2       12 UNK         0.5000 
     73 O          -3.8524  -24.9661  -48.1741 O.2       12 UNK        -0.5000 
     74 N          -2.6296  -24.3985  -46.3549 N.am      13 UNK        -0.5000 
     75 CA         -2.4664  -25.7451  -45.8082 C.3       13 UNK         0.1400 
     76 CB         -1.9173  -25.6636  -44.3761 C.3       13 UNK        -0.1800 
     77 C          -1.5701  -26.6352  -46.6881 C.2       13 UNK         0.5000 
     78 O          -1.9152  -27.7944  -46.9179 O.2       13 UNK        -0.5000 
     79 N          -0.4572  -26.0767  -47.1861 N.am      14 UNK        -0.5000 
     80 CA          0.4784  -26.7530  -48.0878 C.3       14 UNK         0.1400 
     81 CB          1.7645  -25.9222  -48.2146 C.3       14 UNK        -0.1800 
     82 C          -0.1302  -27.0411  -49.4735 C.2       14 UNK         0.5000 
     83 O           0.0692  -28.1314  -50.0106 O.2       14 UNK        -0.5000 
     84 N          -0.8819  -26.0725  -50.0132 N.am      15 UNK        -0.5000 
     85 CA         -1.6259  -26.1885  -51.2699 C.3       15 UNK         0.1400 
     86 CB         -2.0104  -24.7797  -51.7464 C.3       15 UNK        -0.1800 
     87 C          -2.8827  -27.0757  -51.1575 C.2       15 UNK         0.5000 
     88 O          -3.3867  -27.5373  -52.1818 O.2       15 UNK        -0.5000 
     89 N          -3.3658  -27.2798  -49.9235 N.am      16 UNK        -0.5000 
     90 CA         -4.5847  -27.9928  -49.5279 C.3       16 UNK         0.1400 
     91 CB         -4.5190  -29.4803  -49.9321 C.3       16 UNK        -0.1800 
     92 C          -5.8834  -27.2956  -49.9910 C.2       16 UNK         0.5000 
     93 O          -6.9268  -27.9447  -50.0863 O.2       16 UNK        -0.5000 
     94 N          -5.8045  -25.9845  -50.2437 N.am      17 UNK        -0.5000 
     95 CA         -6.8854  -25.1012  -50.6623 C.3       17 UNK         0.1400 
     96 CB         -7.3627  -25.4495  -52.0866 C.3       17 UNK        -0.1800 
     97 C          -6.3669  -23.6583  -50.6253 C.2       17 UNK         0.5000 
     98 O          -5.1897  -23.4261  -50.9048 O.2       17 UNK        -0.5000 
     99 N          -7.2651  -22.7090  -50.3418 N.am      18 UNK        -0.5000 
    100 CA        -6.9990  -21.2652  -50.3704 C.3       18 UNK         0.1400 
    101 CB        -7.8150  -20.5957  -49.2518 C.3       18 UNK        -0.1800 
    102 C         -7.3094  -20.6322  -51.7466 C.2       18 UNK         0.5000 
    103 O         -7.3064  -19.4057  -51.8682 O.2       18 UNK        -0.5000 
    104 N         -7.5963  -21.4715  -52.7533 N.am      19 UNK        -0.5000 
    105 CA        -7.8968  -21.0950  -54.1345 C.3       19 UNK         0.1400 
    106 CB        -8.2273  -22.3648  -54.9331 C.3       19 UNK        -0.1800 
    107 C         -6.7377  -20.3284  -54.7966 C.2       19 UNK         0.5000 
    108 O         -5.5742  -20.6812  -54.5857 O.2       19 UNK        -0.5000 
    109 N         -7.0843  -19.2854  -55.5660 N.am      20 UNK        -0.5000 
    110 CA        -6.1730  -18.3452  -56.2365 C.3       20 UNK         0.1400 
    111 CB        -5.4202  -19.0489  -57.3852 C.3       20 UNK        -0.1800 
    112 C         -5.2212  -17.6208  -55.2566 C.2       20 UNK         0.5000 
    113 O         -4.0825  -17.3153  -55.6128 O.2       20 UNK        -0.5000 
    114 N         -5.6945  -17.4148  -54.0181 N.am      21 UNK        -0.5000 
    115 CA        -5.0034  -16.9100  -52.8248 C.3       21 UNK         0.1400 
    116 CB        -4.4357  -15.4947  -53.0472 C.3       21 UNK        -0.1800 
    117 C         -3.9315  -17.8622  -52.2546 C.2       21 UNK         0.5000 
    118 O         -3.7672  -17.9038  -51.0351 O.2       21 UNK        -0.5000 
    119 N         -3.2272  -18.5975  -53.1236 N.am      22 UNK        -0.5000 
    120 CA        -2.1925  -19.5721  -52.7582 C.3       22 UNK         0.1400 
    121 C         -2.7410  -20.8211  -52.0155 C.2       22 UNK         0.5000 
    122 N         -3.9220  -21.3249  -52.3484 N.am      22 UNK        -0.7600 
    123 O         -2.0748  -21.3390  -51.1279 O.2       22 UNK        -0.5000 
    124 C124       -1.3417  -20.0206  -53.9776 C.3       23 UNK        -0.0398 
    125 S125       -0.3359  -18.7994  -54.9150 S.3       23 UNK        -0.2404 
    126 C126       -0.4759  -17.1598  -54.1132 C.3       23 UNK        -0.0205 
    127 H127        3.3812  -15.5358  -51.1214 H         1 UNK         0.0600 
    128 H128        4.8156  -16.3485  -50.4909 H         1 UNK         0.0600 
    129 H129        4.8985  -14.6446  -50.9461 H         1 UNK         0.0600 
    130 H130        2.0017  -14.5319  -49.6504 H         1 UNK         0.3000 
    131 H131        2.5409  -14.7944  -46.8158 H         1 UNK         0.0600 
    132 H132        0.1145  -14.0794  -46.5823 H         1 UNK         0.0800 
    133 H133        0.4261  -15.5572  -47.4026 H         1 UNK         0.0800 
    134 H134       -1.5749  -15.9972  -48.6108 H         1 UNK         0.0800 
    135 H135       -2.1966  -15.1110  -49.9622 H         1 UNK         0.0800 
    136 H136       -1.5241  -15.6416  -52.1521 H         1 UNK         0.1150 
    137 H137        1.5483  -18.5491  -52.8297 H         1 UNK         0.1150 
    138 H138        0.8137  -17.0921  -48.8749 H         1 UNK         0.1150 
    139 H139        2.5109  -19.7031  -50.9608 H         1 UNK         0.0800 
    140 H140        3.3625  -18.3147  -50.3328 H         1 UNK         0.0800 
    141 H141        0.3369  -20.4804  -49.7742 H         1 UNK         0.0800 
    142 H142       -0.2143  -19.6133  -48.3641 H         1 UNK         0.0800 
    143 H143        1.3494  -22.2414  -48.2473 H         1 UNK         0.0600 
    144 H144        0.6262  -20.4997  -46.1407 H         1 UNK         0.3000 
    145 H145        0.4525  -23.0038  -43.5429 H         1 UNK         0.0600 
    146 H146        2.0463  -21.3761  -42.5635 H         1 UNK         0.0600 
    147 H147        2.8239  -22.3226  -43.8232 H         1 UNK         0.0600 
    148 H148        2.3359  -20.6664  -44.1503 H         1 UNK         0.0600 
    149 H149       -0.0506  -20.2209  -43.4162 H         1 UNK         0.3000 
    150 H150       -3.5836  -20.3732  -44.0983 H         1 UNK         0.0600 
    151 H151       -3.2617  -20.9039  -41.6871 H         1 UNK         0.0600 
    152 H152       -3.5655  -19.1875  -41.9153 H         1 UNK         0.0600 
    153 H153       -1.9308  -19.7584  -41.5908 H         1 UNK         0.0600 
    154 H154       -1.9435  -18.1427  -43.5347 H         1 UNK         0.3000 
    155 H155       -0.8920  -17.4355  -46.8810 H         1 UNK         0.0600 
    156 H156       -2.8006  -16.0862  -44.8884 H         1 UNK         0.0600 
    157 H157       -1.8732  -15.2359  -46.1161 H         1 UNK         0.0600 
    158 H158       -3.1077  -16.3897  -46.5868 H         1 UNK         0.0600 
    159 H159       -0.2655  -16.2167  -44.3653 H         1 UNK         0.3000 
    160 H160        2.5827  -18.2391  -43.5940 H         1 UNK         0.0600 
    161 H161        2.4168  -15.3437  -44.5712 H         1 UNK         0.0600 
    162 H162        3.4683  -16.5930  -45.2207 H         1 UNK         0.0600 
    163 H163        3.6969  -16.0258  -43.5735 H         1 UNK         0.0600 
    164 H164        1.2672  -15.9195  -42.4376 H         1 UNK         0.3000 
    165 H165       -0.8680  -17.7932  -40.2837 H         1 UNK         0.0600 
    166 H166        0.3368  -16.5743  -38.4888 H         1 UNK         0.0600 
    167 H167        1.3184  -17.9082  -39.0732 H         1 UNK         0.0600 
    168 H168        1.6945  -16.2628  -39.5712 H         1 UNK         0.0600 
    169 H169       -0.2648  -15.0116  -40.4293 H         1 UNK         0.3000 
    170 H170       -2.1281  -14.1232  -43.2520 H         1 UNK         0.0600 
    171 H171       -4.0601  -14.4275  -41.6955 H         1 UNK         0.0600 
    172 H172       -3.1190  -13.7452  -40.3745 H         1 UNK         0.0600 
    173 H173       -3.5560  -12.7469  -41.7622 H         1 UNK         0.0600 
    174 H174       -1.1042  -12.5206  -41.1458 H         1 UNK         0.3000 
    175 H175        0.8360  -11.2017  -41.7915 H         1 UNK         0.0600 
    176 H176        0.9358  -12.7217  -39.7608 H         1 UNK         0.0600 
    177 H177        2.3013  -13.5760  -40.4694 H         1 UNK         0.0600 
    178 H178        2.4575  -11.8899  -39.9864 H         1 UNK         0.0600 
    179 H179        2.5085  -12.7965  -43.4501 H         1 UNK         0.3000 
    180 H180        5.2710  -10.4307  -43.5029 H         1 UNK         0.0600 
    181 H181        4.7781  -13.4558  -43.7351 H         1 UNK         0.0600 
    182 H182        5.7236  -12.6889  -42.4631 H         1 UNK         0.0600 
    183 H183        6.2659  -12.6017  -44.1309 H         1 UNK         0.0600 
    184 H184        3.0898  -11.4258  -45.1607 H         1 UNK         0.3000 
    185 H185        3.1209  -10.1052  -47.3340 H         1 UNK         0.0600 
    186 H186        5.1863   -9.2976  -48.4633 H         1 UNK         0.0600 
    187 H187        5.6589  -10.9544  -48.8253 H         1 UNK         0.0600 
    188 H188        4.2095  -10.2644  -49.5551 H         1 UNK         0.0600 
    189 H189        3.9516  -12.6578  -48.4506 H         1 UNK         0.3000 
    190 H190       -1.9382  -21.1839  -47.1782 H         1 UNK         0.3000 
    191 H191       -3.3768  -22.6836  -49.0777 H         1 UNK         0.0600 
    192 H192       -4.2205  -21.7367  -46.2904 H         1 UNK         0.0600 
    193 H193       -5.3176  -22.2883  -47.5542 H         1 UNK         0.0600 
    194 H194       -4.3725  -20.8268  -47.7938 H         1 UNK         0.0600 
    195 H195       -2.2275  -23.6362  -45.8170 H         1 UNK         0.3000 
    196 H196       -3.4537  -26.2098  -45.7641 H         1 UNK         0.0600 
    197 H197       -1.7902  -26.6588  -43.9484 H         1 UNK         0.0600 
    198 H198       -2.5978  -25.1148  -43.7250 H         1 UNK         0.0600 
    199 H199       -0.9485  -25.1645  -44.3430 H         1 UNK         0.0600 
    200 H200       -0.2269  -25.1228  -46.9253 H         1 UNK         0.3000 
    201 H201        0.7419  -27.7121  -47.6372 H         1 UNK         0.0600 
    202 H202        2.2412  -25.7850  -47.2439 H         1 UNK         0.0600 
    203 H203        1.5682  -24.9340  -48.6314 H         1 UNK         0.0600 
    204 H204        2.4867  -26.4163  -48.8655 H         1 UNK         0.0600 
    205 H205       -0.9337  -25.1726  -49.5377 H         1 UNK         0.3000 
    206 H206       -0.9718  -26.6373  -52.0201 H         1 UNK         0.0600 
    207 H207       -1.1267  -24.1665  -51.9237 H         1 UNK         0.0600 
    208 H208       -2.5762  -24.8146  -52.6781 H         1 UNK         0.0600 
    209 H209       -2.6255  -24.2635  -51.0084 H         1 UNK         0.0600 
    210 H210       -2.8962  -26.8004  -49.1661 H         1 UNK         0.3000 
    211 H211       -4.6024  -27.9533  -48.4378 H         1 UNK         0.0600 
    212 H212       -4.5851  -29.6116  -51.0123 H         1 UNK         0.0600 
    213 H213       -5.3395  -30.0430  -49.4856 H         1 UNK         0.0600 
    214 H214       -3.5904  -29.9395  -49.5929 H         1 UNK         0.0600 
    215 H215       -4.9230  -25.5112  -50.0721 H         1 UNK         0.3000 
    216 H216       -7.7128  -25.2037  -49.9575 H         1 UNK         0.0600 
    217 H217       -6.5441  -25.3960  -52.8058 H         1 UNK         0.0600 
    218 H218       -8.1402  -24.7615  -52.4206 H         1 UNK         0.0600 
    219 H219       -7.7849  -26.4527  -52.1371 H         1 UNK         0.0600 
    220 H220       -8.2178  -22.9788  -50.1398 H         1 UNK         0.3000 
    221 H221       -5.9418  -21.0815  -50.1662 H         1 UNK         0.0600 
    222 H222       -7.5770  -21.0269  -48.2792 H         1 UNK         0.0600 
    223 H223       -8.8877  -20.7050  -49.4154 H         1 UNK         0.0600 
    224 H224       -7.5978  -19.5285  -49.1914 H         1 UNK         0.0600 
    225 H225       -7.5454  -22.4595  -52.5631 H         1 UNK         0.3000 
    226 H226       -8.7806  -20.4541  -54.1160 H         1 UNK         0.0600 
    227 H227       -9.0822  -22.8897  -54.5063 H         1 UNK         0.0600 
    228 H228       -8.4784  -22.1227  -55.9667 H         1 UNK         0.0600 
    229 H229       -7.3840  -23.0567  -54.9537 H         1 UNK         0.0600 
    230 H230       -8.0680  -19.0794  -55.6749 H         1 UNK         0.3000 
    231 H231       -6.7992  -17.5690  -56.6783 H         1 UNK         0.0600 
    232 H232       -4.7188  -19.7960  -57.0123 H         1 UNK         0.0600 
    233 H233       -4.8493  -18.3322  -57.9767 H         1 UNK         0.0600 
    234 H234       -6.1125  -19.5478  -58.0632 H         1 UNK         0.0600 
    235 H235       -6.6231  -17.7677  -53.8300 H         1 UNK         0.3000 
    236 H236       -5.7771  -16.8319  -52.0592 H         1 UNK         0.0600 
    237 H237       -4.0405  -15.0868  -52.1162 H         1 UNK         0.0600 
    238 H238       -3.6234  -15.4875  -53.7738 H         1 UNK         0.0600 
    239 H239       -5.2079  -14.8110  -53.3994 H         1 UNK         0.0600 
    240 H240       -3.4069  -18.4684  -54.1122 H         1 UNK         0.3000 
    241 H241       -1.5342  -19.0942  -52.0360 H         1 UNK         0.0600 
    242 H242       -4.4584  -20.9529  -53.1286 H         1 UNK         0.3800 
    243 H243       -4.2651  -22.1387  -51.8449 H         1 UNK         0.3800 
    244 H244       -1.9912  -20.5157  -54.7018 H         1 UNK         0.0800 
    245 H245       -0.6345  -20.7881  -53.6567 H         1 UNK         0.0800 
    246 H246        0.1374  -16.4552  -54.6758 H         1 UNK         0.0800 
    247 H247       -1.5035  -16.8114  -54.2204 H         1 UNK         0.0800 
@<TRIPOS>BOND
     1    1    2 1    
     2    1  127 1    
     3    1  128 1    
     4    1  129 1    
     5    2    3 2    
     6    2    4 am   BACKBONE|DICT|INTERRES
     7    4    5 1    
     8    4  130 1    
     9    5    6 1    
    10    5   65 1    
    11    5  131 1    
    12    6    7 1    
    13    6  132 1    
    14    6  133 1    
    15    7    8 1    
    16    8    9 1    
    17    8  134 1    
    18    8  135 1    
    19    9   10 ar   
    20    9   14 ar   
    21   10   11 ar   
    22   10  136 1    
    23   11   12 ar   
    24   11  126 1    
    25   12   13 ar   
    26   12  137 1    
    27   13   14 ar   
    28   13   15 1    
    29   14  138 1    
    30   15   16 1    
    31   15  139 1    
    32   15  140 1    
    33   16   17 1    
    34   17   18 1    
    35   17  141 1    
    36   17  142 1    
    37   18   19 1    
    38   18   67 1    
    39   18  143 1    
    40   19   20 am   BACKBONE|DICT|INTERRES
    41   19  144 1    
    42   20   21 2    
    43   20   22 1    
    44   22   23 1    
    45   22   24 1    
    46   22  145 1    
    47   23  146 1    
    48   23  147 1    
    49   23  148 1    
    50   24   25 am   BACKBONE|DICT|INTERRES
    51   24  149 1    
    52   25   26 2    
    53   25   27 1    
    54   27   28 1    
    55   27   29 1    
    56   27  150 1    
    57   28  151 1    
    58   28  152 1    
    59   28  153 1    
    60   29   30 am   BACKBONE|DICT|INTERRES
    61   29  154 1    
    62   30   31 2    
    63   30   32 1    
    64   32   33 1    
    65   32   34 1    
    66   32  155 1    
    67   33  156 1    
    68   33  157 1    
    69   33  158 1    
    70   34   35 am   BACKBONE|DICT|INTERRES
    71   34  159 1    
    72   35   36 2    
    73   35   37 1    
    74   37   38 1    
    75   37   39 1    
    76   37  160 1    
    77   38  161 1    
    78   38  162 1    
    79   38  163 1    
    80   39   40 am   BACKBONE|DICT|INTERRES
    81   39  164 1    
    82   40   41 2    
    83   40   42 1    
    84   42   43 1    
    85   42   44 1    
    86   42  165 1    
    87   43  166 1    
    88   43  167 1    
    89   43  168 1    
    90   44   45 am   BACKBONE|DICT|INTERRES
    91   44  169 1    
    92   45   46 2    
    93   45   47 1    
    94   47   48 1    
    95   47   49 1    
    96   47  170 1    
    97   48  171 1    
    98   48  172 1    
    99   48  173 1    
   100   49   50 am   BACKBONE|DICT|INTERRES
   101   49  174 1    
   102   50   51 2    
   103   50   52 1    
   104   52   53 1    
   105   52   54 1    
   106   52  175 1    
   107   53  176 1    
   108   53  177 1    
   109   53  178 1    
   110   54   55 am   BACKBONE|DICT|INTERRES
   111   54  179 1    
   112   55   56 2    
   113   55   57 1    
   114   57   58 1    
   115   57   59 1    
   116   57  180 1    
   117   58  181 1    
   118   58  182 1    
   119   58  183 1    
   120   59   60 am   BACKBONE|DICT|INTERRES
   121   59  184 1    
   122   60   61 2    
   123   60   62 1    
   124   62   63 1    
   125   62   64 1    
   126   62  185 1    
   127   63  186 1    
   128   63  187 1    
   129   63  188 1    
   130   64   65 am   BACKBONE|DICT|INTERRES
   131   64  189 1    
   132   65   66 2    
   133   67   68 2    
   134   67   69 am   BACKBONE|DICT|INTERRES
   135   69   70 1    
   136   69  190 1    
   137   70   71 1    
   138   70   72 1    
   139   70  191 1    
   140   71  192 1    
   141   71  193 1    
   142   71  194 1    
   143   72   73 2    
   144   72   74 am   BACKBONE|DICT|INTERRES
   145   74   75 1    
   146   74  195 1    
   147   75   76 1    
   148   75   77 1    
   149   75  196 1    
   150   76  197 1    
   151   76  198 1    
   152   76  199 1    
   153   77   78 2    
   154   77   79 am   BACKBONE|DICT|INTERRES
   155   79   80 1    
   156   79  200 1    
   157   80   81 1    
   158   80   82 1    
   159   80  201 1    
   160   81  202 1    
   161   81  203 1    
   162   81  204 1    
   163   82   83 2    
   164   82   84 am   BACKBONE|DICT|INTERRES
   165   84   85 1    
   166   84  205 1    
   167   85   86 1    
   168   85   87 1    
   169   85  206 1    
   170   86  207 1    
   171   86  208 1    
   172   86  209 1    
   173   87   88 2    
   174   87   89 am   BACKBONE|DICT|INTERRES
   175   89   90 1    
   176   89  210 1    
   177   90   91 1    
   178   90   92 1    
   179   90  211 1    
   180   91  212 1    
   181   91  213 1    
   182   91  214 1    
   183   92   93 2    
   184   92   94 am   BACKBONE|DICT|INTERRES
   185   94   95 1    
   186   94  215 1    
   187   95   96 1    
   188   95   97 1    
   189   95  216 1    
   190   96  217 1    
   191   96  218 1    
   192   96  219 1    
   193   97   98 2    
   194   97   99 am   BACKBONE|DICT|INTERRES
   195   99  100 1    
   196   99  220 1    
   197  100  101 1    
   198  100  102 1    
   199  100  221 1    
   200  101  222 1    
   201  101  223 1    
   202  101  224 1    
   203  102  103 2    
   204  102  104 am   BACKBONE|DICT|INTERRES
   205  104  105 1    
   206  104  225 1    
   207  105  106 1    
   208  105  107 1    
   209  105  226 1    
   210  106  227 1    
   211  106  228 1    
   212  106  229 1    
   213  107  108 2    
   214  107  109 am   BACKBONE|DICT|INTERRES
   215  109  110 1    
   216  109  230 1    
   217  110  111 1    
   218  110  112 1    
   219  110  231 1    
   220  111  232 1    
   221  111  233 1    
   222  111  234 1    
   223  112  113 2    
   224  112  114 am   BACKBONE|DICT|INTERRES
   225  114  115 1    
   226  114  235 1    
   227  115  116 1    
   228  115  117 1    
   229  115  236 1    
   230  116  237 1    
   231  116  238 1    
   232  116  239 1    
   233  117  118 2    
   234  117  119 am   BACKBONE|DICT|INTERRES
   235  119  120 1    
   236  119  240 1    
   237  120  121 1    
   238  120  124 1    
   239  120  241 1    
   240  121  122 am   BACKBONE|DICT|INTERRES
   241  121  123 2    
   242  122  242 1    
   243  122  243 1    
   244  124  125 1    
   245  124  244 1    
   246  124  245 1    
   247  125  126 1    
   248  126  246 1    
   249  126  247 1    
@<TRIPOS>SUBSTRUCTURE
     1 UNK         1 GROUP             0       ****    0 ROOT    
