@<TRIPOS>MOLECULE
3R540
247   249    1
SMALL
USER_CHARGES


@<TRIPOS>ATOM
      1 CA          0.3528  -14.0170  -49.8216 C.3       0 UNK        -0.1800 
      2 C           1.7729  -14.5580  -49.7383 C.2       0 UNK         0.5000 
      3 O           2.7280  -13.7822  -49.7655 O.2       0 UNK        -0.5000 
      4 N           1.9091  -15.8865  -49.6553 N.am      1 UNK        -0.5000 
      5 CA          3.1799  -16.6138  -49.5682 C.3       1 UNK         0.1400 
      6 C6          2.9859  -18.1484  -49.6449 C.3       23 UNK        -0.0398 
      7 S7          2.0721  -18.6943  -51.1266 S.3       23 UNK        -0.2404 
      8 C8          0.5919  -19.4541  -50.3892 C.3       23 UNK        -0.0205 
      9 C9         -0.4574  -18.4244  -50.0024 C.ar      23 UNK        -0.0193 
     10 C10        -1.4381  -18.0535  -50.9262 C.ar      23 UNK        -0.1150 
     11 C11        -2.4084  -17.1068  -50.5895 C.ar      23 UNK        -0.0193 
     12 C12        -2.3911  -16.5270  -49.3188 C.ar      23 UNK        -0.1150 
     13 C13        -1.4181  -16.8906  -48.3844 C.ar      23 UNK        -0.0193 
     14 C14        -0.4585  -17.8484  -48.7275 C.ar      23 UNK        -0.1150 
     15 C15        -1.3884  -16.2109  -47.0246 C.3       23 UNK        -0.0205 
     16 S16        -2.7113  -16.8105  -45.9265 S.3       23 UNK        -0.2404 
     17 C17        -1.8490  -18.1015  -44.9715 C.3       23 UNK        -0.0398 
     18 CA         -1.8050  -19.4739  -45.6831 C.3       11 UNK         0.1400 
     19 N          -0.6804  -20.2804  -45.2057 N.am      11 UNK        -0.5000 
     20 C          -0.2718  -21.4399  -45.7365 C.2       10 UNK         0.5000 
     21 O          -0.8390  -22.0040  -46.6704 O.2       10 UNK        -0.5000 
     22 CA          0.9708  -22.0831  -45.1060 C.3       10 UNK         0.1400 
     23 CB          2.2502  -21.3975  -45.6116 C.3       10 UNK        -0.1800 
     24 N           0.9078  -22.0072  -43.6481 N.am      10 UNK        -0.5000 
     25 C           0.2260  -22.8715  -42.8835 C.2       9 UNK         0.5000 
     26 O          -0.3371  -23.8755  -43.3208 O.2       9 UNK        -0.5000 
     27 CA          0.1347  -22.5489  -41.3792 C.3       9 UNK         0.1400 
     28 CB          1.3285  -23.1526  -40.6243 C.3       9 UNK        -0.1800 
     29 N           0.0609  -21.1141  -41.0947 N.am      9 UNK        -0.5000 
     30 C          -0.9482  -20.3151  -41.4680 C.2       8 UNK         0.5000 
     31 O          -1.9320  -20.7015  -42.0968 O.2       8 UNK        -0.5000 
     32 CA         -0.8174  -18.8215  -41.1236 C.3       8 UNK         0.1400 
     33 CB         -1.3545  -18.5477  -39.7114 C.3       8 UNK        -0.1800 
     34 N           0.5396  -18.2813  -41.2345 N.am      8 UNK        -0.5000 
     35 C           1.3377  -18.3441  -42.3103 C.2       7 UNK         0.5000 
     36 O           1.0734  -19.0043  -43.3171 O.2       7 UNK        -0.5000 
     37 CA          2.6246  -17.4996  -42.2415 C.3       7 UNK         0.1400 
     38 CB          3.3934  -17.4759  -43.5761 C.3       7 UNK        -0.1800 
     39 N           2.2793  -16.1304  -41.8554 N.am      7 UNK        -0.5000 
     40 C           2.3352  -15.6360  -40.6099 C.2       6 UNK         0.5000 
     41 O           2.7957  -16.2638  -39.6564 O.2       6 UNK        -0.5000 
     42 CA          1.7373  -14.2349  -40.3624 C.3       6 UNK         0.1400 
     43 CB          2.8379  -13.1872  -40.1468 C.3       6 UNK        -0.1800 
     44 N           0.8513  -13.7904  -41.4395 N.am      6 UNK        -0.5000 
     45 C          -0.4145  -14.2068  -41.5936 C.2       5 UNK         0.5000 
     46 O          -0.9869  -14.9517  -40.7980 O.2       5 UNK        -0.5000 
     47 CA         -1.1621  -13.7398  -42.8602 C.3       5 UNK         0.1400 
     48 CB         -2.0324  -12.5129  -42.5505 C.3       5 UNK        -0.1800 
     49 N          -0.2864  -13.4299  -43.9946 N.am      5 UNK        -0.5000 
     50 C           0.5332  -14.3072  -44.5878 C.2       4 UNK         0.5000 
     51 O           0.6473  -15.4759  -44.2216 O.2       4 UNK        -0.5000 
     52 CA          1.3906  -13.8138  -45.7670 C.3       4 UNK         0.1400 
     53 CB          1.0495  -12.3911  -46.2627 C.3       4 UNK        -0.1800 
     54 N           2.8169  -13.9380  -45.4658 N.am      4 UNK        -0.5000 
     55 C           3.5018  -13.3314  -44.4842 C.2       3 UNK         0.5000 
     56 O           2.9804  -12.5681  -43.6694 O.2       3 UNK        -0.5000 
     57 CA          5.0159  -13.6247  -44.3780 C.3       3 UNK         0.1400 
     58 CB          5.4305  -13.9650  -42.9369 C.3       3 UNK        -0.1800 
     59 N           5.4537  -14.7113  -45.2558 N.am      3 UNK        -0.5000 
     60 C           5.8538  -14.5693  -46.5252 C.2       2 UNK         0.5000 
     61 O           5.9258  -13.4837  -47.1026 O.2       2 UNK        -0.5000 
     62 CA          6.2180  -15.8573  -47.2953 C.3       2 UNK         0.1400 
     63 CB          6.3696  -17.1096  -46.4000 C.3       2 UNK        -0.1800 
     64 N           5.2733  -16.1262  -48.3843 N.am      2 UNK        -0.5000 
     65 C           3.9446  -16.2696  -48.2747 C.2       1 UNK         0.5000 
     66 O           3.3273  -16.1914  -47.2100 O.2       1 UNK        -0.5000 
     67 C          -3.1570  -20.2154  -45.6206 C.2       11 UNK         0.5000 
     68 O          -3.9346  -20.1282  -46.5704 O.2       11 UNK        -0.5000 
     69 N          -3.3895  -20.9852  -44.5471 N.am      12 UNK        -0.5000 
     70 CA         -4.5927  -21.8004  -44.3474 C.3       12 UNK         0.1400 
     71 CB         -4.5681  -22.3976  -42.9323 C.3       12 UNK        -0.1800 
     72 C          -4.7787  -22.9171  -45.3951 C.2       12 UNK         0.5000 
     73 O          -5.9157  -23.2920  -45.6822 O.2       12 UNK        -0.5000 
     74 N          -3.6676  -23.4158  -45.9510 N.am      13 UNK        -0.5000 
     75 CA         -3.6415  -24.4132  -47.0221 C.3       13 UNK         0.1400 
     76 CB         -2.4819  -25.3831  -46.7421 C.3       13 UNK        -0.1800 
     77 C          -3.4681  -23.7756  -48.4139 C.2       13 UNK         0.5000 
     78 O          -3.5045  -24.4999  -49.4103 O.2       13 UNK        -0.5000 
     79 N          -3.2257  -22.4548  -48.4572 N.am      14 UNK        -0.5000 
     80 CA         -2.7649  -21.6658  -49.6039 C.3       14 UNK         0.1400 
     81 CB         -3.9148  -21.4392  -50.6008 C.3       14 UNK        -0.1800 
     82 C          -1.5104  -22.2986  -50.2421 C.2       14 UNK         0.5000 
     83 O          -1.4893  -22.5758  -51.4431 O.2       14 UNK        -0.5000 
     84 N          -0.5243  -22.6002  -49.3839 N.am      15 UNK        -0.5000 
     85 CA          0.6349  -23.4747  -49.5871 C.3       15 UNK         0.1400 
     86 CB          1.5758  -22.9707  -50.7009 C.3       15 UNK        -0.1800 
     87 C           0.1992  -24.9368  -49.7935 C.2       15 UNK         0.5000 
     88 O           0.4003  -25.7643  -48.9043 O.2       15 UNK        -0.5000 
     89 N          -0.4251  -25.2082  -50.9424 N.am      16 UNK        -0.5000 
     90 CA         -1.0723  -26.4725  -51.2853 C.3       16 UNK         0.1400 
     91 CB         -0.0219  -27.4591  -51.8304 C.3       16 UNK        -0.1800 
     92 C          -2.2393  -26.2738  -52.2751 C.2       16 UNK         0.5000 
     93 O          -2.7888  -27.2652  -52.7577 O.2       16 UNK        -0.5000 
     94 N          -2.5958  -25.0184  -52.5895 N.am      17 UNK        -0.5000 
     95 CA         -3.6032  -24.6707  -53.5932 C.3       17 UNK         0.1400 
     96 CB         -3.2587  -23.2873  -54.1650 C.3       17 UNK        -0.1800 
     97 C          -5.0461  -24.6815  -53.0543 C.2       17 UNK         0.5000 
     98 O          -5.9748  -24.5181  -53.8490 O.2       17 UNK        -0.5000 
     99 N          -5.2162  -24.8236  -51.7307 N.am      18 UNK        -0.5000 
    100 CA        -6.4577  -24.7910  -50.9475 C.3       18 UNK         0.1400 
    101 CB        -7.4203  -25.9233  -51.3562 C.3       18 UNK        -0.1800 
    102 C         -7.1495  -23.4147  -50.9591 C.2       18 UNK         0.5000 
    103 O         -7.2947  -22.7959  -49.9051 O.2       18 UNK        -0.5000 
    104 N         -7.5447  -22.9610  -52.1514 N.am      19 UNK        -0.5000 
    105 CA        -8.1781  -21.6716  -52.4166 C.3       19 UNK         0.1400 
    106 CB        -9.6813  -21.7586  -52.0879 C.3       19 UNK        -0.1800 
    107 C         -7.9447  -21.1850  -53.8620 C.2       19 UNK         0.5000 
    108 O         -8.4593  -20.1242  -54.2173 O.2       19 UNK        -0.5000 
    109 N         -7.2065  -21.9483  -54.6864 N.am      20 UNK        -0.5000 
    110 CA        -6.9737  -21.6293  -56.0990 C.3       20 UNK         0.1400 
    111 CB        -6.5927  -22.9153  -56.8494 C.3       20 UNK        -0.1800 
    112 C         -5.9141  -20.5313  -56.3219 C.2       20 UNK         0.5000 
    113 O         -5.9249  -19.8907  -57.3746 O.2       20 UNK        -0.5000 
    114 N         -5.0187  -20.3315  -55.3454 N.am      21 UNK        -0.5000 
    115 CA        -4.0103  -19.2709  -55.3566 C.3       21 UNK         0.1400 
    116 CB        -2.8839  -19.6312  -54.3758 C.3       21 UNK        -0.1800 
    117 C         -4.6217  -17.9037  -54.9986 C.2       21 UNK         0.5000 
    118 O         -5.6712  -17.8446  -54.3544 O.2       21 UNK        -0.5000 
    119 N         -3.9247  -16.8330  -55.3980 N.am      22 UNK        -0.5000 
    120 CA        -4.2857  -15.4194  -55.1694 C.3       22 UNK         0.1400 
    121 C         -5.5182  -14.9185  -55.9864 C.2       22 UNK         0.5000 
    122 N         -6.0072  -15.6565  -56.9758 N.am      22 UNK        -0.7600 
    123 O         -6.0226  -13.8245  -55.7467 O.2       22 UNK        -0.5000 
    124 C124       -4.3835  -15.0314  -53.6642 C.3       23 UNK        -0.0398 
    125 S125       -2.8690  -15.4034  -52.7120 S.3       23 UNK        -0.2404 
    126 C126       -3.4732  -16.7070  -51.5965 C.3       23 UNK        -0.0205 
    127 H127       -0.0176  -13.7687  -48.8277 H         1 UNK         0.0600 
    128 H128       -0.3220  -14.7452  -50.2717 H         1 UNK         0.0600 
    129 H129        0.3241  -13.1151  -50.4330 H         1 UNK         0.0600 
    130 H130        1.0818  -16.4670  -49.6507 H         1 UNK         0.3000 
    131 H131        3.7853  -16.3023  -50.4220 H         1 UNK         0.0600 
    132 H132        2.4876  -18.5193  -48.7481 H         1 UNK         0.0800 
    133 H133        3.9571  -18.6462  -49.6668 H         1 UNK         0.0800 
    134 H134        0.8666  -20.0610  -49.5255 H         1 UNK         0.0800 
    135 H135        0.1737  -20.1420  -51.1246 H         1 UNK         0.0800 
    136 H136       -1.4417  -18.4959  -51.9123 H         1 UNK         0.1150 
    137 H137       -3.1322  -15.7848  -49.0567 H         1 UNK         0.1150 
    138 H138        0.2930  -18.1340  -48.0049 H         1 UNK         0.1150 
    139 H139       -0.4143  -16.3490  -46.5557 H         1 UNK         0.0800 
    140 H140       -1.5111  -15.1357  -47.1609 H         1 UNK         0.0800 
    141 H141       -2.3286  -18.1874  -43.9959 H         1 UNK         0.0800 
    142 H142       -0.8389  -17.7443  -44.7670 H         1 UNK         0.0800 
    143 H143       -1.6058  -19.2999  -46.7404 H         1 UNK         0.0600 
    144 H144       -0.1241  -19.8767  -44.4560 H         1 UNK         0.3000 
    145 H145        1.0047  -23.1301  -45.4156 H         1 UNK         0.0600 
    146 H146        3.1398  -21.8708  -45.1961 H         1 UNK         0.0600 
    147 H147        2.2799  -20.3400  -45.3465 H         1 UNK         0.0600 
    148 H148        2.3236  -21.4641  -46.6980 H         1 UNK         0.0600 
    149 H149        1.2826  -21.1689  -43.2226 H         1 UNK         0.3000 
    150 H150       -0.7789  -23.0114  -40.9995 H         1 UNK         0.0600 
    151 H151        1.3975  -24.2272  -40.7986 H         1 UNK         0.0600 
    152 H152        1.2308  -23.0050  -39.5486 H         1 UNK         0.0600 
    153 H153        2.2724  -22.7072  -40.9410 H         1 UNK         0.0600 
    154 H154        0.8357  -20.7063  -40.5924 H         1 UNK         0.3000 
    155 H155       -1.4375  -18.2679  -41.8297 H         1 UNK         0.0600 
    156 H156       -2.3749  -18.9178  -39.6021 H         1 UNK         0.0600 
    157 H157       -1.3745  -17.4787  -39.4977 H         1 UNK         0.0600 
    158 H158       -0.7450  -19.0319  -38.9475 H         1 UNK         0.0600 
    159 H159        0.8531  -17.7177  -40.4573 H         1 UNK         0.3000 
    160 H160        3.2734  -17.9573  -41.4924 H         1 UNK         0.0600 
    161 H161        4.3199  -16.9119  -43.4837 H         1 UNK         0.0600 
    162 H162        3.6627  -18.4848  -43.8911 H         1 UNK         0.0600 
    163 H163        2.8056  -17.0297  -44.3791 H         1 UNK         0.0600 
    164 H164        1.7923  -15.5994  -42.5700 H         1 UNK         0.3000 
    165 H165        1.1585  -14.2964  -39.4382 H         1 UNK         0.0600 
    166 H166        2.4140  -12.2320  -39.8367 H         1 UNK         0.0600 
    167 H167        3.5356  -13.5007  -39.3691 H         1 UNK         0.0600 
    168 H168        3.4110  -13.0155  -41.0550 H         1 UNK         0.0600 
    169 H169        1.2605  -13.1938  -42.1478 H         1 UNK         0.3000 
    170 H170       -1.8189  -14.5569  -43.1667 H         1 UNK         0.0600 
    171 H171       -1.4263  -11.6515  -42.2672 H         1 UNK         0.0600 
    172 H172       -2.6380  -12.2305  -43.4119 H         1 UNK         0.0600 
    173 H173       -2.7177  -12.7175  -41.7268 H         1 UNK         0.0600 
    174 H174       -0.3040  -12.4791  -44.3335 H         1 UNK         0.3000 
    175 H175        1.1960  -14.5011  -46.5905 H         1 UNK         0.0600 
    176 H176        1.2358  -11.6292  -45.5053 H         1 UNK         0.0600 
    177 H177        1.6471  -12.1359  -47.1381 H         1 UNK         0.0600 
    178 H178        0.0027  -12.3183  -46.5606 H         1 UNK         0.0600 
    179 H179        3.3030  -14.6216  -46.0386 H         1 UNK         0.3000 
    180 H180        5.5367  -12.7081  -44.6620 H         1 UNK         0.0600 
    181 H181        6.4758  -14.2701  -42.8857 H         1 UNK         0.0600 
    182 H182        4.8249  -14.7677  -42.5163 H         1 UNK         0.0600 
    183 H183        5.3251  -13.0941  -42.2904 H         1 UNK         0.0600 
    184 H184        5.3948  -15.6452  -44.8779 H         1 UNK         0.3000 
    185 H185        7.1864  -15.6680  -47.7608 H         1 UNK         0.0600 
    186 H186        6.7204  -17.9607  -46.9837 H         1 UNK         0.0600 
    187 H187        7.1024  -16.9437  -45.6092 H         1 UNK         0.0600 
    188 H188        5.4300  -17.4030  -45.9307 H         1 UNK         0.0600 
    189 H189        5.6869  -16.1770  -49.3048 H         1 UNK         0.3000 
    190 H190       -2.7191  -20.9815  -43.7813 H         1 UNK         0.3000 
    191 H191       -5.4573  -21.1378  -44.4224 H         1 UNK         0.0600 
    192 H192       -4.5623  -21.6140  -42.1745 H         1 UNK         0.0600 
    193 H193       -3.6868  -23.0213  -42.7760 H         1 UNK         0.0600 
    194 H194       -5.4476  -23.0167  -42.7505 H         1 UNK         0.0600 
    195 H195       -2.7725  -23.0401  -45.6673 H         1 UNK         0.3000 
    196 H196       -4.5717  -24.9846  -47.0351 H         1 UNK         0.0600 
    197 H197       -2.6030  -25.8752  -45.7770 H         1 UNK         0.0600 
    198 H198       -1.5200  -24.8682  -46.7373 H         1 UNK         0.0600 
    199 H199       -2.4294  -26.1649  -47.5012 H         1 UNK         0.0600 
    200 H200       -3.2545  -21.9494  -47.5811 H         1 UNK         0.3000 
    201 H201       -2.4638  -20.6924  -49.2136 H         1 UNK         0.0600 
    202 H202       -4.7855  -21.0071  -50.1073 H         1 UNK         0.0600 
    203 H203       -4.2263  -22.3665  -51.0766 H         1 UNK         0.0600 
    204 H204       -3.6111  -20.7496  -51.3858 H         1 UNK         0.0600 
    205 H205       -0.6901  -22.3617  -48.4063 H         1 UNK         0.3000 
    206 H206        1.1974  -23.4454  -48.6525 H         1 UNK         0.0600 
    207 H207        1.0774  -22.8752  -51.6651 H         1 UNK         0.0600 
    208 H208        1.9996  -22.0001  -50.4473 H         1 UNK         0.0600 
    209 H209        2.4127  -23.6565  -50.8372 H         1 UNK         0.0600 
    210 H210       -0.5616  -24.4393  -51.5867 H         1 UNK         0.3000 
    211 H211       -1.5137  -26.8954  -50.3803 H         1 UNK         0.0600 
    212 H212        0.4454  -27.0805  -52.7401 H         1 UNK         0.0600 
    213 H213       -0.4706  -28.4246  -52.0667 H         1 UNK         0.0600 
    214 H214        0.7665  -27.6430  -51.1005 H         1 UNK         0.0600 
    215 H215       -2.1694  -24.2304  -52.1122 H         1 UNK         0.3000 
    216 H216       -3.5563  -25.3927  -54.4111 H         1 UNK         0.0600 
    217 H217       -3.9100  -23.0313  -54.9992 H         1 UNK         0.0600 
    218 H218       -2.2345  -23.2567  -54.5370 H         1 UNK         0.0600 
    219 H219       -3.3642  -22.5050  -53.4138 H         1 UNK         0.0600 
    220 H220       -4.3784  -24.8787  -51.1581 H         1 UNK         0.3000 
    221 H221       -6.1608  -24.9814  -49.9152 H         1 UNK         0.0600 
    222 H222       -7.7707  -25.8213  -52.3833 H         1 UNK         0.0600 
    223 H223       -6.9395  -26.8972  -51.2638 H         1 UNK         0.0600 
    224 H224       -8.3008  -25.9334  -50.7128 H         1 UNK         0.0600 
    225 H225       -7.3450  -23.5522  -52.9514 H         1 UNK         0.3000 
    226 H226       -7.7225  -20.9212  -51.7671 H         1 UNK         0.0600 
    227 H227       -9.8453  -22.0240  -51.0435 H         1 UNK         0.0600 
    228 H228      -10.1796  -20.8032  -52.2568 H         1 UNK         0.0600 
    229 H229      -10.1812  -22.5053  -52.7058 H         1 UNK         0.0600 
    230 H230       -6.7934  -22.8133  -54.3571 H         1 UNK         0.3000 
    231 H231       -7.9090  -21.2640  -56.5288 H         1 UNK         0.0600 
    232 H232       -6.4492  -22.7195  -57.9129 H         1 UNK         0.0600 
    233 H233       -7.3761  -23.6683  -56.7616 H         1 UNK         0.0600 
    234 H234       -5.6691  -23.3507  -56.4696 H         1 UNK         0.0600 
    235 H235       -5.1190  -20.8569  -54.4912 H         1 UNK         0.3000 
    236 H236       -3.5822  -19.2050  -56.3593 H         1 UNK         0.0600 
    237 H237       -3.2590  -19.7402  -53.3601 H         1 UNK         0.0600 
    238 H238       -2.3943  -20.5623  -54.6595 H         1 UNK         0.0600 
    239 H239       -2.1145  -18.8584  -54.3579 H         1 UNK         0.0600 
    240 H240       -3.0695  -16.9768  -55.9157 H         1 UNK         0.3000 
    241 H241       -3.4511  -14.8514  -55.5816 H         1 UNK         0.0600 
    242 H242       -5.6098  -16.5570  -57.1915 H         1 UNK         0.3800 
    243 H243       -6.7956  -15.3170  -57.5044 H         1 UNK         0.3800 
    244 H244       -5.2457  -15.5108  -53.1994 H         1 UNK         0.0800 
    245 H245       -4.5565  -13.9587  -53.5642 H         1 UNK         0.0800 
    246 H246       -3.7788  -17.5775  -52.1768 H         1 UNK         0.0800 
    247 H247       -4.3653  -16.3560  -51.0755 H         1 UNK         0.0800 
@<TRIPOS>BOND
     1    1    2 1    
     2    1  127 1    
     3    1  128 1    
     4    1  129 1    
     5    2    3 2    
     6    2    4 am   BACKBONE|DICT|INTERRES
     7    4    5 1    
     8    4  130 1    
     9    5    6 1    
    10    5   65 1    
    11    5  131 1    
    12    6    7 1    
    13    6  132 1    
    14    6  133 1    
    15    7    8 1    
    16    8    9 1    
    17    8  134 1    
    18    8  135 1    
    19    9   10 ar   
    20    9   14 ar   
    21   10   11 ar   
    22   10  136 1    
    23   11   12 ar   
    24   11  126 1    
    25   12   13 ar   
    26   12  137 1    
    27   13   14 ar   
    28   13   15 1    
    29   14  138 1    
    30   15   16 1    
    31   15  139 1    
    32   15  140 1    
    33   16   17 1    
    34   17   18 1    
    35   17  141 1    
    36   17  142 1    
    37   18   19 1    
    38   18   67 1    
    39   18  143 1    
    40   19   20 am   BACKBONE|DICT|INTERRES
    41   19  144 1    
    42   20   21 2    
    43   20   22 1    
    44   22   23 1    
    45   22   24 1    
    46   22  145 1    
    47   23  146 1    
    48   23  147 1    
    49   23  148 1    
    50   24   25 am   BACKBONE|DICT|INTERRES
    51   24  149 1    
    52   25   26 2    
    53   25   27 1    
    54   27   28 1    
    55   27   29 1    
    56   27  150 1    
    57   28  151 1    
    58   28  152 1    
    59   28  153 1    
    60   29   30 am   BACKBONE|DICT|INTERRES
    61   29  154 1    
    62   30   31 2    
    63   30   32 1    
    64   32   33 1    
    65   32   34 1    
    66   32  155 1    
    67   33  156 1    
    68   33  157 1    
    69   33  158 1    
    70   34   35 am   BACKBONE|DICT|INTERRES
    71   34  159 1    
    72   35   36 2    
    73   35   37 1    
    74   37   38 1    
    75   37   39 1    
    76   37  160 1    
    77   38  161 1    
    78   38  162 1    
    79   38  163 1    
    80   39   40 am   BACKBONE|DICT|INTERRES
    81   39  164 1    
    82   40   41 2    
    83   40   42 1    
    84   42   43 1    
    85   42   44 1    
    86   42  165 1    
    87   43  166 1    
    88   43  167 1    
    89   43  168 1    
    90   44   45 am   BACKBONE|DICT|INTERRES
    91   44  169 1    
    92   45   46 2    
    93   45   47 1    
    94   47   48 1    
    95   47   49 1    
    96   47  170 1    
    97   48  171 1    
    98   48  172 1    
    99   48  173 1    
   100   49   50 am   BACKBONE|DICT|INTERRES
   101   49  174 1    
   102   50   51 2    
   103   50   52 1    
   104   52   53 1    
   105   52   54 1    
   106   52  175 1    
   107   53  176 1    
   108   53  177 1    
   109   53  178 1    
   110   54   55 am   BACKBONE|DICT|INTERRES
   111   54  179 1    
   112   55   56 2    
   113   55   57 1    
   114   57   58 1    
   115   57   59 1    
   116   57  180 1    
   117   58  181 1    
   118   58  182 1    
   119   58  183 1    
   120   59   60 am   BACKBONE|DICT|INTERRES
   121   59  184 1    
   122   60   61 2    
   123   60   62 1    
   124   62   63 1    
   125   62   64 1    
   126   62  185 1    
   127   63  186 1    
   128   63  187 1    
   129   63  188 1    
   130   64   65 am   BACKBONE|DICT|INTERRES
   131   64  189 1    
   132   65   66 2    
   133   67   68 2    
   134   67   69 am   BACKBONE|DICT|INTERRES
   135   69   70 1    
   136   69  190 1    
   137   70   71 1    
   138   70   72 1    
   139   70  191 1    
   140   71  192 1    
   141   71  193 1    
   142   71  194 1    
   143   72   73 2    
   144   72   74 am   BACKBONE|DICT|INTERRES
   145   74   75 1    
   146   74  195 1    
   147   75   76 1    
   148   75   77 1    
   149   75  196 1    
   150   76  197 1    
   151   76  198 1    
   152   76  199 1    
   153   77   78 2    
   154   77   79 am   BACKBONE|DICT|INTERRES
   155   79   80 1    
   156   79  200 1    
   157   80   81 1    
   158   80   82 1    
   159   80  201 1    
   160   81  202 1    
   161   81  203 1    
   162   81  204 1    
   163   82   83 2    
   164   82   84 am   BACKBONE|DICT|INTERRES
   165   84   85 1    
   166   84  205 1    
   167   85   86 1    
   168   85   87 1    
   169   85  206 1    
   170   86  207 1    
   171   86  208 1    
   172   86  209 1    
   173   87   88 2    
   174   87   89 am   BACKBONE|DICT|INTERRES
   175   89   90 1    
   176   89  210 1    
   177   90   91 1    
   178   90   92 1    
   179   90  211 1    
   180   91  212 1    
   181   91  213 1    
   182   91  214 1    
   183   92   93 2    
   184   92   94 am   BACKBONE|DICT|INTERRES
   185   94   95 1    
   186   94  215 1    
   187   95   96 1    
   188   95   97 1    
   189   95  216 1    
   190   96  217 1    
   191   96  218 1    
   192   96  219 1    
   193   97   98 2    
   194   97   99 am   BACKBONE|DICT|INTERRES
   195   99  100 1    
   196   99  220 1    
   197  100  101 1    
   198  100  102 1    
   199  100  221 1    
   200  101  222 1    
   201  101  223 1    
   202  101  224 1    
   203  102  103 2    
   204  102  104 am   BACKBONE|DICT|INTERRES
   205  104  105 1    
   206  104  225 1    
   207  105  106 1    
   208  105  107 1    
   209  105  226 1    
   210  106  227 1    
   211  106  228 1    
   212  106  229 1    
   213  107  108 2    
   214  107  109 am   BACKBONE|DICT|INTERRES
   215  109  110 1    
   216  109  230 1    
   217  110  111 1    
   218  110  112 1    
   219  110  231 1    
   220  111  232 1    
   221  111  233 1    
   222  111  234 1    
   223  112  113 2    
   224  112  114 am   BACKBONE|DICT|INTERRES
   225  114  115 1    
   226  114  235 1    
   227  115  116 1    
   228  115  117 1    
   229  115  236 1    
   230  116  237 1    
   231  116  238 1    
   232  116  239 1    
   233  117  118 2    
   234  117  119 am   BACKBONE|DICT|INTERRES
   235  119  120 1    
   236  119  240 1    
   237  120  121 1    
   238  120  124 1    
   239  120  241 1    
   240  121  122 am   BACKBONE|DICT|INTERRES
   241  121  123 2    
   242  122  242 1    
   243  122  243 1    
   244  124  125 1    
   245  124  244 1    
   246  124  245 1    
   247  125  126 1    
   248  126  246 1    
   249  126  247 1    
@<TRIPOS>SUBSTRUCTURE
     1 UNK         1 GROUP             0       ****    0 ROOT    
