@<TRIPOS>MOLECULE
3R540
247   249    1
SMALL
USER_CHARGES


@<TRIPOS>ATOM
      1 CA          0.9049  -14.9094  -53.9087 C.3       0 UNK        -0.1800 
      2 C           0.5485  -14.5306  -52.4789 C.2       0 UNK         0.5000 
      3 O          -0.1368  -13.5312  -52.2602 O.2       0 UNK        -0.5000 
      4 N           1.0204  -15.3189  -51.5067 N.am      1 UNK        -0.5000 
      5 CA          0.6972  -15.1864  -50.0846 C.3       1 UNK         0.1400 
      6 C6          1.7653  -15.8775  -49.1952 C.3       23 UNK        -0.0398 
      7 S7          1.8597  -17.6946  -49.3706 S.3       23 UNK        -0.2404 
      8 C8          3.1926  -17.8969  -50.5877 C.3       23 UNK        -0.0205 
      9 C9          3.0223  -19.2061  -51.3388 C.ar      23 UNK        -0.0193 
     10 C10         2.1370  -19.2820  -52.4188 C.ar      23 UNK        -0.1150 
     11 C11         1.9717  -20.4804  -53.1188 C.ar      23 UNK        -0.0193 
     12 C12         2.6902  -21.6111  -52.7203 C.ar      23 UNK        -0.1150 
     13 C13         3.5697  -21.5505  -51.6353 C.ar      23 UNK        -0.0193 
     14 C14         3.7373  -20.3427  -50.9518 C.ar      23 UNK        -0.1150 
     15 C15         4.3441  -22.7902  -51.2159 C.3       23 UNK        -0.0205 
     16 S16         3.3218  -23.9239  -50.2249 S.3       23 UNK        -0.2404 
     17 C17         3.3696  -23.1238  -48.5867 C.3       23 UNK        -0.0398 
     18 CA          2.2135  -23.5972  -47.6708 C.3       11 UNK         0.1400 
     19 N           2.6054  -23.6078  -46.2591 N.am      11 UNK        -0.5000 
     20 C           1.9068  -24.2019  -45.2807 C.2       10 UNK         0.5000 
     21 O           0.8685  -24.8314  -45.4727 O.2       10 UNK        -0.5000 
     22 CA          2.4304  -24.0265  -43.8429 C.3       10 UNK         0.1400 
     23 CB          3.3566  -25.1902  -43.4612 C.3       10 UNK        -0.1800 
     24 N           3.1367  -22.7586  -43.6455 N.am      10 UNK        -0.5000 
     25 C           2.5618  -21.5528  -43.7322 C.2       9 UNK         0.5000 
     26 O           1.3618  -21.3801  -43.9603 O.2       9 UNK        -0.5000 
     27 CA          3.5007  -20.3467  -43.6120 C.3       9 UNK         0.1400 
     28 CB          3.5182  -19.5415  -44.9225 C.3       9 UNK        -0.1800 
     29 N           3.0655  -19.4797  -42.5255 N.am      9 UNK        -0.5000 
     30 C           3.5457  -19.5178  -41.2775 C.2       8 UNK         0.5000 
     31 O           4.3867  -20.3325  -40.8946 O.2       8 UNK        -0.5000 
     32 CA          3.0165  -18.4627  -40.2944 C.3       8 UNK         0.1400 
     33 CB          3.5852  -17.0745  -40.6326 C.3       8 UNK        -0.1800 
     34 N           1.5559  -18.3929  -40.3056 N.am      8 UNK        -0.5000 
     35 C           0.7703  -18.6320  -39.2452 C.2       7 UNK         0.5000 
     36 O           1.1975  -18.9944  -38.1480 O.2       7 UNK        -0.5000 
     37 CA         -0.7480  -18.4131  -39.4123 C.3       7 UNK         0.1400 
     38 CB         -1.1888  -17.1302  -38.6901 C.3       7 UNK        -0.1800 
     39 N          -1.1617  -18.3369  -40.8133 N.am      7 UNK        -0.5000 
     40 C          -1.3216  -19.4073  -41.6041 C.2       6 UNK         0.5000 
     41 O          -1.2310  -20.5651  -41.1966 O.2       6 UNK        -0.5000 
     42 CA         -1.6098  -19.1575  -43.0982 C.3       6 UNK         0.1400 
     43 CB         -3.0739  -19.4727  -43.4346 C.3       6 UNK        -0.1800 
     44 N          -1.2942  -17.8016  -43.5610 N.am      6 UNK        -0.5000 
     45 C          -0.0613  -17.2726  -43.6008 C.2       5 UNK         0.5000 
     46 O           0.9447  -17.8698  -43.2243 O.2       5 UNK        -0.5000 
     47 CA          0.0760  -15.8172  -44.0838 C.3       5 UNK         0.1400 
     48 CB          0.3041  -15.7898  -45.6010 C.3       5 UNK        -0.1800 
     49 N          -1.0732  -14.9769  -43.7444 N.am      5 UNK        -0.5000 
     50 C          -1.5333  -14.7739  -42.4997 C.2       4 UNK         0.5000 
     51 O          -0.9842  -15.2210  -41.4926 O.2       4 UNK        -0.5000 
     52 CA         -2.8493  -13.9873  -42.3446 C.3       4 UNK         0.1400 
     53 CB         -2.5630  -12.5478  -41.8918 C.3       4 UNK        -0.1800 
     54 N          -3.6841  -13.9484  -43.5481 N.am      4 UNK        -0.5000 
     55 C          -4.1797  -15.0066  -44.2048 C.2       3 UNK         0.5000 
     56 O          -3.9612  -16.1769  -43.8856 O.2       3 UNK        -0.5000 
     57 CA         -5.0364  -14.7168  -45.4508 C.3       3 UNK         0.1400 
     58 CB         -5.4768  -13.2422  -45.5929 C.3       3 UNK        -0.1800 
     59 N          -4.3755  -15.1662  -46.6754 N.am      3 UNK        -0.5000 
     60 C          -3.1842  -14.7962  -47.1601 C.2       2 UNK         0.5000 
     61 O          -2.4036  -14.0277  -46.5897 O.2       2 UNK        -0.5000 
     62 CA         -2.8283  -15.3798  -48.5353 C.3       2 UNK         0.1400 
     63 CB         -3.7659  -14.8251  -49.6298 C.3       2 UNK        -0.1800 
     64 N          -1.4404  -15.0713  -48.8672 N.am      2 UNK        -0.5000 
     65 C          -0.7381  -15.6957  -49.8183 C.2       1 UNK         0.5000 
     66 O          -1.1836  -16.6367  -50.4801 O.2       1 UNK        -0.5000 
     67 C           0.9192  -22.7862  -47.9018 C.2       11 UNK         0.5000 
     68 O           0.0583  -23.2244  -48.6623 O.2       11 UNK        -0.5000 
     69 N           0.7714  -21.6547  -47.1947 N.am      12 UNK        -0.5000 
     70 CA         -0.4387  -20.8291  -47.2169 C.3       12 UNK         0.1400 
     71 CB         -0.1512  -19.4676  -46.5709 C.3       12 UNK        -0.1800 
     72 C          -1.6264  -21.5206  -46.5247 C.2       12 UNK         0.5000 
     73 O          -2.7570  -21.4036  -46.9982 O.2       12 UNK        -0.5000 
     74 N          -1.3463  -22.2593  -45.4408 N.am      13 UNK        -0.5000 
     75 CA         -2.3229  -23.0961  -44.7426 C.3       13 UNK         0.1400 
     76 CB         -1.7344  -23.5832  -43.4111 C.3       13 UNK        -0.1800 
     77 C          -2.8010  -24.2772  -45.6082 C.2       13 UNK         0.5000 
     78 O          -4.0040  -24.5287  -45.6754 O.2       13 UNK        -0.5000 
     79 N          -1.8655  -24.9423  -46.3025 N.am      14 UNK        -0.5000 
     80 CA         -2.1379  -26.0068  -47.2743 C.3       14 UNK         0.1400 
     81 CB         -0.8150  -26.6517  -47.7137 C.3       14 UNK        -0.1800 
     82 C          -2.9372  -25.5152  -48.4976 C.2       14 UNK         0.5000 
     83 O          -3.7680  -26.2575  -49.0210 O.2       14 UNK        -0.5000 
     84 N          -2.7133  -24.2544  -48.8914 N.am      15 UNK        -0.5000 
     85 CA         -3.4650  -23.5273  -49.9168 C.3       15 UNK         0.1400 
     86 CB         -2.5703  -22.4102  -50.4786 C.3       15 UNK        -0.1800 
     87 C          -4.8205  -22.9746  -49.4124 C.2       15 UNK         0.5000 
     88 O          -5.4755  -22.2266  -50.1411 O.2       15 UNK        -0.5000 
     89 N          -5.2198  -23.3464  -48.1855 N.am      16 UNK        -0.5000 
     90 CA         -6.4900  -23.0490  -47.5176 C.3       16 UNK         0.1400 
     91 CB         -7.6682  -23.6956  -48.2762 C.3       16 UNK        -0.1800 
     92 C          -6.7089  -21.5499  -47.2371 C.2       16 UNK         0.5000 
     93 O          -7.8535  -21.0946  -47.2156 O.2       16 UNK        -0.5000 
     94 N          -5.6110  -20.8040  -47.0450 N.am      17 UNK        -0.5000 
     95 CA         -5.5063  -19.3669  -46.7611 C.3       17 UNK         0.1400 
     96 CB         -6.1959  -19.0057  -45.4325 C.3       17 UNK        -0.1800 
     97 C          -5.9706  -18.4326  -47.8963 C.2       17 UNK         0.5000 
     98 O          -5.4161  -17.3438  -48.0254 O.2       17 UNK        -0.5000 
     99 N          -6.9558  -18.8444  -48.7016 N.am      18 UNK        -0.5000 
    100 CA        -7.4365  -18.1114  -49.8723 C.3       18 UNK         0.1400 
    101 CB        -8.7545  -18.7349  -50.3563 C.3       18 UNK        -0.1800 
    102 C         -6.3965  -18.0842  -51.0063 C.2       18 UNK         0.5000 
    103 O         -6.1926  -17.0338  -51.6161 O.2       18 UNK        -0.5000 
    104 N         -5.7518  -19.2378  -51.2381 N.am      19 UNK        -0.5000 
    105 CA        -4.7190  -19.5240  -52.2354 C.3       19 UNK         0.1400 
    106 CB        -3.4154  -18.7584  -51.9330 C.3       19 UNK        -0.1800 
    107 C         -5.1827  -19.3467  -53.6925 C.2       19 UNK         0.5000 
    108 O         -5.3684  -20.3459  -54.3879 O.2       19 UNK        -0.5000 
    109 N         -5.3461  -18.0875  -54.1238 N.am      20 UNK        -0.5000 
    110 CA        -5.7158  -17.6442  -55.4741 C.3       20 UNK         0.1400 
    111 CB        -7.1862  -18.0035  -55.7730 C.3       20 UNK        -0.1800 
    112 C         -4.7385  -18.1411  -56.5642 C.2       20 UNK         0.5000 
    113 O         -5.1597  -18.4758  -57.6735 O.2       20 UNK        -0.5000 
    114 N         -3.4471  -18.1924  -56.2200 N.am      21 UNK        -0.5000 
    115 CA        -2.3615  -18.7088  -57.0441 C.3       21 UNK         0.1400 
    116 CB        -2.3219  -20.2453  -56.9367 C.3       21 UNK        -0.1800 
    117 C         -1.0357  -18.0947  -56.5746 C.2       21 UNK         0.5000 
    118 O         -0.9731  -17.5326  -55.4782 O.2       21 UNK        -0.5000 
    119 N         -0.0008  -18.2426  -57.4100 N.am      22 UNK        -0.5000 
    120 CA         1.3929  -17.8190  -57.1691 C.3       22 UNK         0.1400 
    121 C          1.6331  -16.2787  -57.2207 C.2       22 UNK         0.5000 
    122 N          0.6829  -15.4721  -57.6770 N.am      22 UNK        -0.7600 
    123 O          2.7119  -15.8051  -56.8745 O.2       22 UNK        -0.5000 
    124 C124        2.0362  -18.4702  -55.9101 C.3       23 UNK        -0.0398 
    125 S125        1.8829  -20.2920  -55.8794 S.3       23 UNK        -0.2404 
    126 C126        1.0162  -20.5627  -54.3003 C.3       23 UNK        -0.0205 
    127 H127       -0.0008  -15.1101  -54.4810 H         1 UNK         0.0600 
    128 H128        1.5339  -15.7989  -53.9478 H         1 UNK         0.0600 
    129 H129        1.4414  -14.0942  -54.3941 H         1 UNK         0.0600 
    130 H130        1.5206  -16.1588  -51.7521 H         1 UNK         0.3000 
    131 H131        0.7179  -14.1217  -49.8412 H         1 UNK         0.0600 
    132 H132        2.7478  -15.4478  -49.3952 H         1 UNK         0.0800 
    133 H133        1.5663  -15.6552  -48.1476 H         1 UNK         0.0800 
    134 H134        4.1553  -17.8663  -50.0750 H         1 UNK         0.0800 
    135 H135        3.1980  -17.0696  -51.2974 H         1 UNK         0.0800 
    136 H136        1.5715  -18.4083  -52.7087 H         1 UNK         0.1150 
    137 H137        2.5635  -22.5423  -53.2548 H         1 UNK         0.1150 
    138 H138        4.4190  -20.2872  -50.1148 H         1 UNK         0.1150 
    139 H139        4.6882  -23.3172  -52.1071 H         1 UNK         0.0800 
    140 H140        5.2424  -22.5192  -50.6590 H         1 UNK         0.0800 
    141 H141        3.3766  -22.0378  -48.6899 H         1 UNK         0.0800 
    142 H142        4.3326  -23.3868  -48.1466 H         1 UNK         0.0800 
    143 H143        1.9857  -24.6356  -47.9232 H         1 UNK         0.0600 
    144 H144        3.4527  -23.1181  -46.0139 H         1 UNK         0.3000 
    145 H145        1.5686  -24.0402  -43.1725 H         1 UNK         0.0600 
    146 H146        3.6741  -25.1169  -42.4209 H         1 UNK         0.0600 
    147 H147        2.8472  -26.1479  -43.5771 H         1 UNK         0.0600 
    148 H148        4.2508  -25.2163  -44.0852 H         1 UNK         0.0600 
    149 H149        4.1249  -22.8195  -43.4456 H         1 UNK         0.3000 
    150 H150        4.5182  -20.6970  -43.4253 H         1 UNK         0.0600 
    151 H151        3.8214  -20.1648  -45.7645 H         1 UNK         0.0600 
    152 H152        4.2232  -18.7123  -44.8621 H         1 UNK         0.0600 
    153 H153        2.5389  -19.1241  -45.1568 H         1 UNK         0.0600 
    154 H154        2.3179  -18.8281  -42.7609 H         1 UNK         0.3000 
    155 H155        3.3824  -18.7371  -39.3028 H         1 UNK         0.0600 
    156 H156        3.2426  -16.7225  -41.6067 H         1 UNK         0.0600 
    157 H157        4.6756  -17.0919  -40.6527 H         1 UNK         0.0600 
    158 H158        3.2854  -16.3368  -39.8881 H         1 UNK         0.0600 
    159 H159        1.1245  -18.1431  -41.1878 H         1 UNK         0.3000 
    160 H160       -1.2572  -19.2554  -38.9391 H         1 UNK         0.0600 
    161 H161       -0.6600  -16.2540  -39.0660 H         1 UNK         0.0600 
    162 H162       -0.9871  -17.1973  -37.6204 H         1 UNK         0.0600 
    163 H163       -2.2583  -16.9551  -38.8086 H         1 UNK         0.0600 
    164 H164       -1.2362  -17.4091  -41.2131 H         1 UNK         0.3000 
    165 H165       -0.9822  -19.8588  -43.6486 H         1 UNK         0.0600 
    166 H166       -3.2457  -19.4240  -44.5094 H         1 UNK         0.0600 
    167 H167       -3.3459  -20.4768  -43.1079 H         1 UNK         0.0600 
    168 H168       -3.7573  -18.7742  -42.9507 H         1 UNK         0.0600 
    169 H169       -2.0838  -17.2229  -43.8268 H         1 UNK         0.3000 
    170 H170        0.9535  -15.3890  -43.5953 H         1 UNK         0.0600 
    171 H171        1.1837  -16.3767  -45.8694 H         1 UNK         0.0600 
    172 H172       -0.5448  -16.2071  -46.1436 H         1 UNK         0.0600 
    173 H173        0.4663  -14.7729  -45.9585 H         1 UNK         0.0600 
    174 H174       -1.5878  -14.5759  -44.5192 H         1 UNK         0.3000 
    175 H175       -3.4276  -14.4840  -41.5631 H         1 UNK         0.0600 
    176 H176       -2.0120  -11.9906  -42.6507 H         1 UNK         0.0600 
    177 H177       -3.4865  -12.0081  -41.6816 H         1 UNK         0.0600 
    178 H178       -1.9670  -12.5357  -40.9781 H         1 UNK         0.0600 
    179 H179       -3.8908  -13.0306  -43.9146 H         1 UNK         0.3000 
    180 H180       -5.9383  -15.3216  -45.3464 H         1 UNK         0.0600 
    181 H181       -4.6330  -12.5695  -45.7506 H         1 UNK         0.0600 
    182 H182       -6.0157  -12.9037  -44.7069 H         1 UNK         0.0600 
    183 H183       -6.1516  -13.1218  -46.4405 H         1 UNK         0.0600 
    184 H184       -4.8851  -15.8735  -47.2051 H         1 UNK         0.3000 
    185 H185       -2.9398  -16.4644  -48.4736 H         1 UNK         0.0600 
    186 H186       -3.6566  -13.7457  -49.7398 H         1 UNK         0.0600 
    187 H187       -3.5649  -15.2822  -50.5987 H         1 UNK         0.0600 
    188 H188       -4.8127  -15.0278  -49.4016 H         1 UNK         0.0600 
    189 H189       -1.0343  -14.3282  -48.3123 H         1 UNK         0.3000 
    190 H190        1.4926  -21.3827  -46.5438 H         1 UNK         0.3000 
    191 H191       -0.7157  -20.6546  -48.2587 H         1 UNK         0.0600 
    192 H192       -1.0454  -18.8431  -46.5497 H         1 UNK         0.0600 
    193 H193        0.6132  -18.9229  -47.1204 H         1 UNK         0.0600 
    194 H194        0.2024  -19.5770  -45.5482 H         1 UNK         0.0600 
    195 H195       -0.3958  -22.2721  -45.0927 H         1 UNK         0.3000 
    196 H196       -3.1936  -22.4763  -44.5198 H         1 UNK         0.0600 
    197 H197       -2.4829  -24.1249  -42.8318 H         1 UNK         0.0600 
    198 H198       -1.3927  -22.7471  -42.8014 H         1 UNK         0.0600 
    199 H199       -0.8894  -24.2543  -43.5600 H         1 UNK         0.0600 
    200 H200       -0.8866  -24.7203  -46.1397 H         1 UNK         0.3000 
    201 H201       -2.7378  -26.7687  -46.7725 H         1 UNK         0.0600 
    202 H202       -0.2728  -27.0602  -46.8608 H         1 UNK         0.0600 
    203 H203       -0.1634  -25.9339  -48.2119 H         1 UNK         0.0600 
    204 H204       -0.9926  -27.4723  -48.4099 H         1 UNK         0.0600 
    205 H205       -1.9555  -23.7442  -48.4516 H         1 UNK         0.3000 
    206 H206       -3.6860  -24.2186  -50.7322 H         1 UNK         0.0600 
    207 H207       -1.5831  -22.7874  -50.7455 H         1 UNK         0.0600 
    208 H208       -2.9962  -21.9907  -51.3869 H         1 UNK         0.0600 
    209 H209       -2.4393  -21.5977  -49.7639 H         1 UNK         0.0600 
    210 H210       -4.5854  -23.9164  -47.6392 H         1 UNK         0.3000 
    211 H211       -6.4329  -23.5266  -46.5389 H         1 UNK         0.0600 
    212 H212       -7.8388  -23.2195  -49.2422 H         1 UNK         0.0600 
    213 H213       -8.5938  -23.6155  -47.7050 H         1 UNK         0.0600 
    214 H214       -7.4889  -24.7564  -48.4516 H         1 UNK         0.0600 
    215 H215       -4.7103  -21.2697  -47.1247 H         1 UNK         0.3000 
    216 H216       -4.4392  -19.1782  -46.6356 H         1 UNK         0.0600 
    217 H217       -5.9761  -17.9754  -45.1497 H         1 UNK         0.0600 
    218 H218       -5.8497  -19.6449  -44.6207 H         1 UNK         0.0600 
    219 H219       -7.2800  -19.1023  -45.4964 H         1 UNK         0.0600 
    220 H220       -7.4064  -19.7258  -48.4767 H         1 UNK         0.3000 
    221 H221       -7.6351  -17.0798  -49.5737 H         1 UNK         0.0600 
    222 H222       -8.6273  -19.7811  -50.6375 H         1 UNK         0.0600 
    223 H223       -9.5195  -18.6879  -49.5810 H         1 UNK         0.0600 
    224 H224       -9.1408  -18.2040  -51.2273 H         1 UNK         0.0600 
    225 H225       -6.0084  -20.0374  -50.6720 H         1 UNK         0.3000 
    226 H226       -4.5050  -20.5850  -52.1249 H         1 UNK         0.0600 
    227 H227       -3.5542  -17.6772  -51.9506 H         1 UNK         0.0600 
    228 H228       -3.0267  -19.0223  -50.9492 H         1 UNK         0.0600 
    229 H229       -2.6404  -18.9998  -52.6617 H         1 UNK         0.0600 
    230 H230       -5.2591  -17.3567  -53.4255 H         1 UNK         0.3000 
    231 H231       -5.6372  -16.5563  -55.4706 H         1 UNK         0.0600 
    232 H232       -7.5133  -17.5641  -56.7161 H         1 UNK         0.0600 
    233 H233       -7.8493  -17.6272  -54.9939 H         1 UNK         0.0600 
    234 H234       -7.3326  -19.0816  -55.8458 H         1 UNK         0.0600 
    235 H235       -3.1530  -17.8472  -55.3149 H         1 UNK         0.3000 
    236 H236       -2.5239  -18.4150  -58.0832 H         1 UNK         0.0600 
    237 H237       -3.2528  -20.6918  -57.2864 H         1 UNK         0.0600 
    238 H238       -1.5162  -20.6651  -57.5400 H         1 UNK         0.0600 
    239 H239       -2.1637  -20.5690  -55.9070 H         1 UNK         0.0600 
    240 H240       -0.1554  -18.7155  -58.2889 H         1 UNK         0.3000 
    241 H241        1.9463  -18.1983  -58.0287 H         1 UNK         0.0600 
    242 H242        0.8534  -14.4798  -57.7205 H         1 UNK         0.3800 
    243 H243       -0.2041  -15.8425  -57.9771 H         1 UNK         0.3800 
    244 H244        3.1009  -18.2363  -55.8627 H         1 UNK         0.0800 
    245 H245        1.5987  -18.0443  -55.0083 H         1 UNK         0.0800 
    246 H246        0.5481  -21.5479  -54.3225 H         1 UNK         0.0800 
    247 H247        0.2013  -19.8451  -54.1905 H         1 UNK         0.0800 
@<TRIPOS>BOND
     1    1    2 1    
     2    1  127 1    
     3    1  128 1    
     4    1  129 1    
     5    2    3 2    
     6    2    4 am   BACKBONE|DICT|INTERRES
     7    4    5 1    
     8    4  130 1    
     9    5    6 1    
    10    5   65 1    
    11    5  131 1    
    12    6    7 1    
    13    6  132 1    
    14    6  133 1    
    15    7    8 1    
    16    8    9 1    
    17    8  134 1    
    18    8  135 1    
    19    9   10 ar   
    20    9   14 ar   
    21   10   11 ar   
    22   10  136 1    
    23   11   12 ar   
    24   11  126 1    
    25   12   13 ar   
    26   12  137 1    
    27   13   14 ar   
    28   13   15 1    
    29   14  138 1    
    30   15   16 1    
    31   15  139 1    
    32   15  140 1    
    33   16   17 1    
    34   17   18 1    
    35   17  141 1    
    36   17  142 1    
    37   18   19 1    
    38   18   67 1    
    39   18  143 1    
    40   19   20 am   BACKBONE|DICT|INTERRES
    41   19  144 1    
    42   20   21 2    
    43   20   22 1    
    44   22   23 1    
    45   22   24 1    
    46   22  145 1    
    47   23  146 1    
    48   23  147 1    
    49   23  148 1    
    50   24   25 am   BACKBONE|DICT|INTERRES
    51   24  149 1    
    52   25   26 2    
    53   25   27 1    
    54   27   28 1    
    55   27   29 1    
    56   27  150 1    
    57   28  151 1    
    58   28  152 1    
    59   28  153 1    
    60   29   30 am   BACKBONE|DICT|INTERRES
    61   29  154 1    
    62   30   31 2    
    63   30   32 1    
    64   32   33 1    
    65   32   34 1    
    66   32  155 1    
    67   33  156 1    
    68   33  157 1    
    69   33  158 1    
    70   34   35 am   BACKBONE|DICT|INTERRES
    71   34  159 1    
    72   35   36 2    
    73   35   37 1    
    74   37   38 1    
    75   37   39 1    
    76   37  160 1    
    77   38  161 1    
    78   38  162 1    
    79   38  163 1    
    80   39   40 am   BACKBONE|DICT|INTERRES
    81   39  164 1    
    82   40   41 2    
    83   40   42 1    
    84   42   43 1    
    85   42   44 1    
    86   42  165 1    
    87   43  166 1    
    88   43  167 1    
    89   43  168 1    
    90   44   45 am   BACKBONE|DICT|INTERRES
    91   44  169 1    
    92   45   46 2    
    93   45   47 1    
    94   47   48 1    
    95   47   49 1    
    96   47  170 1    
    97   48  171 1    
    98   48  172 1    
    99   48  173 1    
   100   49   50 am   BACKBONE|DICT|INTERRES
   101   49  174 1    
   102   50   51 2    
   103   50   52 1    
   104   52   53 1    
   105   52   54 1    
   106   52  175 1    
   107   53  176 1    
   108   53  177 1    
   109   53  178 1    
   110   54   55 am   BACKBONE|DICT|INTERRES
   111   54  179 1    
   112   55   56 2    
   113   55   57 1    
   114   57   58 1    
   115   57   59 1    
   116   57  180 1    
   117   58  181 1    
   118   58  182 1    
   119   58  183 1    
   120   59   60 am   BACKBONE|DICT|INTERRES
   121   59  184 1    
   122   60   61 2    
   123   60   62 1    
   124   62   63 1    
   125   62   64 1    
   126   62  185 1    
   127   63  186 1    
   128   63  187 1    
   129   63  188 1    
   130   64   65 am   BACKBONE|DICT|INTERRES
   131   64  189 1    
   132   65   66 2    
   133   67   68 2    
   134   67   69 am   BACKBONE|DICT|INTERRES
   135   69   70 1    
   136   69  190 1    
   137   70   71 1    
   138   70   72 1    
   139   70  191 1    
   140   71  192 1    
   141   71  193 1    
   142   71  194 1    
   143   72   73 2    
   144   72   74 am   BACKBONE|DICT|INTERRES
   145   74   75 1    
   146   74  195 1    
   147   75   76 1    
   148   75   77 1    
   149   75  196 1    
   150   76  197 1    
   151   76  198 1    
   152   76  199 1    
   153   77   78 2    
   154   77   79 am   BACKBONE|DICT|INTERRES
   155   79   80 1    
   156   79  200 1    
   157   80   81 1    
   158   80   82 1    
   159   80  201 1    
   160   81  202 1    
   161   81  203 1    
   162   81  204 1    
   163   82   83 2    
   164   82   84 am   BACKBONE|DICT|INTERRES
   165   84   85 1    
   166   84  205 1    
   167   85   86 1    
   168   85   87 1    
   169   85  206 1    
   170   86  207 1    
   171   86  208 1    
   172   86  209 1    
   173   87   88 2    
   174   87   89 am   BACKBONE|DICT|INTERRES
   175   89   90 1    
   176   89  210 1    
   177   90   91 1    
   178   90   92 1    
   179   90  211 1    
   180   91  212 1    
   181   91  213 1    
   182   91  214 1    
   183   92   93 2    
   184   92   94 am   BACKBONE|DICT|INTERRES
   185   94   95 1    
   186   94  215 1    
   187   95   96 1    
   188   95   97 1    
   189   95  216 1    
   190   96  217 1    
   191   96  218 1    
   192   96  219 1    
   193   97   98 2    
   194   97   99 am   BACKBONE|DICT|INTERRES
   195   99  100 1    
   196   99  220 1    
   197  100  101 1    
   198  100  102 1    
   199  100  221 1    
   200  101  222 1    
   201  101  223 1    
   202  101  224 1    
   203  102  103 2    
   204  102  104 am   BACKBONE|DICT|INTERRES
   205  104  105 1    
   206  104  225 1    
   207  105  106 1    
   208  105  107 1    
   209  105  226 1    
   210  106  227 1    
   211  106  228 1    
   212  106  229 1    
   213  107  108 2    
   214  107  109 am   BACKBONE|DICT|INTERRES
   215  109  110 1    
   216  109  230 1    
   217  110  111 1    
   218  110  112 1    
   219  110  231 1    
   220  111  232 1    
   221  111  233 1    
   222  111  234 1    
   223  112  113 2    
   224  112  114 am   BACKBONE|DICT|INTERRES
   225  114  115 1    
   226  114  235 1    
   227  115  116 1    
   228  115  117 1    
   229  115  236 1    
   230  116  237 1    
   231  116  238 1    
   232  116  239 1    
   233  117  118 2    
   234  117  119 am   BACKBONE|DICT|INTERRES
   235  119  120 1    
   236  119  240 1    
   237  120  121 1    
   238  120  124 1    
   239  120  241 1    
   240  121  122 am   BACKBONE|DICT|INTERRES
   241  121  123 2    
   242  122  242 1    
   243  122  243 1    
   244  124  125 1    
   245  124  244 1    
   246  124  245 1    
   247  125  126 1    
   248  126  246 1    
   249  126  247 1    
@<TRIPOS>SUBSTRUCTURE
     1 UNK         1 GROUP             0       ****    0 ROOT    
