@<TRIPOS>MOLECULE
3R540
247   249    1
SMALL
USER_CHARGES


@<TRIPOS>ATOM
      1 CA         -0.6092  -12.1548  -49.2336 C.3       0 UNK        -0.1800 
      2 C          -1.5335  -12.8073  -48.2074 C.2       0 UNK         0.5000 
      3 O          -2.4660  -12.1591  -47.7375 O.2       0 UNK        -0.5000 
      4 N          -1.3283  -14.0776  -47.8310 N.am      1 UNK        -0.5000 
      5 CA         -0.2581  -14.9785  -48.2846 C.3       1 UNK         0.1400 
      6 C6         -0.6569  -16.4669  -48.1089 C.3       23 UNK        -0.0398 
      7 S7         -1.9359  -16.9968  -49.3029 S.3       23 UNK        -0.2404 
      8 C8         -1.0069  -17.1537  -50.8667 C.3       23 UNK        -0.0205 
      9 C9          0.0542  -18.2440  -50.8236 C.ar      23 UNK        -0.0193 
     10 C10        -0.2388  -19.5382  -51.2605 C.ar      23 UNK        -0.1150 
     11 C11         0.7492  -20.5282  -51.2591 C.ar      23 UNK        -0.0193 
     12 C12         2.0298  -20.2209  -50.7897 C.ar      23 UNK        -0.1150 
     13 C13         2.3279  -18.9377  -50.3211 C.ar      23 UNK        -0.0193 
     14 C14         1.3436  -17.9494  -50.3735 C.ar      23 UNK        -0.1150 
     15 C15         3.7114  -18.5936  -49.7817 C.3       23 UNK        -0.0205 
     16 S16         4.3119  -19.7432  -48.4981 S.3       23 UNK        -0.2404 
     17 C17         3.0974  -19.5493  -47.1447 C.3       23 UNK        -0.0398 
     18 CA          2.5747  -20.9255  -46.6530 C.3       11 UNK         0.1400 
     19 N           2.2584  -20.9373  -45.2217 N.am      11 UNK        -0.5000 
     20 C           2.1560  -22.0582  -44.4910 C.2       10 UNK         0.5000 
     21 O           2.3486  -23.1882  -44.9418 O.2       10 UNK        -0.5000 
     22 CA          1.7668  -21.9013  -43.0100 C.3       10 UNK         0.1400 
     23 CB          2.9927  -21.5403  -42.1578 C.3       10 UNK        -0.1800 
     24 N           0.7081  -20.9139  -42.8045 N.am      10 UNK        -0.5000 
     25 C          -0.5549  -21.0642  -43.2298 C.2       9 UNK         0.5000 
     26 O          -0.9729  -22.0772  -43.7910 O.2       9 UNK        -0.5000 
     27 CA         -1.5114  -19.8779  -43.0100 C.3       9 UNK         0.1400 
     28 CB         -2.1338  -19.9400  -41.6072 C.3       9 UNK        -0.1800 
     29 N          -0.8725  -18.5755  -43.1991 N.am      9 UNK        -0.5000 
     30 C          -0.3291  -18.1478  -44.3476 C.2       8 UNK         0.5000 
     31 O          -0.3011  -18.8028  -45.3874 O.2       8 UNK        -0.5000 
     32 CA          0.3686  -16.7820  -44.3075 C.3       8 UNK         0.1400 
     33 CB         -0.6502  -15.6357  -44.2009 C.3       8 UNK        -0.1800 
     34 N           1.3225  -16.7011  -43.2060 N.am      8 UNK        -0.5000 
     35 C           2.4033  -17.4815  -43.0660 C.2       7 UNK         0.5000 
     36 O           2.7335  -18.3513  -43.8722 O.2       7 UNK        -0.5000 
     37 CA          3.2280  -17.2798  -41.7843 C.3       7 UNK         0.1400 
     38 CB          4.2158  -16.1144  -41.9456 C.3       7 UNK        -0.1800 
     39 N           2.3761  -17.0438  -40.6186 N.am      7 UNK        -0.5000 
     40 C           1.5660  -17.9636  -40.0753 C.2       6 UNK         0.5000 
     41 O           1.4770  -19.1235  -40.4769 O.2       6 UNK        -0.5000 
     42 CA          0.6716  -17.4876  -38.9174 C.3       6 UNK         0.1400 
     43 CB          1.4639  -17.4295  -37.6027 C.3       6 UNK        -0.1800 
     44 N           0.0690  -16.1803  -39.1832 N.am      6 UNK        -0.5000 
     45 C          -0.8393  -15.9514  -40.1417 C.2       5 UNK         0.5000 
     46 O          -1.2814  -16.8247  -40.8880 O.2       5 UNK        -0.5000 
     47 CA         -1.3051  -14.4950  -40.3212 C.3       5 UNK         0.1400 
     48 CB         -2.4680  -14.1811  -39.3681 C.3       5 UNK        -0.1800 
     49 N          -0.2417  -13.5030  -40.1338 N.am      5 UNK        -0.5000 
     50 C           0.8640  -13.4170  -40.8844 C.2       4 UNK         0.5000 
     51 O           1.1622  -14.2257  -41.7659 O.2       4 UNK        -0.5000 
     52 CA          1.8142  -12.2533  -40.5817 C.3       4 UNK         0.1400 
     53 CB          2.9772  -12.7304  -39.6977 C.3       4 UNK        -0.1800 
     54 N           2.3469  -11.7510  -41.8451 N.am      4 UNK        -0.5000 
     55 C           2.2054  -10.5023  -42.3061 C.2       3 UNK         0.5000 
     56 O           1.6633   -9.5966  -41.6708 O.2       3 UNK        -0.5000 
     57 CA          2.7649  -10.1998  -43.7121 C.3       3 UNK         0.1400 
     58 CB          4.1151   -9.4737  -43.6044 C.3       3 UNK        -0.1800 
     59 N           2.9347  -11.3873  -44.5549 N.am      3 UNK        -0.5000 
     60 C           1.9321  -12.0747  -45.1159 C.2       2 UNK         0.5000 
     61 O           0.7401  -11.7811  -44.9872 O.2       2 UNK        -0.5000 
     62 CA          2.3352  -13.3018  -45.9487 C.3       2 UNK         0.1400 
     63 CB          3.0247  -14.3619  -45.0700 C.3       2 UNK        -0.1800 
     64 N           1.1375  -13.8441  -46.5857 N.am      2 UNK        -0.5000 
     65 C           1.1119  -14.6768  -47.6329 C.2       1 UNK         0.5000 
     66 O           2.1243  -15.1790  -48.1201 O.2       1 UNK        -0.5000 
     67 C           1.3960  -21.4386  -47.5049 C.2       11 UNK         0.5000 
     68 O           1.6179  -22.2249  -48.4263 O.2       11 UNK        -0.5000 
     69 N           0.1688  -21.0160  -47.1648 N.am      12 UNK        -0.5000 
     70 CA         -1.0899  -21.3190  -47.8521 C.3       12 UNK         0.1400 
     71 CB         -2.1686  -20.3419  -47.3531 C.3       12 UNK        -0.1800 
     72 C          -1.5516  -22.7890  -47.7347 C.2       12 UNK         0.5000 
     73 O          -2.6910  -23.0482  -47.3388 O.2       12 UNK        -0.5000 
     74 N          -0.6802  -23.7268  -48.1212 N.am      13 UNK        -0.5000 
     75 CA         -0.9157  -25.1689  -48.1745 C.3       13 UNK         0.1400 
     76 CB          0.3331  -25.8541  -48.7477 C.3       13 UNK        -0.1800 
     77 C          -2.1596  -25.5313  -49.0066 C.2       13 UNK         0.5000 
     78 O          -2.3601  -24.9653  -50.0851 O.2       13 UNK        -0.5000 
     79 N          -2.9802  -26.4445  -48.4679 N.am      14 UNK        -0.5000 
     80 CA         -4.2657  -26.8978  -49.0135 C.3       14 UNK         0.1400 
     81 CB         -4.0426  -27.7526  -50.2788 C.3       14 UNK        -0.1800 
     82 C          -5.2653  -25.7408  -49.2361 C.2       14 UNK         0.5000 
     83 O          -5.9670  -25.7225  -50.2472 O.2       14 UNK        -0.5000 
     84 N          -5.2797  -24.7773  -48.3009 N.am      15 UNK        -0.5000 
     85 CA         -6.0522  -23.5293  -48.3315 C.3       15 UNK         0.1400 
     86 CB         -7.5649  -23.8141  -48.2170 C.3       15 UNK        -0.1800 
     87 C          -5.6912  -22.6660  -49.5571 C.2       15 UNK         0.5000 
     88 O          -6.5689  -22.2878  -50.3333 O.2       15 UNK        -0.5000 
     89 N          -4.3850  -22.4184  -49.7254 N.am      16 UNK        -0.5000 
     90 CA         -3.7547  -21.7168  -50.8507 C.3       16 UNK         0.1400 
     91 CB         -4.1464  -20.2237  -50.8593 C.3       16 UNK        -0.1800 
     92 C          -4.0222  -22.4102  -52.2037 C.2       16 UNK         0.5000 
     93 O          -4.3362  -21.7396  -53.1909 O.2       16 UNK        -0.5000 
     94 N          -3.9034  -23.7457  -52.2083 N.am      17 UNK        -0.5000 
     95 CA         -4.2267  -24.6625  -53.3059 C.3       17 UNK         0.1400 
     96 CB         -3.2350  -24.4873  -54.4741 C.3       17 UNK        -0.1800 
     97 C          -5.7037  -24.5537  -53.7411 C.2       17 UNK         0.5000 
     98 O          -5.9892  -24.3626  -54.9226 O.2       17 UNK        -0.5000 
     99 N          -6.6123  -24.6600  -52.7615 N.am      18 UNK        -0.5000 
    100 CA        -8.0679  -24.5284  -52.8769 C.3       18 UNK         0.1400 
    101 CB        -8.6613  -25.6957  -53.6931 C.3       18 UNK        -0.1800 
    102 C         -8.4947  -23.1388  -53.3946 C.2       18 UNK         0.5000 
    103 O         -9.2790  -23.0372  -54.3402 O.2       18 UNK        -0.5000 
    104 N         -7.9526  -22.0940  -52.7525 N.am      19 UNK        -0.5000 
    105 CA        -8.1729  -20.6675  -53.0089 C.3       19 UNK         0.1400 
    106 CB        -9.6287  -20.2730  -52.6838 C.3       19 UNK        -0.1800 
    107 C         -7.7217  -20.2046  -54.4112 C.2       19 UNK         0.5000 
    108 O         -8.2736  -19.2424  -54.9480 O.2       19 UNK        -0.5000 
    109 N         -6.7079  -20.8764  -54.9715 N.am      20 UNK        -0.5000 
    110 CA        -6.1157  -20.5664  -56.2747 C.3       20 UNK         0.1400 
    111 CB        -5.7272  -21.8822  -56.9668 C.3       20 UNK        -0.1800 
    112 C         -4.8925  -19.6367  -56.1599 C.2       20 UNK         0.5000 
    113 O         -4.2306  -19.3940  -57.1701 O.2       20 UNK        -0.5000 
    114 N         -4.5762  -19.1755  -54.9391 N.am      21 UNK        -0.5000 
    115 CA        -3.4001  -18.3766  -54.5727 C.3       21 UNK         0.1400 
    116 CB        -3.4809  -16.9631  -55.1854 C.3       21 UNK        -0.1800 
    117 C         -2.0842  -19.1118  -54.9036 C.2       21 UNK         0.5000 
    118 O         -1.1489  -18.5120  -55.4352 O.2       21 UNK        -0.5000 
    119 N         -2.0677  -20.4186  -54.6079 N.am      22 UNK        -0.5000 
    120 CA        -1.0140  -21.3865  -54.9563 C.3       22 UNK         0.1400 
    121 C         -0.9999  -21.8333  -56.4510 C.2       22 UNK         0.5000 
    122 N         -1.9056  -21.3713  -57.3059 N.am      22 UNK        -0.7600 
    123 O         -0.1660  -22.6447  -56.8426 O.2       22 UNK        -0.5000 
    124 C124        0.3995  -20.9821  -54.4335 C.3       23 UNK        -0.0398 
    125 S125        1.1736  -22.2684  -53.3953 S.3       23 UNK        -0.2404 
    126 C126        0.4333  -21.9295  -51.7643 C.3       23 UNK        -0.0205 
    127 H127        0.4174  -12.1153  -48.8710 H         1 UNK         0.0600 
    128 H128       -0.9266  -11.1314  -49.4346 H         1 UNK         0.0600 
    129 H129       -0.6313  -12.6976  -50.1783 H         1 UNK         0.0600 
    130 H130       -1.9787  -14.4840  -47.1747 H         1 UNK         0.3000 
    131 H131       -0.1031  -14.8078  -49.3498 H         1 UNK         0.0600 
    132 H132        0.1969  -17.1389  -48.1783 H         1 UNK         0.0800 
    133 H133       -1.0548  -16.6366  -47.1094 H         1 UNK         0.0800 
    134 H134       -1.7173  -17.3678  -51.6663 H         1 UNK         0.0800 
    135 H135       -0.5514  -16.1984  -51.1283 H         1 UNK         0.0800 
    136 H136       -1.2290  -19.7685  -51.6237 H         1 UNK         0.1150 
    137 H137        2.7905  -20.9888  -50.7745 H         1 UNK         0.1150 
    138 H138        1.5792  -16.9456  -50.0505 H         1 UNK         0.1150 
    139 H139        4.4175  -18.5986  -50.6128 H         1 UNK         0.0800 
    140 H140        3.7268  -17.5820  -49.3717 H         1 UNK         0.0800 
    141 H141        2.2822  -18.8847  -47.4377 H         1 UNK         0.0800 
    142 H142        3.6192  -19.0358  -46.3364 H         1 UNK         0.0800 
    143 H143        3.3857  -21.6465  -46.7810 H         1 UNK         0.0600 
    144 H144        2.1332  -20.0370  -44.7686 H         1 UNK         0.3000 
    145 H145        1.3931  -22.8671  -42.6634 H         1 UNK         0.0600 
    146 H146        2.7423  -21.5182  -41.0971 H         1 UNK         0.0600 
    147 H147        3.7884  -22.2748  -42.2877 H         1 UNK         0.0600 
    148 H148        3.3994  -20.5656  -42.4264 H         1 UNK         0.0600 
    149 H149        0.9596  -20.0734  -42.2966 H         1 UNK         0.3000 
    150 H150       -2.3150  -19.9612  -43.7444 H         1 UNK         0.0600 
    151 H151       -2.6291  -20.8972  -41.4397 H         1 UNK         0.0600 
    152 H152       -2.8819  -19.1584  -41.4736 H         1 UNK         0.0600 
    153 H153       -1.3799  -19.8171  -40.8284 H         1 UNK         0.0600 
    154 H154       -0.8571  -17.9600  -42.3899 H         1 UNK         0.3000 
    155 H155        0.9263  -16.6620  -45.2382 H         1 UNK         0.0600 
    156 H156       -1.3388  -15.6364  -45.0447 H         1 UNK         0.0600 
    157 H157       -0.1556  -14.6649  -44.1834 H         1 UNK         0.0600 
    158 H158       -1.2528  -15.7135  -43.2977 H         1 UNK         0.0600 
    159 H159        1.1615  -15.9677  -42.5211 H         1 UNK         0.3000 
    160 H160        3.8024  -18.1917  -41.6092 H         1 UNK         0.0600 
    161 H161        3.7025  -15.1647  -42.0948 H         1 UNK         0.0600 
    162 H162        4.8674  -16.2726  -42.8060 H         1 UNK         0.0600 
    163 H163        4.8545  -16.0152  -41.0679 H         1 UNK         0.0600 
    164 H164        2.3476  -16.1015  -40.2597 H         1 UNK         0.3000 
    165 H165       -0.1339  -18.2156  -38.7984 H         1 UNK         0.0600 
    166 H166        0.8171  -17.1699  -36.7644 H         1 UNK         0.0600 
    167 H167        1.9146  -18.3968  -37.3765 H         1 UNK         0.0600 
    168 H168        2.2685  -16.6944  -37.6463 H         1 UNK         0.0600 
    169 H169        0.3787  -15.4053  -38.6159 H         1 UNK         0.3000 
    170 H170       -1.6718  -14.3921  -41.3441 H         1 UNK         0.0600 
    171 H171       -3.2840  -14.8930  -39.5001 H         1 UNK         0.0600 
    172 H172       -2.1576  -14.2274  -38.3235 H         1 UNK         0.0600 
    173 H173       -2.8739  -13.1867  -39.5547 H         1 UNK         0.0600 
    174 H174       -0.4015  -12.8080  -39.4187 H         1 UNK         0.3000 
    175 H175        1.2623  -11.4747  -40.0512 H         1 UNK         0.0600 
    176 H176        3.5551  -13.5205  -40.1785 H         1 UNK         0.0600 
    177 H177        3.6589  -11.9101  -39.4722 H         1 UNK         0.0600 
    178 H178        2.6127  -13.1206  -38.7466 H         1 UNK         0.0600 
    179 H179        2.7330  -12.4523  -42.4606 H         1 UNK         0.3000 
    180 H180        2.0579   -9.5292  -44.2055 H         1 UNK         0.0600 
    181 H181        4.8718  -10.0996  -43.1297 H         1 UNK         0.0600 
    182 H182        4.0236   -8.5629  -43.0109 H         1 UNK         0.0600 
    183 H183        4.4866   -9.1824  -44.5870 H         1 UNK         0.0600 
    184 H184        3.8853  -11.6906  -44.7111 H         1 UNK         0.3000 
    185 H185        3.0230  -12.9720  -46.7301 H         1 UNK         0.0600 
    186 H186        4.0167  -14.0314  -44.7615 H         1 UNK         0.0600 
    187 H187        2.4516  -14.5449  -44.1641 H         1 UNK         0.0600 
    188 H188        3.1520  -15.3117  -45.5890 H         1 UNK         0.0600 
    189 H189        0.2766  -13.4241  -46.2545 H         1 UNK         0.3000 
    190 H190        0.0863  -20.3628  -46.3895 H         1 UNK         0.3000 
    191 H191       -0.9388  -21.1246  -48.9144 H         1 UNK         0.0600 
    192 H192       -1.8731  -19.3087  -47.5264 H         1 UNK         0.0600 
    193 H193       -3.1183  -20.4956  -47.8640 H         1 UNK         0.0600 
    194 H194       -2.3503  -20.4623  -46.2846 H         1 UNK         0.0600 
    195 H195        0.2396  -23.4031  -48.4125 H         1 UNK         0.3000 
    196 H196       -1.0618  -25.5113  -47.1482 H         1 UNK         0.0600 
    197 H197        0.2063  -26.9370  -48.7802 H         1 UNK         0.0600 
    198 H198        1.2122  -25.6472  -48.1367 H         1 UNK         0.0600 
    199 H199        0.5442  -25.5162  -49.7633 H         1 UNK         0.0600 
    200 H200       -2.7286  -26.8434  -47.5739 H         1 UNK         0.3000 
    201 H201       -4.7157  -27.5418  -48.2567 H         1 UNK         0.0600 
    202 H202       -3.3731  -28.5881  -50.0747 H         1 UNK         0.0600 
    203 H203       -3.6093  -27.1701  -51.0915 H         1 UNK         0.0600 
    204 H204       -4.9817  -28.1730  -50.6407 H         1 UNK         0.0600 
    205 H205       -4.6247  -24.8583  -47.5350 H         1 UNK         0.3000 
    206 H206       -5.7553  -22.9563  -47.4517 H         1 UNK         0.0600 
    207 H207       -7.7877  -24.4070  -47.3301 H         1 UNK         0.0600 
    208 H208       -8.1297  -22.8846  -48.1367 H         1 UNK         0.0600 
    209 H209       -7.9474  -24.3522  -49.0847 H         1 UNK         0.0600 
    210 H210       -3.7544  -22.8010  -49.0284 H         1 UNK         0.3000 
    211 H211       -2.6799  -21.7762  -50.6824 H         1 UNK         0.0600 
    212 H212       -5.2077  -20.0824  -51.0639 H         1 UNK         0.0600 
    213 H213       -3.5942  -19.6797  -51.6238 H         1 UNK         0.0600 
    214 H214       -3.9244  -19.7449  -49.9068 H         1 UNK         0.0600 
    215 H215       -3.5764  -24.1925  -51.3549 H         1 UNK         0.3000 
    216 H216       -4.0961  -25.6712  -52.9133 H         1 UNK         0.0600 
    217 H217       -3.4006  -25.2445  -55.2412 H         1 UNK         0.0600 
    218 H218       -2.2044  -24.5901  -54.1347 H         1 UNK         0.0600 
    219 H219       -3.3393  -23.5141  -54.9529 H         1 UNK         0.0600 
    220 H220       -6.2788  -24.8614  -51.8200 H         1 UNK         0.3000 
    221 H221       -8.4586  -24.6081  -51.8613 H         1 UNK         0.0600 
    222 H222       -8.3447  -25.6663  -54.7361 H         1 UNK         0.0600 
    223 H223       -8.3609  -26.6579  -53.2782 H         1 UNK         0.0600 
    224 H224       -9.7513  -25.6637  -53.6820 H         1 UNK         0.0600 
    225 H225       -7.3399  -22.2883  -51.9607 H         1 UNK         0.3000 
    226 H226       -7.5291  -20.1408  -52.3032 H         1 UNK         0.0600 
    227 H227       -9.9098  -20.5975  -51.6818 H         1 UNK         0.0600 
    228 H228       -9.7597  -19.1909  -52.7203 H         1 UNK         0.0600 
    229 H229      -10.3346  -20.7114  -53.3897 H         1 UNK         0.0600 
    230 H230       -6.2801  -21.6350  -54.4540 H         1 UNK         0.3000 
    231 H231       -6.8503  -20.0612  -56.9049 H         1 UNK         0.0600 
    232 H232       -4.9249  -22.3925  -56.4333 H         1 UNK         0.0600 
    233 H233       -5.3811  -21.7053  -57.9857 H         1 UNK         0.0600 
    234 H234       -6.5768  -22.5627  -57.0276 H         1 UNK         0.0600 
    235 H235       -5.1483  -19.4962  -54.1709 H         1 UNK         0.3000 
    236 H236       -3.4250  -18.2624  -53.4890 H         1 UNK         0.0600 
    237 H237       -4.4196  -16.4743  -54.9248 H         1 UNK         0.0600 
    238 H238       -2.6728  -16.3314  -54.8148 H         1 UNK         0.0600 
    239 H239       -3.4050  -16.9853  -56.2728 H         1 UNK         0.0600 
    240 H240       -2.9086  -20.8235  -54.2065 H         1 UNK         0.3000 
    241 H241       -1.3220  -22.2843  -54.4221 H         1 UNK         0.0600 
    242 H242       -1.8769  -21.6874  -58.2621 H         1 UNK         0.3800 
    243 H243       -2.5886  -20.6750  -57.0357 H         1 UNK         0.3800 
    244 H244        1.0810  -20.7631  -55.2574 H         1 UNK         0.0800 
    245 H245        0.3684  -20.0535  -53.8672 H         1 UNK         0.0800 
    246 H246       -0.6432  -22.0871  -51.8275 H         1 UNK         0.0800 
    247 H247        0.8059  -22.6630  -51.0479 H         1 UNK         0.0800 
@<TRIPOS>BOND
     1    1    2 1    
     2    1  127 1    
     3    1  128 1    
     4    1  129 1    
     5    2    3 2    
     6    2    4 am   BACKBONE|DICT|INTERRES
     7    4    5 1    
     8    4  130 1    
     9    5    6 1    
    10    5   65 1    
    11    5  131 1    
    12    6    7 1    
    13    6  132 1    
    14    6  133 1    
    15    7    8 1    
    16    8    9 1    
    17    8  134 1    
    18    8  135 1    
    19    9   10 ar   
    20    9   14 ar   
    21   10   11 ar   
    22   10  136 1    
    23   11   12 ar   
    24   11  126 1    
    25   12   13 ar   
    26   12  137 1    
    27   13   14 ar   
    28   13   15 1    
    29   14  138 1    
    30   15   16 1    
    31   15  139 1    
    32   15  140 1    
    33   16   17 1    
    34   17   18 1    
    35   17  141 1    
    36   17  142 1    
    37   18   19 1    
    38   18   67 1    
    39   18  143 1    
    40   19   20 am   BACKBONE|DICT|INTERRES
    41   19  144 1    
    42   20   21 2    
    43   20   22 1    
    44   22   23 1    
    45   22   24 1    
    46   22  145 1    
    47   23  146 1    
    48   23  147 1    
    49   23  148 1    
    50   24   25 am   BACKBONE|DICT|INTERRES
    51   24  149 1    
    52   25   26 2    
    53   25   27 1    
    54   27   28 1    
    55   27   29 1    
    56   27  150 1    
    57   28  151 1    
    58   28  152 1    
    59   28  153 1    
    60   29   30 am   BACKBONE|DICT|INTERRES
    61   29  154 1    
    62   30   31 2    
    63   30   32 1    
    64   32   33 1    
    65   32   34 1    
    66   32  155 1    
    67   33  156 1    
    68   33  157 1    
    69   33  158 1    
    70   34   35 am   BACKBONE|DICT|INTERRES
    71   34  159 1    
    72   35   36 2    
    73   35   37 1    
    74   37   38 1    
    75   37   39 1    
    76   37  160 1    
    77   38  161 1    
    78   38  162 1    
    79   38  163 1    
    80   39   40 am   BACKBONE|DICT|INTERRES
    81   39  164 1    
    82   40   41 2    
    83   40   42 1    
    84   42   43 1    
    85   42   44 1    
    86   42  165 1    
    87   43  166 1    
    88   43  167 1    
    89   43  168 1    
    90   44   45 am   BACKBONE|DICT|INTERRES
    91   44  169 1    
    92   45   46 2    
    93   45   47 1    
    94   47   48 1    
    95   47   49 1    
    96   47  170 1    
    97   48  171 1    
    98   48  172 1    
    99   48  173 1    
   100   49   50 am   BACKBONE|DICT|INTERRES
   101   49  174 1    
   102   50   51 2    
   103   50   52 1    
   104   52   53 1    
   105   52   54 1    
   106   52  175 1    
   107   53  176 1    
   108   53  177 1    
   109   53  178 1    
   110   54   55 am   BACKBONE|DICT|INTERRES
   111   54  179 1    
   112   55   56 2    
   113   55   57 1    
   114   57   58 1    
   115   57   59 1    
   116   57  180 1    
   117   58  181 1    
   118   58  182 1    
   119   58  183 1    
   120   59   60 am   BACKBONE|DICT|INTERRES
   121   59  184 1    
   122   60   61 2    
   123   60   62 1    
   124   62   63 1    
   125   62   64 1    
   126   62  185 1    
   127   63  186 1    
   128   63  187 1    
   129   63  188 1    
   130   64   65 am   BACKBONE|DICT|INTERRES
   131   64  189 1    
   132   65   66 2    
   133   67   68 2    
   134   67   69 am   BACKBONE|DICT|INTERRES
   135   69   70 1    
   136   69  190 1    
   137   70   71 1    
   138   70   72 1    
   139   70  191 1    
   140   71  192 1    
   141   71  193 1    
   142   71  194 1    
   143   72   73 2    
   144   72   74 am   BACKBONE|DICT|INTERRES
   145   74   75 1    
   146   74  195 1    
   147   75   76 1    
   148   75   77 1    
   149   75  196 1    
   150   76  197 1    
   151   76  198 1    
   152   76  199 1    
   153   77   78 2    
   154   77   79 am   BACKBONE|DICT|INTERRES
   155   79   80 1    
   156   79  200 1    
   157   80   81 1    
   158   80   82 1    
   159   80  201 1    
   160   81  202 1    
   161   81  203 1    
   162   81  204 1    
   163   82   83 2    
   164   82   84 am   BACKBONE|DICT|INTERRES
   165   84   85 1    
   166   84  205 1    
   167   85   86 1    
   168   85   87 1    
   169   85  206 1    
   170   86  207 1    
   171   86  208 1    
   172   86  209 1    
   173   87   88 2    
   174   87   89 am   BACKBONE|DICT|INTERRES
   175   89   90 1    
   176   89  210 1    
   177   90   91 1    
   178   90   92 1    
   179   90  211 1    
   180   91  212 1    
   181   91  213 1    
   182   91  214 1    
   183   92   93 2    
   184   92   94 am   BACKBONE|DICT|INTERRES
   185   94   95 1    
   186   94  215 1    
   187   95   96 1    
   188   95   97 1    
   189   95  216 1    
   190   96  217 1    
   191   96  218 1    
   192   96  219 1    
   193   97   98 2    
   194   97   99 am   BACKBONE|DICT|INTERRES
   195   99  100 1    
   196   99  220 1    
   197  100  101 1    
   198  100  102 1    
   199  100  221 1    
   200  101  222 1    
   201  101  223 1    
   202  101  224 1    
   203  102  103 2    
   204  102  104 am   BACKBONE|DICT|INTERRES
   205  104  105 1    
   206  104  225 1    
   207  105  106 1    
   208  105  107 1    
   209  105  226 1    
   210  106  227 1    
   211  106  228 1    
   212  106  229 1    
   213  107  108 2    
   214  107  109 am   BACKBONE|DICT|INTERRES
   215  109  110 1    
   216  109  230 1    
   217  110  111 1    
   218  110  112 1    
   219  110  231 1    
   220  111  232 1    
   221  111  233 1    
   222  111  234 1    
   223  112  113 2    
   224  112  114 am   BACKBONE|DICT|INTERRES
   225  114  115 1    
   226  114  235 1    
   227  115  116 1    
   228  115  117 1    
   229  115  236 1    
   230  116  237 1    
   231  116  238 1    
   232  116  239 1    
   233  117  118 2    
   234  117  119 am   BACKBONE|DICT|INTERRES
   235  119  120 1    
   236  119  240 1    
   237  120  121 1    
   238  120  124 1    
   239  120  241 1    
   240  121  122 am   BACKBONE|DICT|INTERRES
   241  121  123 2    
   242  122  242 1    
   243  122  243 1    
   244  124  125 1    
   245  124  244 1    
   246  124  245 1    
   247  125  126 1    
   248  126  246 1    
   249  126  247 1    
@<TRIPOS>SUBSTRUCTURE
     1 UNK         1 GROUP             0       ****    0 ROOT    
