@<TRIPOS>MOLECULE
3R540
247   249    1
SMALL
USER_CHARGES


@<TRIPOS>ATOM
      1 CA          3.0697  -15.8740  -48.3790 C.3       0 UNK        -0.1800 
      2 C           1.8385  -15.2521  -47.7374 C.2       0 UNK         0.5000 
      3 O           1.8118  -15.0550  -46.5260 O.2       0 UNK        -0.5000 
      4 N           0.8248  -14.9187  -48.5453 N.am      1 UNK        -0.5000 
      5 CA         -0.4812  -14.3888  -48.1190 C.3       1 UNK         0.1400 
      6 C6         -1.4808  -14.3026  -49.3019 C.3       23 UNK        -0.0398 
      7 S7         -1.7553  -15.9144  -50.1137 S.3       23 UNK        -0.2404 
      8 C8         -0.5525  -15.8276  -51.4812 C.3       23 UNK        -0.0205 
      9 C9          0.0190  -17.2010  -51.7908 C.ar      23 UNK        -0.0193 
     10 C10        -0.2304  -17.8096  -53.0218 C.ar      23 UNK        -0.1150 
     11 C11         0.2612  -19.0905  -53.2995 C.ar      23 UNK        -0.0193 
     12 C12         1.0253  -19.7454  -52.3272 C.ar      23 UNK        -0.1150 
     13 C13         1.2750  -19.1567  -51.0836 C.ar      23 UNK        -0.0193 
     14 C14         0.7839  -17.8725  -50.8341 C.ar      23 UNK        -0.1150 
     15 C15         2.0684  -19.9294  -50.0293 C.3       23 UNK        -0.0205 
     16 S16         1.5220  -19.6581  -48.3042 S.3       23 UNK        -0.2404 
     17 C17        -0.1597  -20.3714  -48.3100 C.3       23 UNK        -0.0398 
     18 CA         -0.2334  -21.7583  -47.6225 C.3       11 UNK         0.1400 
     19 N           0.2296  -21.7128  -46.2315 N.am      11 UNK        -0.5000 
     20 C           0.4531  -22.7869  -45.4610 C.2       10 UNK         0.5000 
     21 O           0.3265  -23.9467  -45.8516 O.2       10 UNK        -0.5000 
     22 CA          0.8281  -22.5217  -43.9902 C.3       10 UNK         0.1400 
     23 CB          2.3435  -22.3224  -43.8465 C.3       10 UNK        -0.1800 
     24 N           0.1284  -21.3695  -43.4185 N.am      10 UNK        -0.5000 
     25 C          -1.2037  -21.2638  -43.3061 C.2       9 UNK         0.5000 
     26 O          -1.9839  -22.1542  -43.6372 O.2       9 UNK        -0.5000 
     27 CA         -1.7747  -19.9369  -42.7751 C.3       9 UNK         0.1400 
     28 CB         -2.1374  -20.0632  -41.2899 C.3       9 UNK        -0.1800 
     29 N          -0.8767  -18.7973  -42.9651 N.am      9 UNK        -0.5000 
     30 C          -0.5441  -18.2773  -44.1553 C.2       8 UNK         0.5000 
     31 O          -0.9480  -18.7214  -45.2309 O.2       8 UNK        -0.5000 
     32 CA          0.4164  -17.0757  -44.1310 C.3       8 UNK         0.1400 
     33 CB         -0.3769  -15.7625  -44.0711 C.3       8 UNK        -0.1800 
     34 N           1.3583  -17.1334  -43.0084 N.am      8 UNK        -0.5000 
     35 C           2.3892  -17.9886  -42.9503 C.2       7 UNK         0.5000 
     36 O           2.6644  -18.7863  -43.8463 O.2       7 UNK        -0.5000 
     37 CA          3.2227  -17.9894  -41.6568 C.3       7 UNK         0.1400 
     38 CB          4.0750  -16.7162  -41.5359 C.3       7 UNK        -0.1800 
     39 N           2.3978  -18.1485  -40.4589 N.am      7 UNK        -0.5000 
     40 C           1.6941  -19.2442  -40.1430 C.2       6 UNK         0.5000 
     41 O           1.6599  -20.2546  -40.8445 O.2       6 UNK        -0.5000 
     42 CA          0.8501  -19.2011  -38.8522 C.3       6 UNK         0.1400 
     43 CB          1.7020  -19.5064  -37.6045 C.3       6 UNK        -0.1800 
     44 N           0.0665  -17.9643  -38.7149 N.am      6 UNK        -0.5000 
     45 C           0.5110  -16.7289  -38.4524 C.2       5 UNK         0.5000 
     46 O           1.6782  -16.4648  -38.1526 O.2       5 UNK        -0.5000 
     47 CA         -0.5221  -15.5932  -38.5974 C.3       5 UNK         0.1400 
     48 CB         -1.2433  -15.3477  -37.2637 C.3       5 UNK        -0.1800 
     49 N           0.0893  -14.3396  -39.0462 N.am      5 UNK        -0.5000 
     50 C           0.8133  -14.1866  -40.1640 C.2       4 UNK         0.5000 
     51 O           0.9570  -15.0755  -41.0101 O.2       4 UNK        -0.5000 
     52 CA          1.5180  -12.8215  -40.3213 C.3       4 UNK         0.1400 
     53 CB          2.5065  -12.5765  -39.1669 C.3       4 UNK        -0.1800 
     54 N           2.2589  -12.7096  -41.5767 N.am      4 UNK        -0.5000 
     55 C           1.7119  -12.5713  -42.7891 C.2       3 UNK         0.5000 
     56 O           0.5000  -12.4413  -42.9817 O.2       3 UNK        -0.5000 
     57 CA          2.7096  -12.5889  -43.9661 C.3       3 UNK         0.1400 
     58 CB          3.4498  -13.9363  -44.0461 C.3       3 UNK        -0.1800 
     59 N           2.0706  -12.3172  -45.2548 N.am      3 UNK        -0.5000 
     60 C           1.6601  -11.1047  -45.6566 C.2       2 UNK         0.5000 
     61 O           1.8152  -10.0833  -44.9842 O.2       2 UNK        -0.5000 
     62 CA          0.9964  -10.9835  -47.0451 C.3       2 UNK         0.1400 
     63 CB          1.8970  -10.1885  -48.0050 C.3       2 UNK        -0.1800 
     64 N           0.6914  -12.2731  -47.6638 N.am      2 UNK        -0.5000 
     65 C          -0.3881  -13.0221  -47.4015 C.2       1 UNK         0.5000 
     66 O          -1.2858  -12.6786  -46.6322 O.2       1 UNK        -0.5000 
     67 C          -1.6628  -22.3347  -47.7048 C.2       11 UNK         0.5000 
     68 O          -1.9355  -23.2029  -48.5356 O.2       11 UNK        -0.5000 
     69 N          -2.5437  -21.8661  -46.8084 N.am      12 UNK        -0.5000 
     70 CA         -3.9272  -22.3256  -46.6895 C.3       12 UNK         0.1400 
     71 CB         -4.7079  -21.3793  -45.7654 C.3       12 UNK        -0.1800 
     72 C          -4.0232  -23.7832  -46.2041 C.2       12 UNK         0.5000 
     73 O          -4.8128  -24.5500  -46.7539 O.2       12 UNK        -0.5000 
     74 N          -3.1876  -24.1537  -45.2234 N.am      13 UNK        -0.5000 
     75 CA         -3.0667  -25.5114  -44.6854 C.3       13 UNK         0.1400 
     76 CB         -2.1508  -25.4923  -43.4527 C.3       13 UNK        -0.1800 
     77 C          -2.5576  -26.5289  -45.7240 C.2       13 UNK         0.5000 
     78 O          -3.0212  -27.6695  -45.7355 O.2       13 UNK        -0.5000 
     79 N          -1.6462  -26.0874  -46.6017 N.am      14 UNK        -0.5000 
     80 CA         -1.1529  -26.8478  -47.7520 C.3       14 UNK         0.1400 
     81 CB          0.1613  -26.2139  -48.2366 C.3       14 UNK        -0.1800 
     82 C          -2.1650  -26.9313  -48.9144 C.2       14 UNK         0.5000 
     83 O          -1.9407  -27.7085  -49.8432 O.2       14 UNK        -0.5000 
     84 N          -3.2372  -26.1249  -48.8556 N.am      15 UNK        -0.5000 
     85 CA         -4.2712  -25.9288  -49.8768 C.3       15 UNK         0.1400 
     86 CB         -5.1082  -27.2100  -50.0713 C.3       15 UNK        -0.1800 
     87 C          -3.6975  -25.3666  -51.1942 C.2       15 UNK         0.5000 
     88 O          -4.1540  -25.7322  -52.2787 O.2       15 UNK        -0.5000 
     89 N          -2.6988  -24.4865  -51.0694 N.am      16 UNK        -0.5000 
     90 CA         -1.9794  -23.8626  -52.1681 C.3       16 UNK         0.1400 
     91 CB         -0.6933  -24.6563  -52.4599 C.3       16 UNK        -0.1800 
     92 C          -1.7117  -22.4118  -51.7626 C.2       16 UNK         0.5000 
     93 O          -0.6374  -22.1059  -51.2494 O.2       16 UNK        -0.5000 
     94 N          -2.7324  -21.5708  -51.9439 N.am      17 UNK        -0.5000 
     95 CA         -2.7627  -20.1553  -51.5883 C.3       17 UNK         0.1400 
     96 CB         -3.5339  -19.9920  -50.2651 C.3       17 UNK        -0.1800 
     97 C          -3.4225  -19.3622  -52.7297 C.2       17 UNK         0.5000 
     98 O          -3.6970  -19.9243  -53.7970 O.2       17 UNK        -0.5000 
     99 N          -3.6854  -18.0716  -52.4864 N.am      18 UNK        -0.5000 
    100 CA        -4.4776  -17.2006  -53.3564 C.3       18 UNK         0.1400 
    101 CB        -4.5409  -15.7938  -52.7445 C.3       18 UNK        -0.1800 
    102 C         -5.8935  -17.7665  -53.5761 C.2       18 UNK         0.5000 
    103 O         -6.5420  -18.1719  -52.6093 O.2       18 UNK        -0.5000 
    104 N         -6.3109  -17.8396  -54.8449 N.am      19 UNK        -0.5000 
    105 CA        -7.5377  -18.4402  -55.3854 C.3       19 UNK         0.1400 
    106 CB        -8.8042  -17.8156  -54.7691 C.3       19 UNK        -0.1800 
    107 C         -7.5767  -19.9814  -55.3148 C.2       19 UNK         0.5000 
    108 O         -8.1409  -20.6045  -56.2148 O.2       19 UNK        -0.5000 
    109 N         -6.9720  -20.5749  -54.2771 N.am      20 UNK        -0.5000 
    110 CA        -6.8501  -22.0207  -54.0845 C.3       20 UNK         0.1400 
    111 CB        -6.3948  -22.3054  -52.6446 C.3       20 UNK        -0.1800 
    112 C         -5.9043  -22.6858  -55.1031 C.2       20 UNK         0.5000 
    113 O         -6.1794  -23.8044  -55.5386 O.2       20 UNK        -0.5000 
    114 N         -4.8269  -21.9838  -55.4763 N.am      21 UNK        -0.5000 
    115 CA        -3.8687  -22.4117  -56.4953 C.3       21 UNK         0.1400 
    116 CB        -2.7098  -23.1847  -55.8450 C.3       21 UNK        -0.1800 
    117 C         -3.3443  -21.2214  -57.3095 C.2       21 UNK         0.5000 
    118 O         -3.2587  -21.3202  -58.5342 O.2       21 UNK        -0.5000 
    119 N         -3.0037  -20.1220  -56.6269 N.am      22 UNK        -0.5000 
    120 CA        -2.5174  -18.8835  -57.2475 C.3       22 UNK         0.1400 
    121 C         -3.7144  -18.0216  -57.7255 C.2       22 UNK         0.5000 
    122 N         -3.8902  -17.8445  -59.0269 N.am      22 UNK        -0.7600 
    123 O         -4.4702  -17.4875  -56.9183 O.2       22 UNK        -0.5000 
    124 C124       -1.6105  -18.0923  -56.2736 C.3       23 UNK        -0.0398 
    125 S125        0.0558  -18.8244  -56.1084 S.3       23 UNK        -0.2404 
    126 C126       -0.0872  -19.8275  -54.5924 C.3       23 UNK        -0.0205 
    127 H127        3.9589  -15.3009  -48.1168 H         1 UNK         0.0600 
    128 H128        2.9915  -15.9035  -49.4659 H         1 UNK         0.0600 
    129 H129        3.2017  -16.8942  -48.0187 H         1 UNK         0.0600 
    130 H130        0.9115  -15.0978  -49.5335 H         1 UNK         0.3000 
    131 H131       -0.8849  -15.0948  -47.3901 H         1 UNK         0.0600 
    132 H132       -2.4524  -13.9530  -48.9479 H         1 UNK         0.0800 
    133 H133       -1.1510  -13.5712  -50.0421 H         1 UNK         0.0800 
    134 H134       -1.0446  -15.4006  -52.3561 H         1 UNK         0.0800 
    135 H135        0.2704  -15.1553  -51.2406 H         1 UNK         0.0800 
    136 H136       -0.8262  -17.2817  -53.7475 H         1 UNK         0.1150 
    137 H137        1.3916  -20.7438  -52.5211 H         1 UNK         0.1150 
    138 H138        0.9666  -17.4056  -49.8784 H         1 UNK         0.1150 
    139 H139        2.0226  -21.0003  -50.2351 H         1 UNK         0.0800 
    140 H140        3.1171  -19.6420  -50.1105 H         1 UNK         0.0800 
    141 H141       -0.5167  -20.4309  -49.3372 H         1 UNK         0.0800 
    142 H142       -0.8199  -19.6605  -47.8104 H         1 UNK         0.0800 
    143 H143        0.4214  -22.4397  -48.1701 H         1 UNK         0.0600 
    144 H144        0.3427  -20.7924  -45.8288 H         1 UNK         0.3000 
    145 H145        0.5440  -23.4012  -43.4095 H         1 UNK         0.0600 
    146 H146        2.6260  -22.1750  -42.8039 H         1 UNK         0.0600 
    147 H147        2.8876  -23.1942  -44.2120 H         1 UNK         0.0600 
    148 H148        2.6908  -21.4578  -44.4132 H         1 UNK         0.0600 
    149 H149        0.7052  -20.6071  -43.0886 H         1 UNK         0.3000 
    150 H150       -2.6921  -19.7315  -43.3309 H         1 UNK         0.0600 
    151 H151       -2.8974  -20.8316  -41.1418 H         1 UNK         0.0600 
    152 H152       -2.5381  -19.1297  -40.8946 H         1 UNK         0.0600 
    153 H153       -1.2723  -20.3459  -40.6932 H         1 UNK         0.0600 
    154 H154       -0.4803  -18.3791  -42.1377 H         1 UNK         0.3000 
    155 H155        0.9838  -17.0925  -45.0634 H         1 UNK         0.0600 
    156 H156       -0.9207  -15.6590  -43.1315 H         1 UNK         0.0600 
    157 H157        0.2836  -14.9026  -44.1719 H         1 UNK         0.0600 
    158 H158       -1.1026  -15.7045  -44.8830 H         1 UNK         0.0600 
    159 H159        1.2098  -16.4752  -42.2456 H         1 UNK         0.3000 
    160 H160        3.9032  -18.8422  -41.7057 H         1 UNK         0.0600 
    161 H161        4.7415  -16.7704  -40.6750 H         1 UNK         0.0600 
    162 H162        3.4605  -15.8234  -41.4242 H         1 UNK         0.0600 
    163 H163        4.6974  -16.5782  -42.4209 H         1 UNK         0.0600 
    164 H164        2.3497  -17.3595  -39.8224 H         1 UNK         0.3000 
    165 H165        0.1170  -20.0043  -38.9264 H         1 UNK         0.0600 
    166 H166        1.1000  -19.4704  -36.6966 H         1 UNK         0.0600 
    167 H167        2.1328  -20.5062  -37.6696 H         1 UNK         0.0600 
    168 H168        2.5312  -18.8087  -37.4869 H         1 UNK         0.0600 
    169 H169       -0.9139  -18.0656  -38.9373 H         1 UNK         0.3000 
    170 H170       -1.2591  -15.8857  -39.3481 H         1 UNK         0.0600 
    171 H171       -1.7363  -16.2548  -36.9116 H         1 UNK         0.0600 
    172 H172       -0.5493  -15.0285  -36.4849 H         1 UNK         0.0600 
    173 H173       -2.0116  -14.5809  -37.3646 H         1 UNK         0.0600 
    174 H174        0.0423  -13.5701  -38.3952 H         1 UNK         0.3000 
    175 H175        0.7524  -12.0432  -40.3002 H         1 UNK         0.0600 
    176 H176        3.0207  -11.6221  -39.2830 H         1 UNK         0.0600 
    177 H177        3.2630  -13.3609  -39.1143 H         1 UNK         0.0600 
    178 H178        1.9985  -12.5474  -38.2025 H         1 UNK         0.0600 
    179 H179        3.2576  -12.8358  -41.5095 H         1 UNK         0.3000 
    180 H180        3.4509  -11.8076  -43.7858 H         1 UNK         0.0600 
    181 H181        2.7562  -14.7769  -44.0694 H         1 UNK         0.0600 
    182 H182        4.1042  -14.0789  -43.1863 H         1 UNK         0.0600 
    183 H183        4.0758  -13.9946  -44.9367 H         1 UNK         0.0600 
    184 H184        1.8719  -13.1275  -45.8317 H         1 UNK         0.3000 
    185 H185        0.0669  -10.4257  -46.9126 H         1 UNK         0.0600 
    186 H186        2.8493  -10.6929  -48.1734 H         1 UNK         0.0600 
    187 H187        1.4150  -10.0474  -48.9727 H         1 UNK         0.0600 
    188 H188        2.1167   -9.1970  -47.6070 H         1 UNK         0.0600 
    189 H189        1.3827  -12.6430  -48.2997 H         1 UNK         0.3000 
    190 H190       -2.2311  -21.1857  -46.1308 H         1 UNK         0.3000 
    191 H191       -4.3812  -22.2770  -47.6817 H         1 UNK         0.0600 
    192 H192       -4.6859  -20.3558  -46.1400 H         1 UNK         0.0600 
    193 H193       -5.7547  -21.6782  -45.6985 H         1 UNK         0.0600 
    194 H194       -4.3046  -21.3746  -44.7527 H         1 UNK         0.0600 
    195 H195       -2.6139  -23.4391  -44.7800 H         1 UNK         0.3000 
    196 H196       -4.0607  -25.8317  -44.3669 H         1 UNK         0.0600 
    197 H197       -2.0748  -26.4847  -43.0067 H         1 UNK         0.0600 
    198 H198       -2.5345  -24.8190  -42.6859 H         1 UNK         0.0600 
    199 H199       -1.1418  -25.1686  -43.7082 H         1 UNK         0.0600 
    200 H200       -1.2631  -25.1558  -46.4814 H         1 UNK         0.3000 
    201 H201       -0.9406  -27.8689  -47.4288 H         1 UNK         0.0600 
    202 H202        0.9112  -26.2077  -47.4455 H         1 UNK         0.0600 
    203 H203        0.0134  -25.1847  -48.5659 H         1 UNK         0.0600 
    204 H204        0.5808  -26.7695  -49.0762 H         1 UNK         0.0600 
    205 H205       -3.3288  -25.5309  -48.0413 H         1 UNK         0.3000 
    206 H206       -4.9383  -25.1584  -49.4880 H         1 UNK         0.0600 
    207 H207       -5.4984  -27.5725  -49.1202 H         1 UNK         0.0600 
    208 H208       -5.9633  -27.0221  -50.7216 H         1 UNK         0.0600 
    209 H209       -4.5250  -28.0125  -50.5234 H         1 UNK         0.0600 
    210 H210       -2.4123  -24.1871  -50.1391 H         1 UNK         0.3000 
    211 H211       -2.5973  -23.8535  -53.0662 H         1 UNK         0.0600 
    212 H212       -0.0565  -24.7313  -51.5774 H         1 UNK         0.0600 
    213 H213       -0.1119  -24.1791  -53.2496 H         1 UNK         0.0600 
    214 H214       -0.9246  -25.6693  -52.7897 H         1 UNK         0.0600 
    215 H215       -3.5541  -21.9016  -52.4271 H         1 UNK         0.3000 
    216 H216       -1.7491  -19.7770  -51.4572 H         1 UNK         0.0600 
    217 H217       -3.4633  -18.9724  -49.8851 H         1 UNK         0.0600 
    218 H218       -3.1342  -20.6459  -49.4931 H         1 UNK         0.0600 
    219 H219       -4.5918  -20.2306  -50.3832 H         1 UNK         0.0600 
    220 H220       -3.4312  -17.6845  -51.5892 H         1 UNK         0.3000 
    221 H221       -3.9691  -17.1298  -54.3176 H         1 UNK         0.0600 
    222 H222       -4.9901  -15.8068  -51.7506 H         1 UNK         0.0600 
    223 H223       -3.5469  -15.3558  -52.6583 H         1 UNK         0.0600 
    224 H224       -5.1363  -15.1242  -53.3665 H         1 UNK         0.0600 
    225 H225       -5.6511  -17.5516  -55.5679 H         1 UNK         0.3000 
    226 H226       -7.5340  -18.1842  -56.4462 H         1 UNK         0.0600 
    227 H227       -8.7886  -16.7289  -54.8510 H         1 UNK         0.0600 
    228 H228       -9.6982  -18.1678  -55.2850 H         1 UNK         0.0600 
    229 H229       -8.9182  -18.0729  -53.7159 H         1 UNK         0.0600 
    230 H230       -6.5763  -19.9747  -53.5627 H         1 UNK         0.3000 
    231 H231       -7.8391  -22.4640  -54.2189 H         1 UNK         0.0600 
    232 H232       -5.4553  -21.8069  -52.4143 H         1 UNK         0.0600 
    233 H233       -6.2519  -23.3746  -52.4805 H         1 UNK         0.0600 
    234 H234       -7.1373  -21.9623  -51.9241 H         1 UNK         0.0600 
    235 H235       -4.6671  -21.0772  -55.0495 H         1 UNK         0.3000 
    236 H236       -4.3677  -23.0765  -57.2039 H         1 UNK         0.0600 
    237 H237       -2.1956  -22.5814  -55.0963 H         1 UNK         0.0600 
    238 H238       -3.0681  -24.0954  -55.3653 H         1 UNK         0.0600 
    239 H239       -1.9712  -23.4821  -56.5904 H         1 UNK         0.0600 
    240 H240       -3.1381  -20.0927  -55.6218 H         1 UNK         0.3000 
    241 H241       -1.9157  -19.1385  -58.1227 H         1 UNK         0.0600 
    242 H242       -3.2900  -18.2893  -59.7047 H         1 UNK         0.3800 
    243 H243       -4.6590  -17.2752  -59.3447 H         1 UNK         0.3800 
    244 H244       -1.4681  -17.0686  -56.6249 H         1 UNK         0.0800 
    245 H245       -2.0928  -18.0153  -55.3018 H         1 UNK         0.0800 
    246 H246        0.5747  -20.6862  -54.7138 H         1 UNK         0.0800 
    247 H247       -1.0918  -20.2399  -54.5107 H         1 UNK         0.0800 
@<TRIPOS>BOND
     1    1    2 1    
     2    1  127 1    
     3    1  128 1    
     4    1  129 1    
     5    2    3 2    
     6    2    4 am   BACKBONE|DICT|INTERRES
     7    4    5 1    
     8    4  130 1    
     9    5    6 1    
    10    5   65 1    
    11    5  131 1    
    12    6    7 1    
    13    6  132 1    
    14    6  133 1    
    15    7    8 1    
    16    8    9 1    
    17    8  134 1    
    18    8  135 1    
    19    9   10 ar   
    20    9   14 ar   
    21   10   11 ar   
    22   10  136 1    
    23   11   12 ar   
    24   11  126 1    
    25   12   13 ar   
    26   12  137 1    
    27   13   14 ar   
    28   13   15 1    
    29   14  138 1    
    30   15   16 1    
    31   15  139 1    
    32   15  140 1    
    33   16   17 1    
    34   17   18 1    
    35   17  141 1    
    36   17  142 1    
    37   18   19 1    
    38   18   67 1    
    39   18  143 1    
    40   19   20 am   BACKBONE|DICT|INTERRES
    41   19  144 1    
    42   20   21 2    
    43   20   22 1    
    44   22   23 1    
    45   22   24 1    
    46   22  145 1    
    47   23  146 1    
    48   23  147 1    
    49   23  148 1    
    50   24   25 am   BACKBONE|DICT|INTERRES
    51   24  149 1    
    52   25   26 2    
    53   25   27 1    
    54   27   28 1    
    55   27   29 1    
    56   27  150 1    
    57   28  151 1    
    58   28  152 1    
    59   28  153 1    
    60   29   30 am   BACKBONE|DICT|INTERRES
    61   29  154 1    
    62   30   31 2    
    63   30   32 1    
    64   32   33 1    
    65   32   34 1    
    66   32  155 1    
    67   33  156 1    
    68   33  157 1    
    69   33  158 1    
    70   34   35 am   BACKBONE|DICT|INTERRES
    71   34  159 1    
    72   35   36 2    
    73   35   37 1    
    74   37   38 1    
    75   37   39 1    
    76   37  160 1    
    77   38  161 1    
    78   38  162 1    
    79   38  163 1    
    80   39   40 am   BACKBONE|DICT|INTERRES
    81   39  164 1    
    82   40   41 2    
    83   40   42 1    
    84   42   43 1    
    85   42   44 1    
    86   42  165 1    
    87   43  166 1    
    88   43  167 1    
    89   43  168 1    
    90   44   45 am   BACKBONE|DICT|INTERRES
    91   44  169 1    
    92   45   46 2    
    93   45   47 1    
    94   47   48 1    
    95   47   49 1    
    96   47  170 1    
    97   48  171 1    
    98   48  172 1    
    99   48  173 1    
   100   49   50 am   BACKBONE|DICT|INTERRES
   101   49  174 1    
   102   50   51 2    
   103   50   52 1    
   104   52   53 1    
   105   52   54 1    
   106   52  175 1    
   107   53  176 1    
   108   53  177 1    
   109   53  178 1    
   110   54   55 am   BACKBONE|DICT|INTERRES
   111   54  179 1    
   112   55   56 2    
   113   55   57 1    
   114   57   58 1    
   115   57   59 1    
   116   57  180 1    
   117   58  181 1    
   118   58  182 1    
   119   58  183 1    
   120   59   60 am   BACKBONE|DICT|INTERRES
   121   59  184 1    
   122   60   61 2    
   123   60   62 1    
   124   62   63 1    
   125   62   64 1    
   126   62  185 1    
   127   63  186 1    
   128   63  187 1    
   129   63  188 1    
   130   64   65 am   BACKBONE|DICT|INTERRES
   131   64  189 1    
   132   65   66 2    
   133   67   68 2    
   134   67   69 am   BACKBONE|DICT|INTERRES
   135   69   70 1    
   136   69  190 1    
   137   70   71 1    
   138   70   72 1    
   139   70  191 1    
   140   71  192 1    
   141   71  193 1    
   142   71  194 1    
   143   72   73 2    
   144   72   74 am   BACKBONE|DICT|INTERRES
   145   74   75 1    
   146   74  195 1    
   147   75   76 1    
   148   75   77 1    
   149   75  196 1    
   150   76  197 1    
   151   76  198 1    
   152   76  199 1    
   153   77   78 2    
   154   77   79 am   BACKBONE|DICT|INTERRES
   155   79   80 1    
   156   79  200 1    
   157   80   81 1    
   158   80   82 1    
   159   80  201 1    
   160   81  202 1    
   161   81  203 1    
   162   81  204 1    
   163   82   83 2    
   164   82   84 am   BACKBONE|DICT|INTERRES
   165   84   85 1    
   166   84  205 1    
   167   85   86 1    
   168   85   87 1    
   169   85  206 1    
   170   86  207 1    
   171   86  208 1    
   172   86  209 1    
   173   87   88 2    
   174   87   89 am   BACKBONE|DICT|INTERRES
   175   89   90 1    
   176   89  210 1    
   177   90   91 1    
   178   90   92 1    
   179   90  211 1    
   180   91  212 1    
   181   91  213 1    
   182   91  214 1    
   183   92   93 2    
   184   92   94 am   BACKBONE|DICT|INTERRES
   185   94   95 1    
   186   94  215 1    
   187   95   96 1    
   188   95   97 1    
   189   95  216 1    
   190   96  217 1    
   191   96  218 1    
   192   96  219 1    
   193   97   98 2    
   194   97   99 am   BACKBONE|DICT|INTERRES
   195   99  100 1    
   196   99  220 1    
   197  100  101 1    
   198  100  102 1    
   199  100  221 1    
   200  101  222 1    
   201  101  223 1    
   202  101  224 1    
   203  102  103 2    
   204  102  104 am   BACKBONE|DICT|INTERRES
   205  104  105 1    
   206  104  225 1    
   207  105  106 1    
   208  105  107 1    
   209  105  226 1    
   210  106  227 1    
   211  106  228 1    
   212  106  229 1    
   213  107  108 2    
   214  107  109 am   BACKBONE|DICT|INTERRES
   215  109  110 1    
   216  109  230 1    
   217  110  111 1    
   218  110  112 1    
   219  110  231 1    
   220  111  232 1    
   221  111  233 1    
   222  111  234 1    
   223  112  113 2    
   224  112  114 am   BACKBONE|DICT|INTERRES
   225  114  115 1    
   226  114  235 1    
   227  115  116 1    
   228  115  117 1    
   229  115  236 1    
   230  116  237 1    
   231  116  238 1    
   232  116  239 1    
   233  117  118 2    
   234  117  119 am   BACKBONE|DICT|INTERRES
   235  119  120 1    
   236  119  240 1    
   237  120  121 1    
   238  120  124 1    
   239  120  241 1    
   240  121  122 am   BACKBONE|DICT|INTERRES
   241  121  123 2    
   242  122  242 1    
   243  122  243 1    
   244  124  125 1    
   245  124  244 1    
   246  124  245 1    
   247  125  126 1    
   248  126  246 1    
   249  126  247 1    
@<TRIPOS>SUBSTRUCTURE
     1 UNK         1 GROUP             0       ****    0 ROOT    
