@<TRIPOS>MOLECULE
3R540
247   249    1
SMALL
USER_CHARGES


@<TRIPOS>ATOM
      1 CA          5.1214  -12.3163  -49.9609 C.3       0 UNK        -0.1800 
      2 C           3.6469  -11.9939  -50.1891 C.2       0 UNK         0.5000 
      3 O           3.3176  -11.3557  -51.1868 O.2       0 UNK        -0.5000 
      4 N           2.7262  -12.3976  -49.3051 N.am      1 UNK        -0.5000 
      5 CA          2.9450  -13.1264  -48.0510 C.3       1 UNK         0.1400 
      6 C6          2.4001  -14.5775  -48.1032 C.3       23 UNK        -0.0398 
      7 S7          3.2899  -15.6161  -49.3115 S.3       23 UNK        -0.2404 
      8 C8          2.1092  -15.6816  -50.6963 C.3       23 UNK        -0.0205 
      9 C9          1.0314  -16.7296  -50.4671 C.ar      23 UNK        -0.0193 
     10 C10        -0.2276  -16.3620  -49.9853 C.ar      23 UNK        -0.1150 
     11 C11        -1.2181  -17.3267  -49.7789 C.ar      23 UNK        -0.0193 
     12 C12        -0.9379  -18.6688  -50.0507 C.ar      23 UNK        -0.1150 
     13 C13         0.3162  -19.0486  -50.5385 C.ar      23 UNK        -0.0193 
     14 C14         1.2935  -18.0726  -50.7507 C.ar      23 UNK        -0.1150 
     15 C15         0.6123  -20.5120  -50.8394 C.3       23 UNK        -0.0205 
     16 S16         1.9527  -21.1977  -49.8055 S.3       23 UNK        -0.2404 
     17 C17         1.3453  -20.8931  -48.1097 C.3       23 UNK        -0.0398 
     18 CA          0.6485  -22.1091  -47.4556 C.3       11 UNK         0.1400 
     19 N           0.4615  -21.9069  -46.0181 N.am      11 UNK        -0.5000 
     20 C          -0.0015  -22.8227  -45.1564 C.2       10 UNK         0.5000 
     21 O          -0.2699  -23.9833  -45.4660 O.2       10 UNK        -0.5000 
     22 CA         -0.2561  -22.3450  -43.7150 C.3       10 UNK         0.1400 
     23 CB          1.0515  -22.3083  -42.9108 C.3       10 UNK        -0.1800 
     24 N          -0.9071  -21.0339  -43.6650 N.am      10 UNK        -0.5000 
     25 C          -2.1331  -20.7821  -44.1473 C.2       9 UNK         0.5000 
     26 O          -2.8624  -21.6421  -44.6404 O.2       9 UNK        -0.5000 
     27 CA         -2.6110  -19.3198  -44.1167 C.3       9 UNK         0.1400 
     28 CB         -3.1122  -18.9364  -42.7167 C.3       9 UNK        -0.1800 
     29 N          -1.5786  -18.3771  -44.5462 N.am      9 UNK        -0.5000 
     30 C          -1.0296  -18.3489  -45.7691 C.2       8 UNK         0.5000 
     31 O          -1.3602  -19.1027  -46.6831 O.2       8 UNK        -0.5000 
     32 CA          0.1193  -17.3458  -45.9858 C.3       8 UNK         0.1400 
     33 CB         -0.4265  -15.9181  -46.1390 C.3       8 UNK        -0.1800 
     34 N           1.0938  -17.3835  -44.8929 N.am      8 UNK        -0.5000 
     35 C           1.8180  -18.4610  -44.5556 C.2       7 UNK         0.5000 
     36 O           1.7935  -19.5240  -45.1730 O.2       7 UNK        -0.5000 
     37 CA          2.6658  -18.3562  -43.2780 C.3       7 UNK         0.1400 
     38 CB          4.0297  -17.7130  -43.5708 C.3       7 UNK        -0.1800 
     39 N           1.9675  -17.6092  -42.2320 N.am      7 UNK        -0.5000 
     40 C           0.9064  -18.0786  -41.5584 C.2       6 UNK         0.5000 
     41 O           0.4434  -19.2082  -41.7168 O.2       6 UNK        -0.5000 
     42 CA          0.2201  -17.1078  -40.5788 C.3       6 UNK         0.1400 
     43 CB          0.9331  -17.1157  -39.2186 C.3       6 UNK        -0.1800 
     44 N           0.1681  -15.7382  -41.0924 N.am      6 UNK        -0.5000 
     45 C          -0.5397  -15.3595  -42.1662 C.2       5 UNK         0.5000 
     46 O          -1.2857  -16.1155  -42.7862 O.2       5 UNK        -0.5000 
     47 CA         -0.3474  -13.9124  -42.6600 C.3       5 UNK         0.1400 
     48 CB         -1.4226  -12.9911  -42.0667 C.3       5 UNK        -0.1800 
     49 N           0.9759  -13.3615  -42.3594 N.am      5 UNK        -0.5000 
     50 C           2.1395  -13.8359  -42.8189 C.2       4 UNK         0.5000 
     51 O           2.2176  -14.8229  -43.5529 O.2       4 UNK        -0.5000 
     52 CA          3.4174  -13.1003  -42.3509 C.3       4 UNK         0.1400 
     53 CB          4.7004  -13.7691  -42.8764 C.3       4 UNK        -0.1800 
     54 N           3.4471  -11.6835  -42.7257 N.am      4 UNK        -0.5000 
     55 C           2.6812  -10.7024  -42.2265 C.2       3 UNK         0.5000 
     56 O           1.8426  -10.8831  -41.3426 O.2       3 UNK        -0.5000 
     57 CA          2.8653   -9.2841  -42.8110 C.3       3 UNK         0.1400 
     58 CB          3.2350   -8.2878  -41.6999 C.3       3 UNK        -0.1800 
     59 N           3.8865   -9.1986  -43.8628 N.am      3 UNK        -0.5000 
     60 C           3.7902   -9.5504  -45.1530 C.2       2 UNK         0.5000 
     61 O           4.7500   -9.4290  -45.9164 O.2       2 UNK        -0.5000 
     62 CA          2.4700  -10.1160  -45.7131 C.3       2 UNK         0.1400 
     63 CB          1.5942   -8.9949  -46.2947 C.3       2 UNK        -0.1800 
     64 N           2.8123  -11.0561  -46.7744 N.am      2 UNK        -0.5000 
     65 C           2.3199  -12.2905  -46.9183 C.2       1 UNK         0.5000 
     66 O           1.4082  -12.7453  -46.2281 O.2       1 UNK        -0.5000 
     67 C          -0.6820  -22.4564  -48.1520 C.2       11 UNK         0.5000 
     68 O          -0.7355  -23.4402  -48.8881 O.2       11 UNK        -0.5000 
     69 N          -1.7379  -21.6757  -47.8797 N.am      12 UNK        -0.5000 
     70 CA         -3.0873  -21.9045  -48.3959 C.3       12 UNK         0.1400 
     71 CB         -4.0068  -20.7455  -47.9883 C.3       12 UNK        -0.1800 
     72 C          -3.6757  -23.2539  -47.9505 C.2       12 UNK         0.5000 
     73 O          -4.2345  -23.9685  -48.7815 O.2       12 UNK        -0.5000 
     74 N          -3.5085  -23.5987  -46.6660 N.am      13 UNK        -0.5000 
     75 CA         -3.9123  -24.8839  -46.0948 C.3       13 UNK         0.1400 
     76 CB         -3.6842  -24.8760  -44.5759 C.3       13 UNK        -0.1800 
     77 C          -3.1967  -26.0747  -46.7575 C.2       13 UNK         0.5000 
     78 O          -3.8621  -27.0357  -47.1481 O.2       13 UNK        -0.5000 
     79 N          -1.8686  -25.9638  -46.9133 N.am      14 UNK        -0.5000 
     80 CA         -1.0194  -26.9416  -47.5965 C.3       14 UNK         0.1400 
     81 CB          0.4568  -26.5525  -47.4271 C.3       14 UNK        -0.1800 
     82 C          -1.3735  -27.1076  -49.0856 C.2       14 UNK         0.5000 
     83 O          -1.3971  -28.2348  -49.5817 O.2       14 UNK        -0.5000 
     84 N          -1.7039  -25.9982  -49.7594 N.am      15 UNK        -0.5000 
     85 CA         -2.1870  -25.9383  -51.1402 C.3       15 UNK         0.1400 
     86 CB         -1.9207  -24.5321  -51.7034 C.3       15 UNK        -0.1800 
     87 C          -3.6699  -26.3521  -51.2722 C.2       15 UNK         0.5000 
     88 O          -4.4560  -25.6386  -51.8995 O.2       15 UNK        -0.5000 
     89 N          -4.0145  -27.5035  -50.6778 N.am      16 UNK        -0.5000 
     90 CA         -5.3046  -28.1979  -50.7121 C.3       16 UNK         0.1400 
     91 CB         -5.4832  -28.8983  -52.0737 C.3       16 UNK        -0.1800 
     92 C          -6.5067  -27.3133  -50.3191 C.2       16 UNK         0.5000 
     93 O          -7.5440  -27.3545  -50.9829 O.2       16 UNK        -0.5000 
     94 N          -6.3336  -26.5332  -49.2412 N.am      17 UNK        -0.5000 
     95 CA         -7.2959  -25.5754  -48.6857 C.3       17 UNK         0.1400 
     96 CB         -8.5227  -26.3041  -48.0980 C.3       17 UNK        -0.1800 
     97 C          -7.6660  -24.4679  -49.6948 C.2       17 UNK         0.5000 
     98 O          -8.8363  -24.2989  -50.0434 O.2       17 UNK        -0.5000 
     99 N          -6.6338  -23.7366  -50.1325 N.am      18 UNK        -0.5000 
    100 CA        -6.6589  -22.6026  -51.0574 C.3       18 UNK         0.1400 
    101 CB        -7.4457  -21.4183  -50.4565 C.3       18 UNK        -0.1800 
    102 C         -7.1281  -22.9859  -52.4746 C.2       18 UNK         0.5000 
    103 O         -7.9025  -22.2496  -53.0901 O.2       18 UNK        -0.5000 
    104 N         -6.6345  -24.1241  -52.9835 N.am      19 UNK        -0.5000 
    105 CA        -6.8015  -24.5220  -54.3830 C.3       19 UNK         0.1400 
    106 CB        -6.5059  -26.0198  -54.5388 C.3       19 UNK        -0.1800 
    107 C         -5.9001  -23.6857  -55.3108 C.2       19 UNK         0.5000 
    108 O         -6.3083  -23.3615  -56.4268 O.2       19 UNK        -0.5000 
    109 N         -4.7091  -23.3222  -54.8154 N.am      20 UNK        -0.5000 
    110 CA        -3.8347  -22.3195  -55.4178 C.3       20 UNK         0.1400 
    111 CB        -2.3772  -22.6211  -55.0372 C.3       20 UNK        -0.1800 
    112 C         -4.2359  -20.9223  -54.9162 C.2       20 UNK         0.5000 
    113 O         -4.6360  -20.7790  -53.7573 O.2       20 UNK        -0.5000 
    114 N         -4.0998  -19.9174  -55.7873 N.am      21 UNK        -0.5000 
    115 CA        -4.3387  -18.5124  -55.4623 C.3       21 UNK         0.1400 
    116 CB        -4.5372  -17.7279  -56.7689 C.3       21 UNK        -0.1800 
    117 C         -3.1761  -17.9164  -54.6468 C.2       21 UNK         0.5000 
    118 O         -2.0242  -18.3175  -54.8314 O.2       21 UNK        -0.5000 
    119 N         -3.5009  -16.9401  -53.7935 N.am      22 UNK        -0.5000 
    120 CA        -2.5408  -16.1947  -52.9597 C.3       22 UNK         0.1400 
    121 C         -1.7551  -15.0814  -53.7159 C.2       22 UNK         0.5000 
    122 N         -2.0677  -14.7719  -54.9687 N.am      22 UNK        -0.7600 
    123 O         -0.8377  -14.4877  -53.1565 O.2       22 UNK        -0.5000 
    124 C124       -3.2257  -15.6232  -51.6909 C.3       23 UNK        -0.0398 
    125 S125       -3.8475  -16.9388  -50.5864 S.3       23 UNK        -0.2404 
    126 C126       -2.5924  -16.9197  -49.2667 C.3       23 UNK        -0.0205 
    127 H127        5.7198  -11.9949  -50.8135 H         1 UNK         0.0600 
    128 H128        5.2736  -13.3881  -49.8365 H         1 UNK         0.0600 
    129 H129        5.4964  -11.8005  -49.0769 H         1 UNK         0.0600 
    130 H130        1.7644  -12.1367  -49.4710 H         1 UNK         0.3000 
    131 H131        4.0068  -13.1871  -47.8098 H         1 UNK         0.0600 
    132 H132        2.5163  -15.0570  -47.1295 H         1 UNK         0.0800 
    133 H133        1.3320  -14.5822  -48.3203 H         1 UNK         0.0800 
    134 H134        2.6550  -15.9205  -51.6101 H         1 UNK         0.0800 
    135 H135        1.6664  -14.6978  -50.8595 H         1 UNK         0.0800 
    136 H136       -0.4389  -15.3226  -49.7788 H         1 UNK         0.1150 
    137 H137       -1.7019  -19.4150  -49.8858 H         1 UNK         0.1150 
    138 H138        2.2657  -18.3619  -51.1248 H         1 UNK         0.1150 
    139 H139       -0.2839  -21.1221  -50.7195 H         1 UNK         0.0800 
    140 H140        0.8989  -20.6032  -51.8878 H         1 UNK         0.0800 
    141 H141        0.7067  -20.0111  -48.0792 H         1 UNK         0.0800 
    142 H142        2.2255  -20.6293  -47.5228 H         1 UNK         0.0800 
    143 H143        1.3082  -22.9724  -47.5655 H         1 UNK         0.0600 
    144 H144        0.7044  -20.9856  -45.6629 H         1 UNK         0.3000 
    145 H145       -0.9247  -23.0659  -43.2403 H         1 UNK         0.0600 
    146 H146        0.8670  -22.0383  -41.8709 H         1 UNK         0.0600 
    147 H147        1.5379  -23.2845  -42.9126 H         1 UNK         0.0600 
    148 H148        1.7587  -21.5883  -43.3226 H         1 UNK         0.0600 
    149 H149       -0.3856  -20.2809  -43.2282 H         1 UNK         0.3000 
    150 H150       -3.4482  -19.2309  -44.8119 H         1 UNK         0.0600 
    151 H151       -3.8976  -19.6158  -42.3831 H         1 UNK         0.0600 
    152 H152       -3.5287  -17.9290  -42.7102 H         1 UNK         0.0600 
    153 H153       -2.3114  -18.9707  -41.9778 H         1 UNK         0.0600 
    154 H154       -1.2889  -17.6804  -43.8649 H         1 UNK         0.3000 
    155 H155        0.6435  -17.6145  -46.9057 H         1 UNK         0.0600 
    156 H156       -0.9227  -15.7951  -47.0999 H         1 UNK         0.0600 
    157 H157        0.3695  -15.1782  -46.0860 H         1 UNK         0.0600 
    158 H158       -1.1540  -15.6694  -45.3674 H         1 UNK         0.0600 
    159 H159        1.2111  -16.5368  -44.3484 H         1 UNK         0.3000 
    160 H160        2.8463  -19.3683  -42.9099 H         1 UNK         0.0600 
    161 H161        3.9288  -16.7220  -44.0125 H         1 UNK         0.0600 
    162 H162        4.5992  -18.3224  -44.2734 H         1 UNK         0.0600 
    163 H163        4.6268  -17.6192  -42.6637 H         1 UNK         0.0600 
    164 H164        2.2440  -16.6463  -42.1039 H         1 UNK         0.3000 
    165 H165       -0.8048  -17.4541  -40.4297 H         1 UNK         0.0600 
    166 H166        0.4108  -16.4882  -38.4962 H         1 UNK         0.0600 
    167 H167        0.9705  -18.1242  -38.8044 H         1 UNK         0.0600 
    168 H168        1.9594  -16.7550  -39.2977 H         1 UNK         0.0600 
    169 H169        0.7473  -15.0516  -40.6325 H         1 UNK         0.3000 
    170 H170       -0.4617  -13.9171  -43.7458 H         1 UNK         0.0600 
    171 H171       -2.4233  -13.3597  -42.2962 H         1 UNK         0.0600 
    172 H172       -1.3378  -12.9209  -40.9815 H         1 UNK         0.0600 
    173 H173       -1.3464  -11.9831  -42.4752 H         1 UNK         0.0600 
    174 H174        1.0086  -12.5211  -41.7884 H         1 UNK         0.3000 
    175 H175        3.4366  -13.1612  -41.2609 H         1 UNK         0.0600 
    176 H176        5.5914  -13.2688  -42.4967 H         1 UNK         0.0600 
    177 H177        4.7577  -14.8105  -42.5580 H         1 UNK         0.0600 
    178 H178        4.7448  -13.7545  -43.9663 H         1 UNK         0.0600 
    179 H179        4.1223  -11.4329  -43.4325 H         1 UNK         0.3000 
    180 H180        1.9027   -8.9752  -43.2215 H         1 UNK         0.0600 
    181 H181        4.1856   -8.5434  -41.2300 H         1 UNK         0.0600 
    182 H182        2.4761   -8.2700  -40.9165 H         1 UNK         0.0600 
    183 H183        3.3157   -7.2732  -42.0906 H         1 UNK         0.0600 
    184 H184        4.7754   -8.8339  -43.5524 H         1 UNK         0.3000 
    185 H185        1.9145  -10.6322  -44.9308 H         1 UNK         0.0600 
    186 H186        1.3209   -8.2699  -45.5275 H         1 UNK         0.0600 
    187 H187        2.1084   -8.4537  -47.0901 H         1 UNK         0.0600 
    188 H188        0.6685   -9.3955  -46.7082 H         1 UNK         0.0600 
    189 H189        3.5850  -10.7604  -47.3567 H         1 UNK         0.3000 
    190 H190       -1.6085  -20.8563  -47.2901 H         1 UNK         0.3000 
    191 H191       -3.0253  -21.9173  -49.4859 H         1 UNK         0.0600 
    192 H192       -4.0533  -20.6271  -46.9058 H         1 UNK         0.0600 
    193 H193       -5.0234  -20.9084  -48.3453 H         1 UNK         0.0600 
    194 H194       -3.6626  -19.8041  -48.4132 H         1 UNK         0.0600 
    195 H195       -3.0785  -22.9318  -46.0300 H         1 UNK         0.3000 
    196 H196       -4.9828  -25.0010  -46.2704 H         1 UNK         0.0600 
    197 H197       -3.9943  -25.8215  -44.1293 H         1 UNK         0.0600 
    198 H198       -4.2608  -24.0850  -44.0961 H         1 UNK         0.0600 
    199 H199       -2.6349  -24.7222  -44.3247 H         1 UNK         0.0600 
    200 H200       -1.3988  -25.1437  -46.5387 H         1 UNK         0.3000 
    201 H201       -1.1732  -27.9076  -47.1114 H         1 UNK         0.0600 
    202 H202        0.7361  -26.5173  -46.3739 H         1 UNK         0.0600 
    203 H203        0.6682  -25.5749  -47.8610 H         1 UNK         0.0600 
    204 H204        1.1110  -27.2772  -47.9134 H         1 UNK         0.0600 
    205 H205       -1.6177  -25.1039  -49.2836 H         1 UNK         0.3000 
    206 H206       -1.6078  -26.6449  -51.7377 H         1 UNK         0.0600 
    207 H207       -0.8665  -24.2657  -51.6252 H         1 UNK         0.0600 
    208 H208       -2.1898  -24.4857  -52.7580 H         1 UNK         0.0600 
    209 H209       -2.4992  -23.7719  -51.1771 H         1 UNK         0.0600 
    210 H210       -3.2746  -27.9851  -50.1770 H         1 UNK         0.3000 
    211 H211       -5.2497  -28.9768  -49.9503 H         1 UNK         0.0600 
    212 H212       -5.5230  -28.1816  -52.8921 H         1 UNK         0.0600 
    213 H213       -6.4034  -29.4831  -52.1011 H         1 UNK         0.0600 
    214 H214       -4.6599  -29.5843  -52.2728 H         1 UNK         0.0600 
    215 H215       -5.4296  -26.5601  -48.7847 H         1 UNK         0.3000 
    216 H216       -6.7903  -25.0772  -47.8580 H         1 UNK         0.0600 
    217 H217       -9.1886  -25.6002  -47.5975 H         1 UNK         0.0600 
    218 H218       -8.2221  -27.0474  -47.3596 H         1 UNK         0.0600 
    219 H219       -9.1052  -26.8120  -48.8670 H         1 UNK         0.0600 
    220 H220       -5.7103  -23.9720  -49.7692 H         1 UNK         0.3000 
    221 H221       -5.6211  -22.2823  -51.1627 H         1 UNK         0.0600 
    222 H222       -8.5146  -21.6267  -50.4032 H         1 UNK         0.0600 
    223 H223       -7.1024  -21.1814  -49.4503 H         1 UNK         0.0600 
    224 H224       -7.3180  -20.5206  -51.0626 H         1 UNK         0.0600 
    225 H225       -5.9912  -24.6830  -52.4265 H         1 UNK         0.3000 
    226 H226       -7.8403  -24.3519  -54.6738 H         1 UNK         0.0600 
    227 H227       -7.1308  -26.6148  -53.8725 H         1 UNK         0.0600 
    228 H228       -6.7067  -26.3513  -55.5581 H         1 UNK         0.0600 
    229 H229       -5.4626  -26.2489  -54.3208 H         1 UNK         0.0600 
    230 H230       -4.4862  -23.6013  -53.8709 H         1 UNK         0.3000 
    231 H231       -3.9256  -22.3586  -56.5055 H         1 UNK         0.0600 
    232 H232       -2.0988  -23.6412  -55.3026 H         1 UNK         0.0600 
    233 H233       -2.2043  -22.4877  -53.9689 H         1 UNK         0.0600 
    234 H234       -1.6947  -21.9501  -55.5602 H         1 UNK         0.0600 
    235 H235       -3.7198  -20.1063  -56.7033 H         1 UNK         0.3000 
    236 H236       -5.2562  -18.4412  -54.8736 H         1 UNK         0.0600 
    237 H237       -4.7609  -16.6798  -56.5669 H         1 UNK         0.0600 
    238 H238       -3.6459  -17.7587  -57.3972 H         1 UNK         0.0600 
    239 H239       -5.3696  -18.1294  -57.3474 H         1 UNK         0.0600 
    240 H240       -4.4683  -16.6667  -53.7014 H         1 UNK         0.3000 
    241 H241       -1.7774  -16.9007  -52.6264 H         1 UNK         0.0600 
    242 H242       -1.5470  -14.0518  -55.4446 H         1 UNK         0.3800 
    243 H243       -2.8141  -15.2495  -55.4464 H         1 UNK         0.3800 
    244 H244       -2.5430  -14.9853  -51.1278 H         1 UNK         0.0800 
    245 H245       -4.0636  -14.9826  -51.9698 H         1 UNK         0.0800 
    246 H246       -2.8978  -17.5980  -48.4700 H         1 UNK         0.0800 
    247 H247       -2.5626  -15.9252  -48.8200 H         1 UNK         0.0800 
@<TRIPOS>BOND
     1    1    2 1    
     2    1  127 1    
     3    1  128 1    
     4    1  129 1    
     5    2    3 2    
     6    2    4 am   BACKBONE|DICT|INTERRES
     7    4    5 1    
     8    4  130 1    
     9    5    6 1    
    10    5   65 1    
    11    5  131 1    
    12    6    7 1    
    13    6  132 1    
    14    6  133 1    
    15    7    8 1    
    16    8    9 1    
    17    8  134 1    
    18    8  135 1    
    19    9   10 ar   
    20    9   14 ar   
    21   10   11 ar   
    22   10  136 1    
    23   11   12 ar   
    24   11  126 1    
    25   12   13 ar   
    26   12  137 1    
    27   13   14 ar   
    28   13   15 1    
    29   14  138 1    
    30   15   16 1    
    31   15  139 1    
    32   15  140 1    
    33   16   17 1    
    34   17   18 1    
    35   17  141 1    
    36   17  142 1    
    37   18   19 1    
    38   18   67 1    
    39   18  143 1    
    40   19   20 am   BACKBONE|DICT|INTERRES
    41   19  144 1    
    42   20   21 2    
    43   20   22 1    
    44   22   23 1    
    45   22   24 1    
    46   22  145 1    
    47   23  146 1    
    48   23  147 1    
    49   23  148 1    
    50   24   25 am   BACKBONE|DICT|INTERRES
    51   24  149 1    
    52   25   26 2    
    53   25   27 1    
    54   27   28 1    
    55   27   29 1    
    56   27  150 1    
    57   28  151 1    
    58   28  152 1    
    59   28  153 1    
    60   29   30 am   BACKBONE|DICT|INTERRES
    61   29  154 1    
    62   30   31 2    
    63   30   32 1    
    64   32   33 1    
    65   32   34 1    
    66   32  155 1    
    67   33  156 1    
    68   33  157 1    
    69   33  158 1    
    70   34   35 am   BACKBONE|DICT|INTERRES
    71   34  159 1    
    72   35   36 2    
    73   35   37 1    
    74   37   38 1    
    75   37   39 1    
    76   37  160 1    
    77   38  161 1    
    78   38  162 1    
    79   38  163 1    
    80   39   40 am   BACKBONE|DICT|INTERRES
    81   39  164 1    
    82   40   41 2    
    83   40   42 1    
    84   42   43 1    
    85   42   44 1    
    86   42  165 1    
    87   43  166 1    
    88   43  167 1    
    89   43  168 1    
    90   44   45 am   BACKBONE|DICT|INTERRES
    91   44  169 1    
    92   45   46 2    
    93   45   47 1    
    94   47   48 1    
    95   47   49 1    
    96   47  170 1    
    97   48  171 1    
    98   48  172 1    
    99   48  173 1    
   100   49   50 am   BACKBONE|DICT|INTERRES
   101   49  174 1    
   102   50   51 2    
   103   50   52 1    
   104   52   53 1    
   105   52   54 1    
   106   52  175 1    
   107   53  176 1    
   108   53  177 1    
   109   53  178 1    
   110   54   55 am   BACKBONE|DICT|INTERRES
   111   54  179 1    
   112   55   56 2    
   113   55   57 1    
   114   57   58 1    
   115   57   59 1    
   116   57  180 1    
   117   58  181 1    
   118   58  182 1    
   119   58  183 1    
   120   59   60 am   BACKBONE|DICT|INTERRES
   121   59  184 1    
   122   60   61 2    
   123   60   62 1    
   124   62   63 1    
   125   62   64 1    
   126   62  185 1    
   127   63  186 1    
   128   63  187 1    
   129   63  188 1    
   130   64   65 am   BACKBONE|DICT|INTERRES
   131   64  189 1    
   132   65   66 2    
   133   67   68 2    
   134   67   69 am   BACKBONE|DICT|INTERRES
   135   69   70 1    
   136   69  190 1    
   137   70   71 1    
   138   70   72 1    
   139   70  191 1    
   140   71  192 1    
   141   71  193 1    
   142   71  194 1    
   143   72   73 2    
   144   72   74 am   BACKBONE|DICT|INTERRES
   145   74   75 1    
   146   74  195 1    
   147   75   76 1    
   148   75   77 1    
   149   75  196 1    
   150   76  197 1    
   151   76  198 1    
   152   76  199 1    
   153   77   78 2    
   154   77   79 am   BACKBONE|DICT|INTERRES
   155   79   80 1    
   156   79  200 1    
   157   80   81 1    
   158   80   82 1    
   159   80  201 1    
   160   81  202 1    
   161   81  203 1    
   162   81  204 1    
   163   82   83 2    
   164   82   84 am   BACKBONE|DICT|INTERRES
   165   84   85 1    
   166   84  205 1    
   167   85   86 1    
   168   85   87 1    
   169   85  206 1    
   170   86  207 1    
   171   86  208 1    
   172   86  209 1    
   173   87   88 2    
   174   87   89 am   BACKBONE|DICT|INTERRES
   175   89   90 1    
   176   89  210 1    
   177   90   91 1    
   178   90   92 1    
   179   90  211 1    
   180   91  212 1    
   181   91  213 1    
   182   91  214 1    
   183   92   93 2    
   184   92   94 am   BACKBONE|DICT|INTERRES
   185   94   95 1    
   186   94  215 1    
   187   95   96 1    
   188   95   97 1    
   189   95  216 1    
   190   96  217 1    
   191   96  218 1    
   192   96  219 1    
   193   97   98 2    
   194   97   99 am   BACKBONE|DICT|INTERRES
   195   99  100 1    
   196   99  220 1    
   197  100  101 1    
   198  100  102 1    
   199  100  221 1    
   200  101  222 1    
   201  101  223 1    
   202  101  224 1    
   203  102  103 2    
   204  102  104 am   BACKBONE|DICT|INTERRES
   205  104  105 1    
   206  104  225 1    
   207  105  106 1    
   208  105  107 1    
   209  105  226 1    
   210  106  227 1    
   211  106  228 1    
   212  106  229 1    
   213  107  108 2    
   214  107  109 am   BACKBONE|DICT|INTERRES
   215  109  110 1    
   216  109  230 1    
   217  110  111 1    
   218  110  112 1    
   219  110  231 1    
   220  111  232 1    
   221  111  233 1    
   222  111  234 1    
   223  112  113 2    
   224  112  114 am   BACKBONE|DICT|INTERRES
   225  114  115 1    
   226  114  235 1    
   227  115  116 1    
   228  115  117 1    
   229  115  236 1    
   230  116  237 1    
   231  116  238 1    
   232  116  239 1    
   233  117  118 2    
   234  117  119 am   BACKBONE|DICT|INTERRES
   235  119  120 1    
   236  119  240 1    
   237  120  121 1    
   238  120  124 1    
   239  120  241 1    
   240  121  122 am   BACKBONE|DICT|INTERRES
   241  121  123 2    
   242  122  242 1    
   243  122  243 1    
   244  124  125 1    
   245  124  244 1    
   246  124  245 1    
   247  125  126 1    
   248  126  246 1    
   249  126  247 1    
@<TRIPOS>SUBSTRUCTURE
     1 UNK         1 GROUP             0       ****    0 ROOT    
