@<TRIPOS>MOLECULE
3R540
247   249    1
SMALL
USER_CHARGES


@<TRIPOS>ATOM
      1 CA          0.2579  -13.0254  -51.1871 C.3       0 UNK        -0.1800 
      2 C           0.5378  -14.4784  -50.8078 C.2       0 UNK         0.5000 
      3 O           0.0454  -15.3793  -51.4829 O.2       0 UNK        -0.5000 
      4 N           1.3263  -14.7642  -49.7639 N.am      1 UNK        -0.5000 
      5 CA          1.9030  -13.8373  -48.7802 C.3       1 UNK         0.1400 
      6 C6          2.9307  -14.5665  -47.8773 C.3       23 UNK        -0.0398 
      7 S7          4.5236  -14.8103  -48.7296 S.3       23 UNK        -0.2404 
      8 C8          4.5807  -16.6149  -48.9714 C.3       23 UNK        -0.0205 
      9 C9          3.7360  -17.1007  -50.1429 C.ar      23 UNK        -0.0193 
     10 C10         3.9022  -16.5527  -51.4193 C.ar      23 UNK        -0.1150 
     11 C11         3.1796  -17.0402  -52.5130 C.ar      23 UNK        -0.0193 
     12 C12         2.2778  -18.0933  -52.3126 C.ar      23 UNK        -0.1150 
     13 C13         2.1080  -18.6593  -51.0451 C.ar      23 UNK        -0.0193 
     14 C14         2.8392  -18.1567  -49.9646 C.ar      23 UNK        -0.1150 
     15 C15         1.1826  -19.8546  -50.8656 C.3       23 UNK        -0.0205 
     16 S16        -0.4691  -19.3670  -50.2829 S.3       23 UNK        -0.2404 
     17 C17        -0.2671  -19.4523  -48.4755 C.3       23 UNK        -0.0398 
     18 CA         -0.7231  -20.8122  -47.8940 C.3       11 UNK         0.1400 
     19 N          -0.1102  -21.0979  -46.5933 N.am      11 UNK        -0.5000 
     20 C          -0.2251  -22.2551  -45.9244 C.2       10 UNK         0.5000 
     21 O          -0.8193  -23.2397  -46.3619 O.2       10 UNK        -0.5000 
     22 CA          0.3760  -22.3054  -44.5061 C.3       10 UNK         0.1400 
     23 CB          1.8878  -22.5704  -44.5542 C.3       10 UNK        -0.1800 
     24 N           0.1124  -21.0824  -43.7465 N.am      10 UNK        -0.5000 
     25 C          -1.1114  -20.6602  -43.3947 C.2       9 UNK         0.5000 
     26 O          -2.1412  -21.3068  -43.5913 O.2       9 UNK        -0.5000 
     27 CA         -1.2028  -19.2435  -42.7957 C.3       9 UNK         0.1400 
     28 CB         -0.8678  -19.2443  -41.2969 C.3       9 UNK        -0.1800 
     29 N          -0.3337  -18.2995  -43.5026 N.am      9 UNK        -0.5000 
     30 C          -0.5075  -17.9442  -44.7837 C.2       8 UNK         0.5000 
     31 O          -1.4667  -18.3017  -45.4636 O.2       8 UNK        -0.5000 
     32 CA          0.5905  -17.0927  -45.4357 C.3       8 UNK         0.1400 
     33 CB          0.3155  -15.6081  -45.2061 C.3       8 UNK        -0.1800 
     34 N           1.9229  -17.4368  -44.9416 N.am      8 UNK        -0.5000 
     35 C           2.5937  -18.5370  -45.3125 C.2       7 UNK         0.5000 
     36 O           2.1721  -19.3352  -46.1461 O.2       7 UNK        -0.5000 
     37 CA          3.9374  -18.8194  -44.6148 C.3       7 UNK         0.1400 
     38 CB          5.0978  -18.2001  -45.4064 C.3       7 UNK        -0.1800 
     39 N           3.9756  -18.3259  -43.2393 N.am      7 UNK        -0.5000 
     40 C           3.2146  -18.7935  -42.2395 C.2       6 UNK         0.5000 
     41 O           2.4388  -19.7419  -42.3605 O.2       6 UNK        -0.5000 
     42 CA          3.2894  -18.0229  -40.9061 C.3       6 UNK         0.1400 
     43 CB          4.3751  -18.6180  -39.9978 C.3       6 UNK        -0.1800 
     44 N           3.5451  -16.5898  -41.0998 N.am      6 UNK        -0.5000 
     45 C           2.6918  -15.7515  -41.7034 C.2       5 UNK         0.5000 
     46 O           1.5813  -16.0968  -42.1114 O.2       5 UNK        -0.5000 
     47 CA          3.2075  -14.3303  -41.9879 C.3       5 UNK         0.1400 
     48 CB          3.7907  -14.2578  -43.4088 C.3       5 UNK        -0.1800 
     49 N           2.1465  -13.3335  -41.8614 N.am      5 UNK        -0.5000 
     50 C           1.6980  -12.8549  -40.6921 C.2       4 UNK         0.5000 
     51 O           2.1567  -13.1945  -39.6001 O.2       4 UNK        -0.5000 
     52 CA          0.5648  -11.8074  -40.7342 C.3       4 UNK         0.1400 
     53 CB          1.1430  -10.3881  -40.6233 C.3       4 UNK        -0.1800 
     54 N          -0.2594  -11.8858  -41.9399 N.am      4 UNK        -0.5000 
     55 C          -1.1057  -12.8841  -42.2204 C.2       3 UNK         0.5000 
     56 O          -1.3578  -13.7986  -41.4352 O.2       3 UNK        -0.5000 
     57 CA         -1.7959  -12.8708  -43.6009 C.3       3 UNK         0.1400 
     58 CB         -3.2744  -12.4784  -43.4493 C.3       3 UNK        -0.1800 
     59 N          -1.1965  -12.0226  -44.6419 N.am      3 UNK        -0.5000 
     60 C           0.0681  -12.0527  -45.0844 C.2       2 UNK         0.5000 
     61 O           0.9872  -12.6534  -44.5249 O.2       2 UNK        -0.5000 
     62 CA          0.3614  -11.2533  -46.3670 C.3       2 UNK         0.1400 
     63 CB          1.0649   -9.9314  -46.0246 C.3       2 UNK        -0.1800 
     64 N           1.1980  -12.0162  -47.2966 N.am      2 UNK        -0.5000 
     65 C           0.8200  -13.1397  -47.9236 C.2       1 UNK         0.5000 
     66 O          -0.3131  -13.6187  -47.8385 O.2       1 UNK        -0.5000 
     67 C          -2.2601  -20.9169  -47.8476 C.2       11 UNK         0.5000 
     68 O          -2.8428  -21.5626  -48.7147 O.2       11 UNK        -0.5000 
     69 N          -2.8852  -20.3259  -46.8201 N.am      12 UNK        -0.5000 
     70 CA         -4.3269  -20.3862  -46.5784 C.3       12 UNK         0.1400 
     71 CB         -4.6930  -19.4710  -45.4007 C.3       12 UNK        -0.1800 
     72 C          -4.8299  -21.8212  -46.3407 C.2       12 UNK         0.5000 
     73 O          -5.8570  -22.2019  -46.9025 O.2       12 UNK        -0.5000 
     74 N          -4.0745  -22.6050  -45.5577 N.am      13 UNK        -0.5000 
     75 CA         -4.3322  -24.0265  -45.3231 C.3       13 UNK         0.1400 
     76 CB         -3.3956  -24.5478  -44.2230 C.3       13 UNK        -0.1800 
     77 C          -4.2052  -24.8691  -46.6066 C.2       13 UNK         0.5000 
     78 O          -5.0669  -25.7080  -46.8700 O.2       13 UNK        -0.5000 
     79 N          -3.1614  -24.6039  -47.4046 N.am      14 UNK        -0.5000 
     80 CA         -2.9383  -25.2308  -48.7072 C.3       14 UNK         0.1400 
     81 CB         -1.5409  -24.8657  -49.2292 C.3       14 UNK        -0.1800 
     82 C          -4.0206  -24.8590  -49.7357 C.2       14 UNK         0.5000 
     83 O          -4.4769  -25.7319  -50.4746 O.2       14 UNK        -0.5000 
     84 N          -4.4284  -23.5835  -49.7599 N.am      15 UNK        -0.5000 
     85 CA         -5.4813  -23.0561  -50.6274 C.3       15 UNK         0.1400 
     86 CB         -5.4793  -21.5210  -50.5852 C.3       15 UNK        -0.1800 
     87 C          -6.8719  -23.6222  -50.3004 C.2       15 UNK         0.5000 
     88 O          -7.6529  -23.8780  -51.2169 O.2       15 UNK        -0.5000 
     89 N          -7.1435  -23.8474  -49.0079 N.am      16 UNK        -0.5000 
     90 CA         -8.3380  -24.5436  -48.5311 C.3       16 UNK         0.1400 
     91 CB         -8.4539  -24.3776  -47.0084 C.3       16 UNK        -0.1800 
     92 C          -8.3483  -26.0345  -48.9228 C.2       16 UNK         0.5000 
     93 O          -9.4231  -26.5857  -49.1640 O.2       16 UNK        -0.5000 
     94 N          -7.1612  -26.6544  -48.9851 N.am      17 UNK        -0.5000 
     95 CA         -6.9731  -28.0436  -49.3908 C.3       17 UNK         0.1400 
     96 CB         -5.6210  -28.5668  -48.8774 C.3       17 UNK        -0.1800 
     97 C          -7.1195  -28.2363  -50.9115 C.2       17 UNK         0.5000 
     98 O          -7.9915  -28.9996  -51.3306 O.2       17 UNK        -0.5000 
     99 N          -6.2731  -27.5659  -51.7098 N.am      18 UNK        -0.5000 
    100 CA        -6.2131  -27.7574  -53.1663 C.3       18 UNK         0.1400 
    101 CB        -5.6123  -29.1432  -53.4902 C.3       18 UNK        -0.1800 
    102 C         -5.4398  -26.6755  -53.9475 C.2       18 UNK         0.5000 
    103 O         -5.6114  -26.6043  -55.1662 O.2       18 UNK        -0.5000 
    104 N         -4.5751  -25.8921  -53.2882 N.am      19 UNK        -0.5000 
    105 CA        -3.6895  -24.9139  -53.9318 C.3       19 UNK         0.1400 
    106 CB        -2.4372  -24.7286  -53.0510 C.3       19 UNK        -0.1800 
    107 C         -4.3957  -23.5721  -54.2346 C.2       19 UNK         0.5000 
    108 O         -5.6262  -23.4949  -54.2362 O.2       19 UNK        -0.5000 
    109 N         -3.5997  -22.5224  -54.4602 N.am      20 UNK        -0.5000 
    110 CA        -4.0382  -21.1398  -54.6100 C.3       20 UNK         0.1400 
    111 CB        -4.3560  -20.8480  -56.0865 C.3       20 UNK        -0.1800 
    112 C         -2.9260  -20.2195  -54.0871 C.2       20 UNK         0.5000 
    113 O         -1.7517  -20.5978  -54.1298 O.2       20 UNK        -0.5000 
    114 N         -3.3171  -19.0332  -53.6118 N.am      21 UNK        -0.5000 
    115 CA        -2.4109  -17.9863  -53.1402 C.3       21 UNK         0.1400 
    116 CB        -3.1280  -17.1811  -52.0436 C.3       21 UNK        -0.1800 
    117 C         -1.9604  -17.0715  -54.2922 C.2       21 UNK         0.5000 
    118 O         -2.5739  -17.0735  -55.3632 O.2       21 UNK        -0.5000 
    119 N         -0.9100  -16.2844  -54.0385 N.am      22 UNK        -0.5000 
    120 CA        -0.3617  -15.2902  -54.9754 C.3       22 UNK         0.1400 
    121 C         -1.1180  -13.9284  -54.9683 C.2       22 UNK         0.5000 
    122 N         -2.0817  -13.6999  -54.0839 N.am      22 UNK        -0.7600 
    123 O         -0.8340  -13.0639  -55.7930 O.2       22 UNK        -0.5000 
    124 C124        1.1606  -15.0849  -54.7643 C.3       23 UNK        -0.0398 
    125 S125        2.1181  -16.5966  -55.1168 S.3       23 UNK        -0.2404 
    126 C126        3.4762  -16.4718  -53.9019 C.3       23 UNK        -0.0205 
    127 H127       -0.5663  -12.6303  -50.5936 H         1 UNK         0.0600 
    128 H128       -0.0239  -12.9582  -52.2371 H         1 UNK         0.0600 
    129 H129        1.1301  -12.3883  -51.0485 H         1 UNK         0.0600 
    130 H130        1.5121  -15.7397  -49.5864 H         1 UNK         0.3000 
    131 H131        2.4285  -13.0517  -49.3256 H         1 UNK         0.0600 
    132 H132        3.1540  -13.9891  -46.9778 H         1 UNK         0.0800 
    133 H133        2.5371  -15.5217  -47.5262 H         1 UNK         0.0800 
    134 H134        4.2836  -17.1074  -48.0456 H         1 UNK         0.0800 
    135 H135        5.6158  -16.9065  -49.1533 H         1 UNK         0.0800 
    136 H136        4.6207  -15.7581  -51.5647 H         1 UNK         0.1150 
    137 H137        1.7283  -18.5026  -53.1478 H         1 UNK         0.1150 
    138 H138        2.7394  -18.6097  -48.9892 H         1 UNK         0.1150 
    139 H139        1.0670  -20.3780  -51.8162 H         1 UNK         0.0800 
    140 H140        1.6265  -20.5779  -50.1798 H         1 UNK         0.0800 
    141 H141       -0.8126  -18.6213  -48.0269 H         1 UNK         0.0800 
    142 H142        0.7793  -19.2777  -48.2437 H         1 UNK         0.0800 
    143 H143       -0.3682  -21.5981  -48.5643 H         1 UNK         0.0600 
    144 H144        0.4660  -20.3646  -46.1955 H         1 UNK         0.3000 
    145 H145       -0.0958  -23.1346  -43.9750 H         1 UNK         0.0600 
    146 H146        2.3069  -22.6457  -43.5506 H         1 UNK         0.0600 
    147 H147        2.1015  -23.5081  -45.0685 H         1 UNK         0.0600 
    148 H148        2.4220  -21.7800  -45.0804 H         1 UNK         0.0600 
    149 H149        0.9139  -20.5138  -43.4939 H         1 UNK         0.3000 
    150 H150       -2.2331  -18.8999  -42.9099 H         1 UNK         0.0600 
    151 H151       -1.5555  -19.8882  -40.7474 H         1 UNK         0.0600 
    152 H152       -0.9508  -18.2428  -40.8741 H         1 UNK         0.0600 
    153 H153        0.1413  -19.6065  -41.1036 H         1 UNK         0.0600 
    154 H154        0.4609  -17.9309  -42.9963 H         1 UNK         0.3000 
    155 H155        0.5657  -17.2697  -46.5126 H         1 UNK         0.0600 
    156 H156        0.2366  -15.3610  -44.1483 H         1 UNK         0.0600 
    157 H157       -0.6195  -15.3100  -45.6813 H         1 UNK         0.0600 
    158 H158        1.1080  -14.9984  -45.6328 H         1 UNK         0.0600 
    159 H159        2.2938  -16.8582  -44.2019 H         1 UNK         0.3000 
    160 H160        4.0788  -19.9019  -44.5888 H         1 UNK         0.0600 
    161 H161        4.9935  -17.1181  -45.5000 H         1 UNK         0.0600 
    162 H162        5.1457  -18.6182  -46.4124 H         1 UNK         0.0600 
    163 H163        6.0560  -18.4054  -44.9287 H         1 UNK         0.0600 
    164 H164        4.5949  -17.5524  -43.0498 H         1 UNK         0.3000 
    165 H165        2.3248  -18.1326  -40.4059 H         1 UNK         0.0600 
    166 H166        4.3883  -18.1263  -39.0250 H         1 UNK         0.0600 
    167 H167        4.1966  -19.6797  -39.8215 H         1 UNK         0.0600 
    168 H168        5.3684  -18.5206  -40.4378 H         1 UNK         0.0600 
    169 H169        4.4428  -16.2448  -40.7907 H         1 UNK         0.3000 
    170 H170        4.0017  -14.0909  -41.2776 H         1 UNK         0.0600 
    171 H171        4.6169  -14.9587  -43.5330 H         1 UNK         0.0600 
    172 H172        3.0420  -14.4944  -44.1653 H         1 UNK         0.0600 
    173 H173        4.1757  -13.2612  -43.6254 H         1 UNK         0.0600 
    174 H174        1.6902  -13.0472  -42.7230 H         1 UNK         0.3000 
    175 H175       -0.0776  -11.9829  -39.8687 H         1 UNK         0.0600 
    176 H176        1.7831  -10.1475  -41.4731 H         1 UNK         0.0600 
    177 H177        0.3504   -9.6411  -40.5765 H         1 UNK         0.0600 
    178 H178        1.7434  -10.2800  -39.7189 H         1 UNK         0.0600 
    179 H179       -0.0990  -11.1863  -42.6492 H         1 UNK         0.3000 
    180 H180       -1.7620  -13.8963  -43.9710 H         1 UNK         0.0600 
    181 H181       -3.3822  -11.4431  -43.1236 H         1 UNK         0.0600 
    182 H182       -3.7763  -13.1079  -42.7130 H         1 UNK         0.0600 
    183 H183       -3.8134  -12.5939  -44.3899 H         1 UNK         0.0600 
    184 H184       -1.8560  -11.4577  -45.1572 H         1 UNK         0.3000 
    185 H185       -0.5808  -11.0252  -46.8699 H         1 UNK         0.0600 
    186 H186        1.2466   -9.3369  -46.9202 H         1 UNK         0.0600 
    187 H187        0.4548   -9.3265  -45.3526 H         1 UNK         0.0600 
    188 H188        2.0240  -10.1011  -45.5332 H         1 UNK         0.0600 
    189 H189        2.1502  -11.6951  -47.3932 H         1 UNK         0.3000 
    190 H190       -2.3389  -19.7584  -46.1760 H         1 UNK         0.3000 
    191 H191       -4.8261  -20.0042  -47.4710 H         1 UNK         0.0600 
    192 H192       -5.7691  -19.4754  -45.2233 H         1 UNK         0.0600 
    193 H193       -4.3991  -18.4398  -45.5975 H         1 UNK         0.0600 
    194 H194       -4.2065  -19.7857  -44.4774 H         1 UNK         0.0600 
    195 H195       -3.2608  -22.2036  -45.1037 H         1 UNK         0.3000 
    196 H196       -5.3594  -24.1232  -44.9653 H         1 UNK         0.0600 
    197 H197       -2.3474  -24.4654  -44.5103 H         1 UNK         0.0600 
    198 H198       -3.5309  -23.9918  -43.2951 H         1 UNK         0.0600 
    199 H199       -3.5953  -25.5979  -44.0065 H         1 UNK         0.0600 
    200 H200       -2.4654  -23.9301  -47.0965 H         1 UNK         0.3000 
    201 H201       -2.9733  -26.3129  -48.5663 H         1 UNK         0.0600 
    202 H202       -0.7659  -25.1701  -48.5256 H         1 UNK         0.0600 
    203 H203       -1.4377  -23.7933  -49.3953 H         1 UNK         0.0600 
    204 H204       -1.3349  -25.3664  -50.1758 H         1 UNK         0.0600 
    205 H205       -3.9422  -22.9038  -49.1768 H         1 UNK         0.3000 
    206 H206       -5.2450  -23.3633  -51.6422 H         1 UNK         0.0600 
    207 H207       -4.5212  -21.1194  -50.9162 H         1 UNK         0.0600 
    208 H208       -6.2474  -21.1111  -51.2420 H         1 UNK         0.0600 
    209 H209       -5.6707  -21.1477  -49.5789 H         1 UNK         0.0600 
    210 H210       -6.4805  -23.5382  -48.3042 H         1 UNK         0.3000 
    211 H211       -9.2102  -24.0736  -48.9903 H         1 UNK         0.0600 
    212 H212       -9.3517  -24.8674  -46.6293 H         1 UNK         0.0600 
    213 H213       -8.5151  -23.3253  -46.7305 H         1 UNK         0.0600 
    214 H214       -7.5990  -24.8107  -46.4888 H         1 UNK         0.0600 
    215 H215       -6.3293  -26.1351  -48.7359 H         1 UNK         0.3000 
    216 H216       -7.7497  -28.6416  -48.9089 H         1 UNK         0.0600 
    217 H217       -4.7780  -28.0228  -49.3005 H         1 UNK         0.0600 
    218 H218       -5.4904  -29.6188  -49.1335 H         1 UNK         0.0600 
    219 H219       -5.5562  -28.4862  -47.7921 H         1 UNK         0.0600 
    220 H220       -5.6097  -26.9213  -51.2874 H         1 UNK         0.3000 
    221 H221       -7.2353  -27.7268  -53.5495 H         1 UNK         0.0600 
    222 H222       -6.2331  -29.9549  -53.1119 H         1 UNK         0.0600 
    223 H223       -4.6170  -29.2544  -53.0586 H         1 UNK         0.0600 
    224 H224       -5.5211  -29.2946  -54.5667 H         1 UNK         0.0600 
    225 H225       -4.5059  -25.9509  -52.2770 H         1 UNK         0.3000 
    226 H226       -3.3592  -25.3240  -54.8884 H         1 UNK         0.0600 
    227 H227       -2.6488  -24.1262  -52.1679 H         1 UNK         0.0600 
    228 H228       -2.0411  -25.6876  -52.7162 H         1 UNK         0.0600 
    229 H229       -1.6366  -24.2317  -53.5998 H         1 UNK         0.0600 
    230 H230       -2.5941  -22.6270  -54.4018 H         1 UNK         0.3000 
    231 H231       -4.9324  -20.9736  -54.0047 H         1 UNK         0.0600 
    232 H232       -3.4859  -21.0128  -56.7234 H         1 UNK         0.0600 
    233 H233       -4.6714  -19.8128  -56.2220 H         1 UNK         0.0600 
    234 H234       -5.1630  -21.4843  -56.4501 H         1 UNK         0.0600 
    235 H235       -4.2925  -18.7796  -53.6681 H         1 UNK         0.3000 
    236 H236       -1.5167  -18.4427  -52.7161 H         1 UNK         0.0600 
    237 H237       -3.4363  -17.8281  -51.2219 H         1 UNK         0.0600 
    238 H238       -2.4728  -16.4196  -51.6200 H         1 UNK         0.0600 
    239 H239       -4.0159  -16.6770  -52.4270 H         1 UNK         0.0600 
    240 H240       -0.4990  -16.2725  -53.1079 H         1 UNK         0.3000 
    241 H241       -0.4909  -15.6780  -55.9877 H         1 UNK         0.0600 
    242 H242       -2.5704  -12.8187  -54.0978 H         1 UNK         0.3800 
    243 H243       -2.3194  -14.3976  -53.3980 H         1 UNK         0.3800 
    244 H244        1.3624  -14.7511  -53.7463 H         1 UNK         0.0800 
    245 H245        1.5427  -14.3030  -55.4229 H         1 UNK         0.0800 
    246 H246        4.3338  -17.0135  -54.3025 H         1 UNK         0.0800 
    247 H247        3.7862  -15.4283  -53.8253 H         1 UNK         0.0800 
@<TRIPOS>BOND
     1    1    2 1    
     2    1  127 1    
     3    1  128 1    
     4    1  129 1    
     5    2    3 2    
     6    2    4 am   BACKBONE|DICT|INTERRES
     7    4    5 1    
     8    4  130 1    
     9    5    6 1    
    10    5   65 1    
    11    5  131 1    
    12    6    7 1    
    13    6  132 1    
    14    6  133 1    
    15    7    8 1    
    16    8    9 1    
    17    8  134 1    
    18    8  135 1    
    19    9   10 ar   
    20    9   14 ar   
    21   10   11 ar   
    22   10  136 1    
    23   11   12 ar   
    24   11  126 1    
    25   12   13 ar   
    26   12  137 1    
    27   13   14 ar   
    28   13   15 1    
    29   14  138 1    
    30   15   16 1    
    31   15  139 1    
    32   15  140 1    
    33   16   17 1    
    34   17   18 1    
    35   17  141 1    
    36   17  142 1    
    37   18   19 1    
    38   18   67 1    
    39   18  143 1    
    40   19   20 am   BACKBONE|DICT|INTERRES
    41   19  144 1    
    42   20   21 2    
    43   20   22 1    
    44   22   23 1    
    45   22   24 1    
    46   22  145 1    
    47   23  146 1    
    48   23  147 1    
    49   23  148 1    
    50   24   25 am   BACKBONE|DICT|INTERRES
    51   24  149 1    
    52   25   26 2    
    53   25   27 1    
    54   27   28 1    
    55   27   29 1    
    56   27  150 1    
    57   28  151 1    
    58   28  152 1    
    59   28  153 1    
    60   29   30 am   BACKBONE|DICT|INTERRES
    61   29  154 1    
    62   30   31 2    
    63   30   32 1    
    64   32   33 1    
    65   32   34 1    
    66   32  155 1    
    67   33  156 1    
    68   33  157 1    
    69   33  158 1    
    70   34   35 am   BACKBONE|DICT|INTERRES
    71   34  159 1    
    72   35   36 2    
    73   35   37 1    
    74   37   38 1    
    75   37   39 1    
    76   37  160 1    
    77   38  161 1    
    78   38  162 1    
    79   38  163 1    
    80   39   40 am   BACKBONE|DICT|INTERRES
    81   39  164 1    
    82   40   41 2    
    83   40   42 1    
    84   42   43 1    
    85   42   44 1    
    86   42  165 1    
    87   43  166 1    
    88   43  167 1    
    89   43  168 1    
    90   44   45 am   BACKBONE|DICT|INTERRES
    91   44  169 1    
    92   45   46 2    
    93   45   47 1    
    94   47   48 1    
    95   47   49 1    
    96   47  170 1    
    97   48  171 1    
    98   48  172 1    
    99   48  173 1    
   100   49   50 am   BACKBONE|DICT|INTERRES
   101   49  174 1    
   102   50   51 2    
   103   50   52 1    
   104   52   53 1    
   105   52   54 1    
   106   52  175 1    
   107   53  176 1    
   108   53  177 1    
   109   53  178 1    
   110   54   55 am   BACKBONE|DICT|INTERRES
   111   54  179 1    
   112   55   56 2    
   113   55   57 1    
   114   57   58 1    
   115   57   59 1    
   116   57  180 1    
   117   58  181 1    
   118   58  182 1    
   119   58  183 1    
   120   59   60 am   BACKBONE|DICT|INTERRES
   121   59  184 1    
   122   60   61 2    
   123   60   62 1    
   124   62   63 1    
   125   62   64 1    
   126   62  185 1    
   127   63  186 1    
   128   63  187 1    
   129   63  188 1    
   130   64   65 am   BACKBONE|DICT|INTERRES
   131   64  189 1    
   132   65   66 2    
   133   67   68 2    
   134   67   69 am   BACKBONE|DICT|INTERRES
   135   69   70 1    
   136   69  190 1    
   137   70   71 1    
   138   70   72 1    
   139   70  191 1    
   140   71  192 1    
   141   71  193 1    
   142   71  194 1    
   143   72   73 2    
   144   72   74 am   BACKBONE|DICT|INTERRES
   145   74   75 1    
   146   74  195 1    
   147   75   76 1    
   148   75   77 1    
   149   75  196 1    
   150   76  197 1    
   151   76  198 1    
   152   76  199 1    
   153   77   78 2    
   154   77   79 am   BACKBONE|DICT|INTERRES
   155   79   80 1    
   156   79  200 1    
   157   80   81 1    
   158   80   82 1    
   159   80  201 1    
   160   81  202 1    
   161   81  203 1    
   162   81  204 1    
   163   82   83 2    
   164   82   84 am   BACKBONE|DICT|INTERRES
   165   84   85 1    
   166   84  205 1    
   167   85   86 1    
   168   85   87 1    
   169   85  206 1    
   170   86  207 1    
   171   86  208 1    
   172   86  209 1    
   173   87   88 2    
   174   87   89 am   BACKBONE|DICT|INTERRES
   175   89   90 1    
   176   89  210 1    
   177   90   91 1    
   178   90   92 1    
   179   90  211 1    
   180   91  212 1    
   181   91  213 1    
   182   91  214 1    
   183   92   93 2    
   184   92   94 am   BACKBONE|DICT|INTERRES
   185   94   95 1    
   186   94  215 1    
   187   95   96 1    
   188   95   97 1    
   189   95  216 1    
   190   96  217 1    
   191   96  218 1    
   192   96  219 1    
   193   97   98 2    
   194   97   99 am   BACKBONE|DICT|INTERRES
   195   99  100 1    
   196   99  220 1    
   197  100  101 1    
   198  100  102 1    
   199  100  221 1    
   200  101  222 1    
   201  101  223 1    
   202  101  224 1    
   203  102  103 2    
   204  102  104 am   BACKBONE|DICT|INTERRES
   205  104  105 1    
   206  104  225 1    
   207  105  106 1    
   208  105  107 1    
   209  105  226 1    
   210  106  227 1    
   211  106  228 1    
   212  106  229 1    
   213  107  108 2    
   214  107  109 am   BACKBONE|DICT|INTERRES
   215  109  110 1    
   216  109  230 1    
   217  110  111 1    
   218  110  112 1    
   219  110  231 1    
   220  111  232 1    
   221  111  233 1    
   222  111  234 1    
   223  112  113 2    
   224  112  114 am   BACKBONE|DICT|INTERRES
   225  114  115 1    
   226  114  235 1    
   227  115  116 1    
   228  115  117 1    
   229  115  236 1    
   230  116  237 1    
   231  116  238 1    
   232  116  239 1    
   233  117  118 2    
   234  117  119 am   BACKBONE|DICT|INTERRES
   235  119  120 1    
   236  119  240 1    
   237  120  121 1    
   238  120  124 1    
   239  120  241 1    
   240  121  122 am   BACKBONE|DICT|INTERRES
   241  121  123 2    
   242  122  242 1    
   243  122  243 1    
   244  124  125 1    
   245  124  244 1    
   246  124  245 1    
   247  125  126 1    
   248  126  246 1    
   249  126  247 1    
@<TRIPOS>SUBSTRUCTURE
     1 UNK         1 GROUP             0       ****    0 ROOT    
