@<TRIPOS>MOLECULE
3R540
247   249    1
SMALL
USER_CHARGES


@<TRIPOS>ATOM
      1 CA         -1.2777  -12.6128  -45.8592 C.3       0 UNK        -0.1800 
      2 C          -0.1054  -13.4019  -46.4220 C.2       0 UNK         0.5000 
      3 O          -0.1135  -14.6310  -46.3577 O.2       0 UNK        -0.5000 
      4 N           0.8911  -12.7014  -46.9762 N.am      1 UNK        -0.5000 
      5 CA          2.1353  -13.2285  -47.5500 C.3       1 UNK         0.1400 
      6 C6          1.9425  -14.2582  -48.6971 C.3       23 UNK        -0.0398 
      7 S7          1.0070  -13.5760  -50.1074 S.3       23 UNK        -0.2404 
      8 C8          1.8582  -14.3581  -51.5142 C.3       23 UNK        -0.0205 
      9 C9          1.4739  -15.8231  -51.6625 C.ar      23 UNK        -0.0193 
     10 C10         0.4217  -16.1887  -52.5071 C.ar      23 UNK        -0.1150 
     11 C11         0.0659  -17.5320  -52.6587 C.ar      23 UNK        -0.0193 
     12 C12         0.7691  -18.5117  -51.9516 C.ar      23 UNK        -0.1150 
     13 C13         1.8204  -18.1602  -51.1014 C.ar      23 UNK        -0.0193 
     14 C14         2.1735  -16.8148  -50.9679 C.ar      23 UNK        -0.1150 
     15 C15         2.5910  -19.2301  -50.3427 C.3       23 UNK        -0.0205 
     16 S16         2.0048  -19.4153  -48.6289 S.3       23 UNK        -0.2404 
     17 C17         0.4820  -20.3974  -48.8607 C.3       23 UNK        -0.0398 
     18 CA         -0.6565  -19.9657  -47.8995 C.3       11 UNK         0.1400 
     19 N          -1.0142  -18.5495  -47.9985 N.am      11 UNK        -0.5000 
     20 C          -1.5482  -17.9408  -49.0659 C.2       10 UNK         0.5000 
     21 O          -1.8656  -18.5299  -50.0983 O.2       10 UNK        -0.5000 
     22 CA         -1.7738  -16.4216  -48.9291 C.3       10 UNK         0.1400 
     23 CB         -2.6544  -15.8326  -50.0509 C.3       10 UNK        -0.1800 
     24 N          -2.2803  -16.0472  -47.6021 N.am      10 UNK        -0.5000 
     25 C          -3.4433  -16.4240  -47.0457 C.2       9 UNK         0.5000 
     26 O          -4.2682  -17.1427  -47.6075 O.2       9 UNK        -0.5000 
     27 CA         -3.6960  -15.9607  -45.6007 C.3       9 UNK         0.1400 
     28 CB         -4.8596  -16.7073  -44.9167 C.3       9 UNK        -0.1800 
     29 N          -2.4703  -16.1266  -44.8313 N.am      9 UNK        -0.5000 
     30 C          -2.1363  -15.5021  -43.7036 C.2       8 UNK         0.5000 
     31 O          -2.8802  -14.7022  -43.1327 O.2       8 UNK        -0.5000 
     32 CA         -0.7312  -15.8142  -43.1315 C.3       8 UNK         0.1400 
     33 CB         -0.5425  -15.1927  -41.7364 C.3       8 UNK        -0.1800 
     34 N          -0.3917  -17.2413  -43.0475 N.am      8 UNK        -0.5000 
     35 C          -0.2371  -18.1250  -44.0458 C.2       7 UNK         0.5000 
     36 O          -0.3747  -17.8364  -45.2366 O.2       7 UNK        -0.5000 
     37 CA          0.1192  -19.5839  -43.6764 C.3       7 UNK         0.1400 
     38 CB          1.3875  -20.0631  -44.4051 C.3       7 UNK        -0.1800 
     39 N           0.3184  -19.8194  -42.2482 N.am      7 UNK        -0.5000 
     40 C          -0.6182  -19.8717  -41.2925 C.2       6 UNK         0.5000 
     41 O          -1.8253  -19.7859  -41.5139 O.2       6 UNK        -0.5000 
     42 CA         -0.1055  -20.0164  -39.8417 C.3       6 UNK         0.1400 
     43 CB         -0.3269  -21.4507  -39.3376 C.3       6 UNK        -0.1800 
     44 N           1.3169  -19.6734  -39.6949 N.am      6 UNK        -0.5000 
     45 C           1.8247  -18.4416  -39.8487 C.2       5 UNK         0.5000 
     46 O           1.1247  -17.4425  -40.0156 O.2       5 UNK        -0.5000 
     47 CA          3.3596  -18.3390  -39.8772 C.3       5 UNK         0.1400 
     48 CB          3.9349  -19.1228  -41.0715 C.3       5 UNK        -0.1800 
     49 N           3.7920  -16.9490  -40.0128 N.am      5 UNK        -0.5000 
     50 C           4.5049  -16.2691  -39.1063 C.2       4 UNK         0.5000 
     51 O           4.8270  -16.7323  -38.0107 O.2       4 UNK        -0.5000 
     52 CA          4.9795  -14.8482  -39.4786 C.3       4 UNK         0.1400 
     53 CB          6.5026  -14.8317  -39.6883 C.3       4 UNK        -0.1800 
     54 N           4.3448  -14.3078  -40.6814 N.am      4 UNK        -0.5000 
     55 C           3.1366  -13.7333  -40.7142 C.2       3 UNK         0.5000 
     56 O           2.4284  -13.5779  -39.7190 O.2       3 UNK        -0.5000 
     57 CA          2.6327  -13.2371  -42.0853 C.3       3 UNK         0.1400 
     58 CB          2.9013  -11.7325  -42.2393 C.3       3 UNK        -0.1800 
     59 N           3.1786  -13.9297  -43.2575 N.am      3 UNK        -0.5000 
     60 C           3.1308  -15.2437  -43.5155 C.2       2 UNK         0.5000 
     61 O           2.7335  -16.0865  -42.7110 O.2       2 UNK        -0.5000 
     62 CA          3.5880  -15.6648  -44.9260 C.3       2 UNK         0.1400 
     63 CB          3.4762  -17.1784  -45.1673 C.3       2 UNK        -0.1800 
     64 N           2.8102  -14.9755  -45.9559 N.am      2 UNK        -0.5000 
     65 C           3.0701  -13.7571  -46.4440 C.2       1 UNK         0.5000 
     66 O           3.9899  -13.0474  -46.0339 O.2       1 UNK        -0.5000 
     67 C          -1.8825  -20.9022  -47.9466 C.2       11 UNK         0.5000 
     68 O          -1.7814  -22.0285  -48.4322 O.2       11 UNK        -0.5000 
     69 N          -3.0138  -20.4607  -47.3752 N.am      12 UNK        -0.5000 
     70 CA         -4.2308  -21.2654  -47.2089 C.3       12 UNK         0.1400 
     71 CB         -5.3271  -20.4063  -46.5641 C.3       12 UNK        -0.1800 
     72 C          -4.0081  -22.5561  -46.3911 C.2       12 UNK         0.5000 
     73 O          -4.6454  -23.5726  -46.6666 O.2       12 UNK        -0.5000 
     74 N          -3.0657  -22.5046  -45.4391 N.am      13 UNK        -0.5000 
     75 CA         -2.6152  -23.6420  -44.6356 C.3       13 UNK         0.1400 
     76 CB         -1.7108  -23.1241  -43.5056 C.3       13 UNK        -0.1800 
     77 C          -1.8815  -24.7273  -45.4514 C.2       13 UNK         0.5000 
     78 O          -1.8790  -25.8880  -45.0400 O.2       13 UNK        -0.5000 
     79 N          -1.2906  -24.3548  -46.5963 N.am      14 UNK        -0.5000 
     80 CA         -0.5667  -25.2497  -47.4992 C.3       14 UNK         0.1400 
     81 CB          0.5741  -24.4692  -48.1773 C.3       14 UNK        -0.1800 
     82 C          -1.5340  -25.8909  -48.5123 C.2       14 UNK         0.5000 
     83 O          -1.3799  -25.7085  -49.7204 O.2       14 UNK        -0.5000 
     84 N          -2.5313  -26.6171  -47.9880 N.am      15 UNK        -0.5000 
     85 CA         -3.5685  -27.3538  -48.7192 C.3       15 UNK         0.1400 
     86 CB         -2.9533  -28.5656  -49.4509 C.3       15 UNK        -0.1800 
     87 C          -4.4192  -26.4566  -49.6451 C.2       15 UNK         0.5000 
     88 O          -4.7030  -26.8348  -50.7832 O.2       15 UNK        -0.5000 
     89 N          -4.8154  -25.2844  -49.1261 N.am      16 UNK        -0.5000 
     90 CA         -5.6732  -24.2844  -49.7681 C.3       16 UNK         0.1400 
     91 CB         -7.0918  -24.8439  -50.0089 C.3       16 UNK        -0.1800 
     92 C          -5.0593  -23.6486  -51.0313 C.2       16 UNK         0.5000 
     93 O          -5.8006  -23.3041  -51.9538 O.2       16 UNK        -0.5000 
     94 N          -3.7298  -23.4482  -51.0475 N.am      17 UNK        -0.5000 
     95 CA         -2.9847  -22.8195  -52.1515 C.3       17 UNK         0.1400 
     96 CB         -1.4877  -22.7691  -51.8136 C.3       17 UNK        -0.1800 
     97 C          -3.4950  -21.4136  -52.5291 C.2       17 UNK         0.5000 
     98 O          -3.4668  -21.0554  -53.7075 O.2       17 UNK        -0.5000 
     99 N          -4.0397  -20.7020  -51.5318 N.am      18 UNK        -0.5000 
    100 CA        -4.7519  -19.4251  -51.6281 C.3       18 UNK         0.1400 
    101 CB        -5.2328  -19.0411  -50.2207 C.3       18 UNK        -0.1800 
    102 C         -5.9561  -19.4219  -52.5931 C.2       18 UNK         0.5000 
    103 O         -6.3726  -18.3456  -53.0249 O.2       18 UNK        -0.5000 
    104 N         -6.4938  -20.6061  -52.9111 N.am      19 UNK        -0.5000 
    105 CA        -7.5315  -20.8149  -53.9154 C.3       19 UNK         0.1400 
    106 CB        -8.7806  -21.3988  -53.2357 C.3       19 UNK        -0.1800 
    107 C         -7.0316  -21.7509  -55.0280 C.2       19 UNK         0.5000 
    108 O         -7.2418  -21.4573  -56.2049 O.2       19 UNK        -0.5000 
    109 N         -6.3924  -22.8634  -54.6425 N.am      20 UNK        -0.5000 
    110 CA        -6.0478  -23.9737  -55.5290 C.3       20 UNK         0.1400 
    111 CB        -5.7575  -25.2174  -54.6735 C.3       20 UNK        -0.1800 
    112 C         -4.8707  -23.7010  -56.4816 C.2       20 UNK         0.5000 
    113 O         -4.8706  -24.2412  -57.5890 O.2       20 UNK        -0.5000 
    114 N         -3.8844  -22.9098  -56.0402 N.am      21 UNK        -0.5000 
    115 CA        -2.6439  -22.6626  -56.7812 C.3       21 UNK         0.1400 
    116 CB        -1.4431  -22.9837  -55.8761 C.3       21 UNK        -0.1800 
    117 C         -2.5602  -21.2149  -57.2834 C.2       21 UNK         0.5000 
    118 O         -2.1402  -20.9857  -58.4185 O.2       21 UNK        -0.5000 
    119 N         -2.9533  -20.2680  -56.4296 N.am      22 UNK        -0.5000 
    120 CA        -2.8195  -18.8207  -56.6412 C.3       22 UNK         0.1400 
    121 C         -3.9363  -18.0175  -55.9197 C.2       22 UNK         0.5000 
    122 N         -5.1131  -18.5956  -55.7228 N.am      22 UNK        -0.7600 
    123 O         -3.7546  -16.8614  -55.5491 O.2       22 UNK        -0.5000 
    124 C124       -1.3717  -18.3029  -56.3846 C.3       23 UNK        -0.0398 
    125 S125       -0.5287  -19.0090  -54.9224 S.3       23 UNK        -0.2404 
    126 C126       -1.0866  -17.9247  -53.5710 C.3       23 UNK        -0.0205 
    127 H127       -1.2094  -11.5534  -46.1068 H         1 UNK         0.0600 
    128 H128       -1.3067  -12.7082  -44.7740 H         1 UNK         0.0600 
    129 H129       -2.2154  -12.9952  -46.2619 H         1 UNK         0.0600 
    130 H130        0.8233  -11.6934  -46.9838 H         1 UNK         0.3000 
    131 H131        2.6429  -12.3650  -47.9835 H         1 UNK         0.0600 
    132 H132        1.4361  -15.1615  -48.3564 H         1 UNK         0.0800 
    133 H133        2.9222  -14.5798  -49.0524 H         1 UNK         0.0800 
    134 H134        2.9389  -14.2555  -51.4061 H         1 UNK         0.0800 
    135 H135        1.5964  -13.8149  -52.4235 H         1 UNK         0.0800 
    136 H136       -0.1217  -15.4245  -53.0449 H         1 UNK         0.1150 
    137 H137        0.4902  -19.5493  -52.0672 H         1 UNK         0.1150 
    138 H138        2.9939  -16.5443  -50.3193 H         1 UNK         0.1150 
    139 H139        2.5298  -20.1897  -50.8586 H         1 UNK         0.0800 
    140 H140        3.6493  -18.9659  -50.3224 H         1 UNK         0.0800 
    141 H141        0.7527  -21.4396  -48.6916 H         1 UNK         0.0800 
    142 H142        0.1448  -20.3368  -49.8946 H         1 UNK         0.0800 
    143 H143       -0.2770  -20.0914  -46.8881 H         1 UNK         0.0600 
    144 H144       -0.7839  -17.9950  -47.1803 H         1 UNK         0.3000 
    145 H145       -0.7875  -15.9655  -49.0193 H         1 UNK         0.0600 
    146 H146       -2.7678  -14.7548  -49.9369 H         1 UNK         0.0600 
    147 H147       -2.2061  -16.0092  -51.0291 H         1 UNK         0.0600 
    148 H148       -3.6490  -16.2786  -50.0651 H         1 UNK         0.0600 
    149 H149       -1.6318  -15.4974  -47.0426 H         1 UNK         0.3000 
    150 H150       -3.9422  -14.8983  -45.6489 H         1 UNK         0.0600 
    151 H151       -5.7842  -16.6030  -45.4856 H         1 UNK         0.0600 
    152 H152       -5.0520  -16.3150  -43.9183 H         1 UNK         0.0600 
    153 H153       -4.6471  -17.7721  -44.8211 H         1 UNK         0.0600 
    154 H154       -1.7740  -16.7595  -45.2215 H         1 UNK         0.3000 
    155 H155       -0.0075  -15.3478  -43.8011 H         1 UNK         0.0600 
    156 H156       -1.2191  -15.6370  -41.0056 H         1 UNK         0.0600 
    157 H157       -0.7288  -14.1183  -41.7488 H         1 UNK         0.0600 
    158 H158        0.4742  -15.3366  -41.3751 H         1 UNK         0.0600 
    159 H159       -0.2271  -17.5793  -42.1099 H         1 UNK         0.3000 
    160 H160       -0.7198  -20.1946  -44.0136 H         1 UNK         0.0600 
    161 H161        2.2869  -19.6304  -43.9677 H         1 UNK         0.0600 
    162 H162        1.3893  -19.7937  -45.4602 H         1 UNK         0.0600 
    163 H163        1.4830  -21.1475  -44.3492 H         1 UNK         0.0600 
    164 H164        1.2783  -19.8974  -41.9496 H         1 UNK         0.3000 
    165 H165       -0.6893  -19.3366  -39.2175 H         1 UNK         0.0600 
    166 H166       -0.0297  -21.5527  -38.2937 H         1 UNK         0.0600 
    167 H167       -1.3795  -21.7299  -39.4028 H         1 UNK         0.0600 
    168 H168        0.2410  -22.1755  -39.9223 H         1 UNK         0.0600 
    169 H169        1.9476  -20.4468  -39.5386 H         1 UNK         0.3000 
    170 H170        3.7378  -18.7794  -38.9527 H         1 UNK         0.0600 
    171 H171        3.6949  -20.1848  -41.0131 H         1 UNK         0.0600 
    172 H172        3.5499  -18.7461  -42.0199 H         1 UNK         0.0600 
    173 H173        5.0218  -19.0440  -41.1027 H         1 UNK         0.0600 
    174 H174        3.4796  -16.4787  -40.8571 H         1 UNK         0.3000 
    175 H175        4.7486  -14.1969  -38.6329 H         1 UNK         0.0600 
    176 H176        6.8622  -13.8228  -39.8920 H         1 UNK         0.0600 
    177 H177        6.8008  -15.4701  -40.5209 H         1 UNK         0.0600 
    178 H178        7.0255  -15.1867  -38.7992 H         1 UNK         0.0600 
    179 H179        4.8546  -14.4009  -41.5474 H         1 UNK         0.3000 
    180 H180        1.5531  -13.3801  -42.1045 H         1 UNK         0.0600 
    181 H181        2.4501  -11.3419  -43.1518 H         1 UNK         0.0600 
    182 H182        3.9701  -11.5177  -42.2740 H         1 UNK         0.0600 
    183 H183        2.4798  -11.1706  -41.4045 H         1 UNK         0.0600 
    184 H184        3.5354  -13.3356  -43.9975 H         1 UNK         0.3000 
    185 H185        4.6412  -15.3920  -45.0195 H         1 UNK         0.0600 
    186 H186        3.8858  -17.4539  -46.1393 H         1 UNK         0.0600 
    187 H187        4.0234  -17.7431  -44.4116 H         1 UNK         0.0600 
    188 H188        2.4374  -17.5033  -45.1433 H         1 UNK         0.0600 
    189 H189        1.9497  -15.4255  -46.2441 H         1 UNK         0.3000 
    190 H190       -3.0482  -19.5076  -47.0422 H         1 UNK         0.3000 
    191 H191       -4.5669  -21.5586  -48.2046 H         1 UNK         0.0600 
    192 H192       -6.2562  -20.9691  -46.4650 H         1 UNK         0.0600 
    193 H193       -5.5470  -19.5248  -47.1662 H         1 UNK         0.0600 
    194 H194       -5.0397  -20.0697  -45.5677 H         1 UNK         0.0600 
    195 H195       -2.6037  -21.6237  -45.2757 H         1 UNK         0.3000 
    196 H196       -3.4956  -24.1061  -44.1863 H         1 UNK         0.0600 
    197 H197       -0.8005  -22.6671  -43.8950 H         1 UNK         0.0600 
    198 H198       -2.2250  -22.3835  -42.8925 H         1 UNK         0.0600 
    199 H199       -1.4095  -23.9373  -42.8439 H         1 UNK         0.0600 
    200 H200       -1.4243  -23.4101  -46.9362 H         1 UNK         0.3000 
    201 H201       -0.1109  -26.0581  -46.9237 H         1 UNK         0.0600 
    202 H202        1.2115  -23.9768  -47.4429 H         1 UNK         0.0600 
    203 H203        0.1946  -23.7093  -48.8597 H         1 UNK         0.0600 
    204 H204        1.2066  -25.1391  -48.7608 H         1 UNK         0.0600 
    205 H205       -2.5755  -26.6762  -46.9773 H         1 UNK         0.3000 
    206 H206       -4.2548  -27.7424  -47.9655 H         1 UNK         0.0600 
    207 H207       -2.3856  -29.1940  -48.7647 H         1 UNK         0.0600 
    208 H208       -3.7294  -29.1907  -49.8939 H         1 UNK         0.0600 
    209 H209       -2.2841  -28.2566  -50.2545 H         1 UNK         0.0600 
    210 H210       -4.5252  -25.0484  -48.1832 H         1 UNK         0.3000 
    211 H211       -5.7767  -23.4688  -49.0536 H         1 UNK         0.0600 
    212 H212       -7.7735  -24.0561  -50.3320 H         1 UNK         0.0600 
    213 H213       -7.5063  -25.2741  -49.0972 H         1 UNK         0.0600 
    214 H214       -7.0997  -25.6152  -50.7794 H         1 UNK         0.0600 
    215 H215       -3.1788  -23.7733  -50.2642 H         1 UNK         0.3000 
    216 H216       -3.1115  -23.4575  -53.0281 H         1 UNK         0.0600 
    217 H217       -1.2916  -22.1396  -50.9472 H         1 UNK         0.0600 
    218 H218       -0.9120  -22.3591  -52.6439 H         1 UNK         0.0600 
    219 H219       -1.0931  -23.7632  -51.6054 H         1 UNK         0.0600 
    220 H220       -3.9773  -21.0968  -50.6066 H         1 UNK         0.3000 
    221 H221       -4.0419  -18.6735  -51.9769 H         1 UNK         0.0600 
    222 H222       -5.6869  -18.0495  -50.2174 H         1 UNK         0.0600 
    223 H223       -5.9746  -19.7449  -49.8415 H         1 UNK         0.0600 
    224 H224       -4.4068  -19.0166  -49.5123 H         1 UNK         0.0600 
    225 H225       -6.0955  -21.4434  -52.5001 H         1 UNK         0.3000 
    226 H226       -7.8116  -19.8705  -54.3864 H         1 UNK         0.0600 
    227 H227       -8.5640  -22.3418  -52.7318 H         1 UNK         0.0600 
    228 H228       -9.1801  -20.7084  -52.4928 H         1 UNK         0.0600 
    229 H229       -9.5706  -21.5869  -53.9638 H         1 UNK         0.0600 
    230 H230       -6.2488  -23.0332  -53.6489 H         1 UNK         0.3000 
    231 H231       -6.9221  -24.1910  -56.1465 H         1 UNK         0.0600 
    232 H232       -4.8945  -25.0672  -54.0236 H         1 UNK         0.0600 
    233 H233       -5.5488  -26.0850  -55.3007 H         1 UNK         0.0600 
    234 H234       -6.6092  -25.4706  -54.0418 H         1 UNK         0.0600 
    235 H235       -3.9796  -22.4502  -55.1427 H         1 UNK         0.3000 
    236 H236       -2.5773  -23.3144  -57.6547 H         1 UNK         0.0600 
    237 H237       -1.4036  -22.3260  -55.0080 H         1 UNK         0.0600 
    238 H238       -1.4817  -24.0123  -55.5175 H         1 UNK         0.0600 
    239 H239       -0.5046  -22.8618  -56.4183 H         1 UNK         0.0600 
    240 H240       -3.2339  -20.5333  -55.4884 H         1 UNK         0.3000 
    241 H241       -3.0306  -18.6270  -57.6944 H         1 UNK         0.0600 
    242 H242       -5.2967  -19.5230  -56.0704 H         1 UNK         0.3800 
    243 H243       -5.8179  -18.1033  -55.1926 H         1 UNK         0.3800 
    244 H244       -1.3277  -17.2135  -56.3494 H         1 UNK         0.0800 
    245 H245       -0.7585  -18.5756  -57.2443 H         1 UNK         0.0800 
    246 H246       -1.8437  -18.4494  -52.9870 H         1 UNK         0.0800 
    247 H247       -1.5703  -17.0347  -53.9741 H         1 UNK         0.0800 
@<TRIPOS>BOND
     1    1    2 1    
     2    1  127 1    
     3    1  128 1    
     4    1  129 1    
     5    2    3 2    
     6    2    4 am   BACKBONE|DICT|INTERRES
     7    4    5 1    
     8    4  130 1    
     9    5    6 1    
    10    5   65 1    
    11    5  131 1    
    12    6    7 1    
    13    6  132 1    
    14    6  133 1    
    15    7    8 1    
    16    8    9 1    
    17    8  134 1    
    18    8  135 1    
    19    9   10 ar   
    20    9   14 ar   
    21   10   11 ar   
    22   10  136 1    
    23   11   12 ar   
    24   11  126 1    
    25   12   13 ar   
    26   12  137 1    
    27   13   14 ar   
    28   13   15 1    
    29   14  138 1    
    30   15   16 1    
    31   15  139 1    
    32   15  140 1    
    33   16   17 1    
    34   17   18 1    
    35   17  141 1    
    36   17  142 1    
    37   18   19 1    
    38   18   67 1    
    39   18  143 1    
    40   19   20 am   BACKBONE|DICT|INTERRES
    41   19  144 1    
    42   20   21 2    
    43   20   22 1    
    44   22   23 1    
    45   22   24 1    
    46   22  145 1    
    47   23  146 1    
    48   23  147 1    
    49   23  148 1    
    50   24   25 am   BACKBONE|DICT|INTERRES
    51   24  149 1    
    52   25   26 2    
    53   25   27 1    
    54   27   28 1    
    55   27   29 1    
    56   27  150 1    
    57   28  151 1    
    58   28  152 1    
    59   28  153 1    
    60   29   30 am   BACKBONE|DICT|INTERRES
    61   29  154 1    
    62   30   31 2    
    63   30   32 1    
    64   32   33 1    
    65   32   34 1    
    66   32  155 1    
    67   33  156 1    
    68   33  157 1    
    69   33  158 1    
    70   34   35 am   BACKBONE|DICT|INTERRES
    71   34  159 1    
    72   35   36 2    
    73   35   37 1    
    74   37   38 1    
    75   37   39 1    
    76   37  160 1    
    77   38  161 1    
    78   38  162 1    
    79   38  163 1    
    80   39   40 am   BACKBONE|DICT|INTERRES
    81   39  164 1    
    82   40   41 2    
    83   40   42 1    
    84   42   43 1    
    85   42   44 1    
    86   42  165 1    
    87   43  166 1    
    88   43  167 1    
    89   43  168 1    
    90   44   45 am   BACKBONE|DICT|INTERRES
    91   44  169 1    
    92   45   46 2    
    93   45   47 1    
    94   47   48 1    
    95   47   49 1    
    96   47  170 1    
    97   48  171 1    
    98   48  172 1    
    99   48  173 1    
   100   49   50 am   BACKBONE|DICT|INTERRES
   101   49  174 1    
   102   50   51 2    
   103   50   52 1    
   104   52   53 1    
   105   52   54 1    
   106   52  175 1    
   107   53  176 1    
   108   53  177 1    
   109   53  178 1    
   110   54   55 am   BACKBONE|DICT|INTERRES
   111   54  179 1    
   112   55   56 2    
   113   55   57 1    
   114   57   58 1    
   115   57   59 1    
   116   57  180 1    
   117   58  181 1    
   118   58  182 1    
   119   58  183 1    
   120   59   60 am   BACKBONE|DICT|INTERRES
   121   59  184 1    
   122   60   61 2    
   123   60   62 1    
   124   62   63 1    
   125   62   64 1    
   126   62  185 1    
   127   63  186 1    
   128   63  187 1    
   129   63  188 1    
   130   64   65 am   BACKBONE|DICT|INTERRES
   131   64  189 1    
   132   65   66 2    
   133   67   68 2    
   134   67   69 am   BACKBONE|DICT|INTERRES
   135   69   70 1    
   136   69  190 1    
   137   70   71 1    
   138   70   72 1    
   139   70  191 1    
   140   71  192 1    
   141   71  193 1    
   142   71  194 1    
   143   72   73 2    
   144   72   74 am   BACKBONE|DICT|INTERRES
   145   74   75 1    
   146   74  195 1    
   147   75   76 1    
   148   75   77 1    
   149   75  196 1    
   150   76  197 1    
   151   76  198 1    
   152   76  199 1    
   153   77   78 2    
   154   77   79 am   BACKBONE|DICT|INTERRES
   155   79   80 1    
   156   79  200 1    
   157   80   81 1    
   158   80   82 1    
   159   80  201 1    
   160   81  202 1    
   161   81  203 1    
   162   81  204 1    
   163   82   83 2    
   164   82   84 am   BACKBONE|DICT|INTERRES
   165   84   85 1    
   166   84  205 1    
   167   85   86 1    
   168   85   87 1    
   169   85  206 1    
   170   86  207 1    
   171   86  208 1    
   172   86  209 1    
   173   87   88 2    
   174   87   89 am   BACKBONE|DICT|INTERRES
   175   89   90 1    
   176   89  210 1    
   177   90   91 1    
   178   90   92 1    
   179   90  211 1    
   180   91  212 1    
   181   91  213 1    
   182   91  214 1    
   183   92   93 2    
   184   92   94 am   BACKBONE|DICT|INTERRES
   185   94   95 1    
   186   94  215 1    
   187   95   96 1    
   188   95   97 1    
   189   95  216 1    
   190   96  217 1    
   191   96  218 1    
   192   96  219 1    
   193   97   98 2    
   194   97   99 am   BACKBONE|DICT|INTERRES
   195   99  100 1    
   196   99  220 1    
   197  100  101 1    
   198  100  102 1    
   199  100  221 1    
   200  101  222 1    
   201  101  223 1    
   202  101  224 1    
   203  102  103 2    
   204  102  104 am   BACKBONE|DICT|INTERRES
   205  104  105 1    
   206  104  225 1    
   207  105  106 1    
   208  105  107 1    
   209  105  226 1    
   210  106  227 1    
   211  106  228 1    
   212  106  229 1    
   213  107  108 2    
   214  107  109 am   BACKBONE|DICT|INTERRES
   215  109  110 1    
   216  109  230 1    
   217  110  111 1    
   218  110  112 1    
   219  110  231 1    
   220  111  232 1    
   221  111  233 1    
   222  111  234 1    
   223  112  113 2    
   224  112  114 am   BACKBONE|DICT|INTERRES
   225  114  115 1    
   226  114  235 1    
   227  115  116 1    
   228  115  117 1    
   229  115  236 1    
   230  116  237 1    
   231  116  238 1    
   232  116  239 1    
   233  117  118 2    
   234  117  119 am   BACKBONE|DICT|INTERRES
   235  119  120 1    
   236  119  240 1    
   237  120  121 1    
   238  120  124 1    
   239  120  241 1    
   240  121  122 am   BACKBONE|DICT|INTERRES
   241  121  123 2    
   242  122  242 1    
   243  122  243 1    
   244  124  125 1    
   245  124  244 1    
   246  124  245 1    
   247  125  126 1    
   248  126  246 1    
   249  126  247 1    
@<TRIPOS>SUBSTRUCTURE
     1 UNK         1 GROUP             0       ****    0 ROOT    
