@<TRIPOS>MOLECULE
3R540
247   249    1
SMALL
USER_CHARGES


@<TRIPOS>ATOM
      1 CA          6.2843  -15.9904  -43.7056 C.3       0 UNK        -0.1800 
      2 C           5.2921  -15.3492  -42.7453 C.2       0 UNK         0.5000 
      3 O           5.4480  -15.4803  -41.5309 O.2       0 UNK        -0.5000 
      4 N           4.2804  -14.6609  -43.2813 N.am      1 UNK        -0.5000 
      5 CA          3.2559  -13.9352  -42.5249 C.3       1 UNK         0.1400 
      6 C6          1.9537  -14.7611  -42.3469 C.3       23 UNK        -0.0398 
      7 S7          1.1283  -15.2264  -43.9073 S.3       23 UNK        -0.2404 
      8 C8         -0.0365  -16.4869  -43.2836 C.3       23 UNK        -0.0205 
      9 C9         -0.7129  -17.3637  -44.3389 C.ar      23 UNK        -0.0193 
     10 C10        -0.5209  -17.1978  -45.7168 C.ar      23 UNK        -0.1150 
     11 C11        -1.1425  -18.0491  -46.6347 C.ar      23 UNK        -0.0193 
     12 C12        -1.9434  -19.0945  -46.1708 C.ar      23 UNK        -0.1150 
     13 C13        -2.1511  -19.2722  -44.8008 C.ar      23 UNK        -0.0193 
     14 C14        -1.5449  -18.3959  -43.8958 C.ar      23 UNK        -0.1150 
     15 C15        -3.0163  -20.4225  -44.3019 C.3       23 UNK        -0.0205 
     16 S16        -2.1385  -21.5510  -43.1632 S.3       23 UNK        -0.2404 
     17 C17        -0.5810  -21.8956  -44.0522 C.3       23 UNK        -0.0398 
     18 CA         -0.7556  -22.8671  -45.2431 C.3       11 UNK         0.1400 
     19 N           0.2002  -22.5832  -46.3185 N.am      11 UNK        -0.5000 
     20 C           0.1414  -23.0924  -47.5581 C.2       10 UNK         0.5000 
     21 O          -0.7464  -23.8643  -47.9244 O.2       10 UNK        -0.5000 
     22 CA          1.2593  -22.7065  -48.5453 C.3       10 UNK         0.1400 
     23 CB          0.7310  -21.7215  -49.5981 C.3       10 UNK        -0.1800 
     24 N           2.4286  -22.1258  -47.8815 N.am      10 UNK        -0.5000 
     25 C           3.3447  -22.8393  -47.2082 C.2       9 UNK         0.5000 
     26 O           3.3051  -24.0657  -47.1060 O.2       9 UNK        -0.5000 
     27 CA          4.4705  -22.0598  -46.4959 C.3       9 UNK         0.1400 
     28 CB          5.7061  -21.9559  -47.4021 C.3       9 UNK        -0.1800 
     29 N           4.0778  -20.7146  -46.0702 N.am      9 UNK        -0.5000 
     30 C           3.0949  -20.4382  -45.2019 C.2       8 UNK         0.5000 
     31 O           2.4564  -21.3057  -44.6074 O.2       8 UNK        -0.5000 
     32 CA          2.7250  -18.9550  -44.9978 C.3       8 UNK         0.1400 
     33 CB          3.4019  -18.4165  -43.7308 C.3       8 UNK        -0.1800 
     34 N           3.0429  -18.0711  -46.1275 N.am      8 UNK        -0.5000 
     35 C           2.6352  -18.2320  -47.3933 C.2       7 UNK         0.5000 
     36 O           1.9688  -19.1965  -47.7719 O.2       7 UNK        -0.5000 
     37 CA          3.0688  -17.1503  -48.4022 C.3       7 UNK         0.1400 
     38 CB          2.6567  -17.4927  -49.8463 C.3       7 UNK        -0.1800 
     39 N           2.5590  -15.8182  -48.0778 N.am      7 UNK        -0.5000 
     40 C           3.0359  -14.9866  -47.1462 C.2       6 UNK         0.5000 
     41 O           3.8906  -15.3064  -46.3177 O.2       6 UNK        -0.5000 
     42 CA          2.5083  -13.5393  -47.1675 C.3       6 UNK         0.1400 
     43 CB          3.0467  -12.7769  -48.3929 C.3       6 UNK        -0.1800 
     44 N           1.0546  -13.3827  -47.0530 N.am      6 UNK        -0.5000 
     45 C           0.0810  -13.7805  -47.8836 C.2       5 UNK         0.5000 
     46 O           0.2773  -14.4401  -48.9035 O.2       5 UNK        -0.5000 
     47 CA         -1.3468  -13.3175  -47.5474 C.3       5 UNK         0.1400 
     48 CB         -1.9602  -14.1384  -46.4038 C.3       5 UNK        -0.1800 
     49 N          -1.3643  -11.9003  -47.1835 N.am      5 UNK        -0.5000 
     50 C          -2.2074  -10.9900  -47.6904 C.2       4 UNK         0.5000 
     51 O          -3.0932  -11.2560  -48.5041 O.2       4 UNK        -0.5000 
     52 CA         -2.0474   -9.5289  -47.2161 C.3       4 UNK         0.1400 
     53 CB         -3.0774   -9.2055  -46.1227 C.3       4 UNK        -0.1800 
     54 N          -0.7111   -9.2166  -46.7084 N.am      4 UNK        -0.5000 
     55 C           0.4107   -9.2097  -47.4398 C.2       3 UNK         0.5000 
     56 O           0.4267   -9.3648  -48.6613 O.2       3 UNK        -0.5000 
     57 CA          1.7445   -9.0185  -46.6883 C.3       3 UNK         0.1400 
     58 CB          2.2894   -7.6012  -46.9248 C.3       3 UNK        -0.1800 
     59 N           1.7206   -9.2750  -45.2416 N.am      3 UNK        -0.5000 
     60 C           1.3423  -10.4063  -44.6312 C.2       2 UNK         0.5000 
     61 O           0.7754  -11.3446  -45.1959 O.2       2 UNK        -0.5000 
     62 CA          1.6167  -10.4843  -43.1190 C.3       2 UNK         0.1400 
     63 CB          0.3749  -10.0372  -42.3331 C.3       2 UNK        -0.1800 
     64 N           1.9939  -11.8307  -42.6832 N.am      2 UNK        -0.5000 
     65 C           3.0484  -12.5300  -43.1289 C.2       1 UNK         0.5000 
     66 O           3.8578  -12.0899  -43.9509 O.2       1 UNK        -0.5000 
     67 C          -0.7222  -24.3431  -44.7912 C.2       11 UNK         0.5000 
     68 O          -1.7409  -24.8559  -44.3296 O.2       11 UNK        -0.5000 
     69 N           0.4102  -25.0288  -45.0124 N.am      12 UNK        -0.5000 
     70 CA          0.5721  -26.4730  -44.8177 C.3       12 UNK         0.1400 
     71 CB          2.0469  -26.8407  -45.0386 C.3       12 UNK        -0.1800 
     72 C          -0.3390  -27.3238  -45.7297 C.2       12 UNK         0.5000 
     73 O          -0.6815  -28.4477  -45.3620 O.2       12 UNK        -0.5000 
     74 N          -0.7339  -26.7624  -46.8806 N.am      13 UNK        -0.5000 
     75 CA         -1.6997  -27.3305  -47.8211 C.3       13 UNK         0.1400 
     76 CB         -1.0901  -27.2663  -49.2327 C.3       13 UNK        -0.1800 
     77 C          -3.0468  -26.5797  -47.7741 C.2       13 UNK         0.5000 
     78 O          -3.8897  -26.8074  -48.6426 O.2       13 UNK        -0.5000 
     79 N          -3.2176  -25.6652  -46.8052 N.am      14 UNK        -0.5000 
     80 CA         -4.3507  -24.7480  -46.6360 C.3       14 UNK         0.1400 
     81 CB         -5.6098  -25.5241  -46.1979 C.3       14 UNK        -0.1800 
     82 C          -4.5910  -23.8623  -47.8779 C.2       14 UNK         0.5000 
     83 O          -5.7366  -23.6779  -48.2889 O.2       14 UNK        -0.5000 
     84 N          -3.4972  -23.3759  -48.4866 N.am      15 UNK        -0.5000 
     85 CA         -3.4544  -22.6381  -49.7553 C.3       15 UNK         0.1400 
     86 CB         -4.1185  -21.2531  -49.6167 C.3       15 UNK        -0.1800 
     87 C          -4.0083  -23.4724  -50.9301 C.2       15 UNK         0.5000 
     88 O          -4.7756  -22.9633  -51.7511 O.2       15 UNK        -0.5000 
     89 N          -3.6202  -24.7571  -50.9491 N.am      16 UNK        -0.5000 
     90 CA         -4.0835  -25.8267  -51.8391 C.3       16 UNK         0.1400 
     91 CB         -3.6329  -25.5680  -53.2910 C.3       16 UNK        -0.1800 
     92 C          -5.6023  -26.0503  -51.7066 C.2       16 UNK         0.5000 
     93 O          -6.3189  -26.0333  -52.7061 O.2       16 UNK        -0.5000 
     94 N          -6.0715  -26.1873  -50.4573 N.am      17 UNK        -0.5000 
     95 CA         -7.4834  -26.2304  -50.0503 C.3       17 UNK         0.1400 
     96 CB         -8.1251  -27.5694  -50.4671 C.3       17 UNK        -0.1800 
     97 C          -8.2724  -24.9972  -50.5493 C.2       17 UNK         0.5000 
     98 O          -9.3768  -25.1289  -51.0793 O.2       17 UNK        -0.5000 
     99 N          -7.6420  -23.8239  -50.4046 N.am      18 UNK        -0.5000 
    100 CA        -8.0495  -22.4941  -50.8635 C.3       18 UNK         0.1400 
    101 CB        -9.3572  -22.0539  -50.1747 C.3       18 UNK        -0.1800 
    102 C         -8.1080  -22.3106  -52.3973 C.2       18 UNK         0.5000 
    103 O         -8.5541  -21.2531  -52.8449 O.2       18 UNK        -0.5000 
    104 N         -7.6532  -23.2954  -53.1879 N.am      19 UNK        -0.5000 
    105 CA        -7.6659  -23.2294  -54.6515 C.3       19 UNK         0.1400 
    106 CB        -7.5782  -24.6424  -55.2463 C.3       19 UNK        -0.1800 
    107 C         -6.5475  -22.3397  -55.2214 C.2       19 UNK         0.5000 
    108 O         -6.7585  -21.7076  -56.2575 O.2       19 UNK        -0.5000 
    109 N         -5.3874  -22.2969  -54.5492 N.am      20 UNK        -0.5000 
    110 CA        -4.2671  -21.4327  -54.9290 C.3       20 UNK         0.1400 
    111 CB        -2.9380  -22.0550  -54.4729 C.3       20 UNK        -0.1800 
    112 C         -4.4262  -20.0177  -54.3516 C.2       20 UNK         0.5000 
    113 O         -3.9435  -19.0627  -54.9609 O.2       20 UNK        -0.5000 
    114 N         -5.0891  -19.9125  -53.1877 N.am      21 UNK        -0.5000 
    115 CA        -5.4448  -18.6765  -52.4759 C.3       21 UNK         0.1400 
    116 CB        -6.5866  -17.9543  -53.2193 C.3       21 UNK        -0.1800 
    117 C         -4.2350  -17.7555  -52.1954 C.2       21 UNK         0.5000 
    118 O         -4.3440  -16.5336  -52.3100 O.2       21 UNK        -0.5000 
    119 N         -3.0973  -18.3804  -51.8632 N.am      22 UNK        -0.5000 
    120 CA        -1.7752  -17.7636  -51.6539 C.3       22 UNK         0.1400 
    121 C         -1.0690  -17.2762  -52.9575 C.2       22 UNK         0.5000 
    122 N         -1.5804  -17.5546  -54.1510 N.am      22 UNK        -0.7600 
    123 O         -0.0089  -16.6605  -52.8919 O.2       22 UNK        -0.5000 
    124 C124       -1.7497  -16.6760  -50.5421 C.3       23 UNK        -0.0398 
    125 S125       -2.4359  -17.2284  -48.9426 S.3       23 UNK        -0.2404 
    126 C126       -0.9338  -17.8443  -48.1261 C.3       23 UNK        -0.0205 
    127 H127        5.9247  -15.9718  -44.7340 H         1 UNK         0.0600 
    128 H128        6.4617  -17.0293  -43.4283 H         1 UNK         0.0600 
    129 H129        7.2362  -15.4611  -43.6676 H         1 UNK         0.0600 
    130 H130        4.2083  -14.5754  -44.2894 H         1 UNK         0.3000 
    131 H131        3.6411  -13.7344  -41.5231 H         1 UNK         0.0600 
    132 H132        2.1996  -15.6755  -41.8054 H         1 UNK         0.0800 
    133 H133        1.2367  -14.2386  -41.7128 H         1 UNK         0.0800 
    134 H134        0.4998  -17.1449  -42.5984 H         1 UNK         0.0800 
    135 H135       -0.8066  -15.9844  -42.6970 H         1 UNK         0.0800 
    136 H136        0.1133  -16.4086  -46.0908 H         1 UNK         0.1150 
    137 H137       -2.4089  -19.7627  -46.8812 H         1 UNK         0.1150 
    138 H138       -1.7015  -18.5385  -42.8355 H         1 UNK         0.1150 
    139 H139       -3.8853  -20.0110  -43.7870 H         1 UNK         0.0800 
    140 H140       -3.4072  -21.0021  -45.1394 H         1 UNK         0.0800 
    141 H141        0.1538  -22.2727  -43.3383 H         1 UNK         0.0800 
    142 H142       -0.1717  -20.9451  -44.3927 H         1 UNK         0.0800 
    143 H143       -1.7428  -22.6994  -45.6778 H         1 UNK         0.0600 
    144 H144        0.9821  -21.9882  -46.0742 H         1 UNK         0.3000 
    145 H145        1.5694  -23.6172  -49.0619 H         1 UNK         0.0600 
    146 H146        1.5230  -21.4026  -50.2759 H         1 UNK         0.0600 
    147 H147       -0.0481  -22.1817  -50.2057 H         1 UNK         0.0600 
    148 H148        0.3064  -20.8306  -49.1370 H         1 UNK         0.0600 
    149 H149        2.4866  -21.1113  -47.8834 H         1 UNK         0.3000 
    150 H150        4.7454  -22.6244  -45.6026 H         1 UNK         0.0600 
    151 H151        6.0426  -22.9441  -47.7187 H         1 UNK         0.0600 
    152 H152        6.5389  -21.4821  -46.8820 H         1 UNK         0.0600 
    153 H153        5.4971  -21.3761  -48.3021 H         1 UNK         0.0600 
    154 H154        4.5474  -19.9414  -46.5170 H         1 UNK         0.3000 
    155 H155        1.6449  -18.9156  -44.8522 H         1 UNK         0.0600 
    156 H156        3.1243  -19.0074  -42.8570 H         1 UNK         0.0600 
    157 H157        3.1069  -17.3882  -43.5313 H         1 UNK         0.0600 
    158 H158        4.4881  -18.4450  -43.8161 H         1 UNK         0.0600 
    159 H159        3.5454  -17.2158  -45.9120 H         1 UNK         0.3000 
    160 H160        4.1597  -17.1135  -48.3745 H         1 UNK         0.0600 
    161 H161        1.5734  -17.5291  -49.9630 H         1 UNK         0.0600 
    162 H162        3.0515  -18.4637  -50.1480 H         1 UNK         0.0600 
    163 H163        3.0415  -16.7553  -50.5510 H         1 UNK         0.0600 
    164 H164        1.7995  -15.4641  -48.6547 H         1 UNK         0.3000 
    165 H165        2.9166  -13.0507  -46.2827 H         1 UNK         0.0600 
    166 H166        2.7440  -11.7308  -48.3709 H         1 UNK         0.0600 
    167 H167        4.1368  -12.8004  -48.4177 H         1 UNK         0.0600 
    168 H168        2.6897  -13.2046  -49.3302 H         1 UNK         0.0600 
    169 H169        0.7831  -12.8365  -46.2390 H         1 UNK         0.3000 
    170 H170       -1.9506  -13.4844  -48.4420 H         1 UNK         0.0600 
    171 H171       -2.0746  -15.1804  -46.6973 H         1 UNK         0.0600 
    172 H172       -1.3463  -14.1069  -45.5030 H         1 UNK         0.0600 
    173 H173       -2.9531  -13.7715  -46.1442 H         1 UNK         0.0600 
    174 H174       -0.6530  -11.5895  -46.5291 H         1 UNK         0.3000 
    175 H175       -2.2422   -8.8822  -48.0741 H         1 UNK         0.0600 
    176 H176       -2.9182   -9.8110  -45.2294 H         1 UNK         0.0600 
    177 H177       -3.0287   -8.1561  -45.8316 H         1 UNK         0.0600 
    178 H178       -4.0927   -9.3974  -46.4726 H         1 UNK         0.0600 
    179 H179       -0.6247   -9.0865  -45.7114 H         1 UNK         0.3000 
    180 H180        2.4520   -9.7270  -47.1217 H         1 UNK         0.0600 
    181 H181        1.6459   -6.8444  -46.4744 H         1 UNK         0.0600 
    182 H182        2.3603   -7.3794  -47.9907 H         1 UNK         0.0600 
    183 H183        3.2893   -7.4863  -46.5060 H         1 UNK         0.0600 
    184 H184        2.1375   -8.5517  -44.6734 H         1 UNK         0.3000 
    185 H185        2.4451   -9.8153  -42.8773 H         1 UNK         0.0600 
    186 H186        0.0795   -9.0240  -42.6088 H         1 UNK         0.0600 
    187 H187       -0.4777  -10.6907  -42.5237 H         1 UNK         0.0600 
    188 H188        0.5649  -10.0369  -41.2596 H         1 UNK         0.0600 
    189 H189        1.3672  -12.2657  -42.0235 H         1 UNK         0.3000 
    190 H190        1.2001  -24.5386  -45.4090 H         1 UNK         0.3000 
    191 H191        0.3100  -26.7034  -43.7831 H         1 UNK         0.0600 
    192 H192        2.3697  -26.6128  -46.0555 H         1 UNK         0.0600 
    193 H193        2.6967  -26.2984  -44.3516 H         1 UNK         0.0600 
    194 H194        2.2142  -27.9055  -44.8713 H         1 UNK         0.0600 
    195 H195       -0.4170  -25.8254  -47.0990 H         1 UNK         0.3000 
    196 H196       -1.9041  -28.3756  -47.5813 H         1 UNK         0.0600 
    197 H197       -0.1385  -27.7966  -49.2731 H         1 UNK         0.0600 
    198 H198       -0.9124  -26.2377  -49.5490 H         1 UNK         0.0600 
    199 H199       -1.7473  -27.7305  -49.9690 H         1 UNK         0.0600 
    200 H200       -2.4903  -25.5745  -46.1059 H         1 UNK         0.3000 
    201 H201       -4.0828  -24.0683  -45.8260 H         1 UNK         0.0600 
    202 H202       -6.4316  -24.8436  -45.9723 H         1 UNK         0.0600 
    203 H203       -5.4170  -26.1072  -45.2974 H         1 UNK         0.0600 
    204 H204       -5.9550  -26.2095  -46.9720 H         1 UNK         0.0600 
    205 H205       -2.5854  -23.6186  -48.1059 H         1 UNK         0.3000 
    206 H206       -2.4008  -22.4717  -49.9785 H         1 UNK         0.0600 
    207 H207       -3.6503  -20.6702  -48.8239 H         1 UNK         0.0600 
    208 H208       -5.1820  -21.3276  -49.3929 H         1 UNK         0.0600 
    209 H209       -4.0192  -20.6820  -50.5376 H         1 UNK         0.0600 
    210 H210       -3.0327  -25.0675  -50.1891 H         1 UNK         0.3000 
    211 H211       -3.6031  -26.7459  -51.5015 H         1 UNK         0.0600 
    212 H212       -2.5598  -25.3856  -53.3464 H         1 UNK         0.0600 
    213 H213       -3.8509  -26.4291  -53.9235 H         1 UNK         0.0600 
    214 H214       -4.1432  -24.7105  -53.7269 H         1 UNK         0.0600 
    215 H215       -5.3896  -26.2240  -49.7038 H         1 UNK         0.3000 
    216 H216       -7.4939  -26.1807  -48.9608 H         1 UNK         0.0600 
    217 H217       -9.1391  -27.6552  -50.0752 H         1 UNK         0.0600 
    218 H218       -8.1833  -27.6710  -51.5512 H         1 UNK         0.0600 
    219 H219       -7.5557  -28.4149  -50.0812 H         1 UNK         0.0600 
    220 H220       -6.7632  -23.8377  -49.8930 H         1 UNK         0.3000 
    221 H221       -7.2628  -21.8206  -50.5229 H         1 UNK         0.0600 
    222 H222      -10.2120  -22.6380  -50.5161 H         1 UNK         0.0600 
    223 H223       -9.2872  -22.1605  -49.0922 H         1 UNK         0.0600 
    224 H224       -9.5765  -21.0058  -50.3813 H         1 UNK         0.0600 
    225 H225       -7.2774  -24.1400  -52.7715 H         1 UNK         0.3000 
    226 H226       -8.6216  -22.8024  -54.9635 H         1 UNK         0.0600 
    227 H227       -8.3206  -25.3076  -54.8049 H         1 UNK         0.0600 
    228 H228       -7.7576  -24.6202  -56.3218 H         1 UNK         0.0600 
    229 H229       -6.5935  -25.0847  -55.0936 H         1 UNK         0.0600 
    230 H230       -5.2982  -22.8056  -53.6747 H         1 UNK         0.3000 
    231 H231       -4.2312  -21.3443  -56.0170 H         1 UNK         0.0600 
    232 H232       -2.0946  -21.4403  -54.7901 H         1 UNK         0.0600 
    233 H233       -2.7961  -23.0441  -54.9076 H         1 UNK         0.0600 
    234 H234       -2.8787  -22.1494  -53.3895 H         1 UNK         0.0600 
    235 H235       -5.4145  -20.7721  -52.7669 H         1 UNK         0.3000 
    236 H236       -5.8274  -18.9808  -51.5006 H         1 UNK         0.0600 
    237 H237       -7.4352  -18.6201  -53.3775 H         1 UNK         0.0600 
    238 H238       -6.9492  -17.0989  -52.6481 H         1 UNK         0.0600 
    239 H239       -6.2635  -17.5867  -54.1938 H         1 UNK         0.0600 
    240 H240       -3.1121  -19.3877  -51.8285 H         1 UNK         0.3000 
    241 H241       -1.1441  -18.5805  -51.3022 H         1 UNK         0.0600 
    242 H242       -1.0948  -17.2372  -54.9746 H         1 UNK         0.3800 
    243 H243       -2.4569  -18.0564  -54.2568 H         1 UNK         0.3800 
    244 H244       -0.7287  -16.3303  -50.3806 H         1 UNK         0.0800 
    245 H245       -2.3050  -15.7925  -50.8583 H         1 UNK         0.0800 
    246 H246       -0.1196  -17.1392  -48.2904 H         1 UNK         0.0800 
    247 H247       -0.6313  -18.7834  -48.5879 H         1 UNK         0.0800 
@<TRIPOS>BOND
     1    1    2 1    
     2    1  127 1    
     3    1  128 1    
     4    1  129 1    
     5    2    3 2    
     6    2    4 am   BACKBONE|DICT|INTERRES
     7    4    5 1    
     8    4  130 1    
     9    5    6 1    
    10    5   65 1    
    11    5  131 1    
    12    6    7 1    
    13    6  132 1    
    14    6  133 1    
    15    7    8 1    
    16    8    9 1    
    17    8  134 1    
    18    8  135 1    
    19    9   10 ar   
    20    9   14 ar   
    21   10   11 ar   
    22   10  136 1    
    23   11   12 ar   
    24   11  126 1    
    25   12   13 ar   
    26   12  137 1    
    27   13   14 ar   
    28   13   15 1    
    29   14  138 1    
    30   15   16 1    
    31   15  139 1    
    32   15  140 1    
    33   16   17 1    
    34   17   18 1    
    35   17  141 1    
    36   17  142 1    
    37   18   19 1    
    38   18   67 1    
    39   18  143 1    
    40   19   20 am   BACKBONE|DICT|INTERRES
    41   19  144 1    
    42   20   21 2    
    43   20   22 1    
    44   22   23 1    
    45   22   24 1    
    46   22  145 1    
    47   23  146 1    
    48   23  147 1    
    49   23  148 1    
    50   24   25 am   BACKBONE|DICT|INTERRES
    51   24  149 1    
    52   25   26 2    
    53   25   27 1    
    54   27   28 1    
    55   27   29 1    
    56   27  150 1    
    57   28  151 1    
    58   28  152 1    
    59   28  153 1    
    60   29   30 am   BACKBONE|DICT|INTERRES
    61   29  154 1    
    62   30   31 2    
    63   30   32 1    
    64   32   33 1    
    65   32   34 1    
    66   32  155 1    
    67   33  156 1    
    68   33  157 1    
    69   33  158 1    
    70   34   35 am   BACKBONE|DICT|INTERRES
    71   34  159 1    
    72   35   36 2    
    73   35   37 1    
    74   37   38 1    
    75   37   39 1    
    76   37  160 1    
    77   38  161 1    
    78   38  162 1    
    79   38  163 1    
    80   39   40 am   BACKBONE|DICT|INTERRES
    81   39  164 1    
    82   40   41 2    
    83   40   42 1    
    84   42   43 1    
    85   42   44 1    
    86   42  165 1    
    87   43  166 1    
    88   43  167 1    
    89   43  168 1    
    90   44   45 am   BACKBONE|DICT|INTERRES
    91   44  169 1    
    92   45   46 2    
    93   45   47 1    
    94   47   48 1    
    95   47   49 1    
    96   47  170 1    
    97   48  171 1    
    98   48  172 1    
    99   48  173 1    
   100   49   50 am   BACKBONE|DICT|INTERRES
   101   49  174 1    
   102   50   51 2    
   103   50   52 1    
   104   52   53 1    
   105   52   54 1    
   106   52  175 1    
   107   53  176 1    
   108   53  177 1    
   109   53  178 1    
   110   54   55 am   BACKBONE|DICT|INTERRES
   111   54  179 1    
   112   55   56 2    
   113   55   57 1    
   114   57   58 1    
   115   57   59 1    
   116   57  180 1    
   117   58  181 1    
   118   58  182 1    
   119   58  183 1    
   120   59   60 am   BACKBONE|DICT|INTERRES
   121   59  184 1    
   122   60   61 2    
   123   60   62 1    
   124   62   63 1    
   125   62   64 1    
   126   62  185 1    
   127   63  186 1    
   128   63  187 1    
   129   63  188 1    
   130   64   65 am   BACKBONE|DICT|INTERRES
   131   64  189 1    
   132   65   66 2    
   133   67   68 2    
   134   67   69 am   BACKBONE|DICT|INTERRES
   135   69   70 1    
   136   69  190 1    
   137   70   71 1    
   138   70   72 1    
   139   70  191 1    
   140   71  192 1    
   141   71  193 1    
   142   71  194 1    
   143   72   73 2    
   144   72   74 am   BACKBONE|DICT|INTERRES
   145   74   75 1    
   146   74  195 1    
   147   75   76 1    
   148   75   77 1    
   149   75  196 1    
   150   76  197 1    
   151   76  198 1    
   152   76  199 1    
   153   77   78 2    
   154   77   79 am   BACKBONE|DICT|INTERRES
   155   79   80 1    
   156   79  200 1    
   157   80   81 1    
   158   80   82 1    
   159   80  201 1    
   160   81  202 1    
   161   81  203 1    
   162   81  204 1    
   163   82   83 2    
   164   82   84 am   BACKBONE|DICT|INTERRES
   165   84   85 1    
   166   84  205 1    
   167   85   86 1    
   168   85   87 1    
   169   85  206 1    
   170   86  207 1    
   171   86  208 1    
   172   86  209 1    
   173   87   88 2    
   174   87   89 am   BACKBONE|DICT|INTERRES
   175   89   90 1    
   176   89  210 1    
   177   90   91 1    
   178   90   92 1    
   179   90  211 1    
   180   91  212 1    
   181   91  213 1    
   182   91  214 1    
   183   92   93 2    
   184   92   94 am   BACKBONE|DICT|INTERRES
   185   94   95 1    
   186   94  215 1    
   187   95   96 1    
   188   95   97 1    
   189   95  216 1    
   190   96  217 1    
   191   96  218 1    
   192   96  219 1    
   193   97   98 2    
   194   97   99 am   BACKBONE|DICT|INTERRES
   195   99  100 1    
   196   99  220 1    
   197  100  101 1    
   198  100  102 1    
   199  100  221 1    
   200  101  222 1    
   201  101  223 1    
   202  101  224 1    
   203  102  103 2    
   204  102  104 am   BACKBONE|DICT|INTERRES
   205  104  105 1    
   206  104  225 1    
   207  105  106 1    
   208  105  107 1    
   209  105  226 1    
   210  106  227 1    
   211  106  228 1    
   212  106  229 1    
   213  107  108 2    
   214  107  109 am   BACKBONE|DICT|INTERRES
   215  109  110 1    
   216  109  230 1    
   217  110  111 1    
   218  110  112 1    
   219  110  231 1    
   220  111  232 1    
   221  111  233 1    
   222  111  234 1    
   223  112  113 2    
   224  112  114 am   BACKBONE|DICT|INTERRES
   225  114  115 1    
   226  114  235 1    
   227  115  116 1    
   228  115  117 1    
   229  115  236 1    
   230  116  237 1    
   231  116  238 1    
   232  116  239 1    
   233  117  118 2    
   234  117  119 am   BACKBONE|DICT|INTERRES
   235  119  120 1    
   236  119  240 1    
   237  120  121 1    
   238  120  124 1    
   239  120  241 1    
   240  121  122 am   BACKBONE|DICT|INTERRES
   241  121  123 2    
   242  122  242 1    
   243  122  243 1    
   244  124  125 1    
   245  124  244 1    
   246  124  245 1    
   247  125  126 1    
   248  126  246 1    
   249  126  247 1    
@<TRIPOS>SUBSTRUCTURE
     1 UNK         1 GROUP             0       ****    0 ROOT    
