@<TRIPOS>MOLECULE
3R540
247   249    1
SMALL
USER_CHARGES


@<TRIPOS>ATOM
      1 CA          8.2252  -11.4503  -50.5071 C.3       0 UNK        -0.1800 
      2 C           7.1162  -11.9926  -49.6166 C.2       0 UNK         0.5000 
      3 O           7.1548  -11.7941  -48.4023 O.2       0 UNK        -0.5000 
      4 N           6.1329  -12.6775  -50.2154 N.am      1 UNK        -0.5000 
      5 CA          4.9750  -13.2657  -49.5300 C.3       1 UNK         0.1400 
      6 C6          4.1910  -14.2275  -50.4563 C.3       23 UNK        -0.0398 
      7 S7          5.0517  -15.8201  -50.6665 S.3       23 UNK        -0.2404 
      8 C8          4.3346  -16.7771  -49.2917 C.3       23 UNK        -0.0205 
      9 C9          2.9799  -17.3769  -49.6473 C.ar      23 UNK        -0.0193 
     10 C10         1.7969  -16.6732  -49.3992 C.ar      23 UNK        -0.1150 
     11 C11         0.5610  -17.2148  -49.7594 C.ar      23 UNK        -0.0193 
     12 C12         0.5082  -18.4834  -50.3410 C.ar      23 UNK        -0.1150 
     13 C13         1.6768  -19.2269  -50.5378 C.ar      23 UNK        -0.0193 
     14 C14         2.9099  -18.6563  -50.2066 C.ar      23 UNK        -0.1150 
     15 C15         1.6288  -20.6529  -51.0860 C.3       23 UNK        -0.0205 
     16 S16         0.2710  -21.6780  -50.4107 S.3       23 UNK        -0.2404 
     17 C17         0.3886  -21.3667  -48.6124 C.3       23 UNK        -0.0398 
     18 CA          0.4414  -22.6261  -47.7171 C.3       11 UNK         0.1400 
     19 N           0.6568  -22.2507  -46.3194 N.am      11 UNK        -0.5000 
     20 C           0.8608  -23.0924  -45.2985 C.2       10 UNK         0.5000 
     21 O           0.9508  -24.3143  -45.4218 O.2       10 UNK        -0.5000 
     22 CA          0.9271  -22.4562  -43.8971 C.3       10 UNK         0.1400 
     23 CB          2.3020  -21.8184  -43.6475 C.3       10 UNK        -0.1800 
     24 N          -0.1219  -21.4556  -43.6829 N.am      10 UNK        -0.5000 
     25 C          -1.4346  -21.7301  -43.6655 C.2       9 UNK         0.5000 
     26 O          -1.8982  -22.8626  -43.7994 O.2       9 UNK        -0.5000 
     27 CA         -2.3945  -20.5356  -43.5159 C.3       9 UNK         0.1400 
     28 CB         -2.4579  -20.0596  -42.0570 C.3       9 UNK        -0.1800 
     29 N          -2.0433  -19.4131  -44.3859 N.am      9 UNK        -0.5000 
     30 C          -2.0333  -19.4671  -45.7251 C.2       8 UNK         0.5000 
     31 O          -2.3501  -20.4621  -46.3719 O.2       8 UNK        -0.5000 
     32 CA         -1.5357  -18.2204  -46.4730 C.3       8 UNK         0.1400 
     33 CB         -2.6420  -17.1550  -46.5447 C.3       8 UNK        -0.1800 
     34 N          -0.3252  -17.6538  -45.8783 N.am      8 UNK        -0.5000 
     35 C           0.8366  -18.3104  -45.7380 C.2       7 UNK         0.5000 
     36 O           1.0311  -19.4556  -46.1400 O.2       7 UNK        -0.5000 
     37 CA          1.9497  -17.5959  -44.9571 C.3       7 UNK         0.1400 
     38 CB          2.7077  -16.6089  -45.8519 C.3       7 UNK        -0.1800 
     39 N           1.4240  -16.9051  -43.7832 N.am      7 UNK        -0.5000 
     40 C           0.9530  -17.5298  -42.6947 C.2       6 UNK         0.5000 
     41 O           0.9608  -18.7528  -42.5468 O.2       6 UNK        -0.5000 
     42 CA          0.3265  -16.6310  -41.6137 C.3       6 UNK         0.1400 
     43 CB          1.4107  -16.0461  -40.6963 C.3       6 UNK        -0.1800 
     44 N          -0.4640  -15.5413  -42.1910 N.am      6 UNK        -0.5000 
     45 C          -1.6063  -15.7219  -42.8685 C.2       5 UNK         0.5000 
     46 O          -2.1290  -16.8226  -43.0402 O.2       5 UNK        -0.5000 
     47 CA         -2.2538  -14.4704  -43.4877 C.3       5 UNK         0.1400 
     48 CB         -3.1802  -13.7855  -42.4721 C.3       5 UNK        -0.1800 
     49 N          -1.2844  -13.4954  -43.9956 N.am      5 UNK        -0.5000 
     50 C          -0.4446  -13.7141  -45.0161 C.2       4 UNK         0.5000 
     51 O          -0.3319  -14.7982  -45.5917 O.2       4 UNK        -0.5000 
     52 CA          0.4449  -12.5304  -45.4379 C.3       4 UNK         0.1400 
     53 CB          1.8690  -12.7094  -44.8907 C.3       4 UNK        -0.1800 
     54 N           0.5080  -12.3622  -46.8905 N.am      4 UNK        -0.5000 
     55 C          -0.5366  -12.0544  -47.6762 C.2       3 UNK         0.5000 
     56 O          -1.6819  -11.8958  -47.2496 O.2       3 UNK        -0.5000 
     57 CA         -0.2453  -11.8705  -49.1850 C.3       3 UNK         0.1400 
     58 CB         -1.3388  -11.0702  -49.9231 C.3       3 UNK        -0.1800 
     59 N           1.0811  -11.3053  -49.4569 N.am      3 UNK        -0.5000 
     60 C           1.5828  -10.1425  -49.0110 C.2       2 UNK         0.5000 
     61 O           0.9194   -9.3030  -48.4003 O.2       2 UNK        -0.5000 
     62 CA          3.0859   -9.8803  -49.2747 C.3       2 UNK         0.1400 
     63 CB          3.7569   -9.1609  -48.0863 C.3       2 UNK        -0.1800 
     64 N           3.8753  -11.0673  -49.6443 N.am      2 UNK        -0.5000 
     65 C           4.0245  -12.2030  -48.9419 C.2       1 UNK         0.5000 
     66 O           3.4275  -12.4465  -47.8919 O.2       1 UNK        -0.5000 
     67 C          -0.8104  -23.5126  -47.8697 C.2       11 UNK         0.5000 
     68 O          -0.7249  -24.5748  -48.4849 O.2       11 UNK        -0.5000 
     69 N          -1.9314  -23.0942  -47.2652 N.am      12 UNK        -0.5000 
     70 CA         -3.1963  -23.8236  -47.2892 C.3       12 UNK         0.1400 
     71 CB         -4.3161  -22.9602  -46.6903 C.3       12 UNK        -0.1800 
     72 C          -3.1247  -25.1891  -46.5864 C.2       12 UNK         0.5000 
     73 O          -3.6829  -26.1616  -47.0947 O.2       12 UNK        -0.5000 
     74 N          -2.4097  -25.2513  -45.4543 N.am      13 UNK        -0.5000 
     75 CA         -2.1425  -26.4851  -44.7147 C.3       13 UNK         0.1400 
     76 CB         -1.4731  -26.1493  -43.3736 C.3       13 UNK        -0.1800 
     77 C          -1.2917  -27.4875  -45.5170 C.2       13 UNK         0.5000 
     78 O          -1.5691  -28.6864  -45.4720 O.2       13 UNK        -0.5000 
     79 N          -0.2934  -26.9801  -46.2537 N.am      14 UNK        -0.5000 
     80 CA          0.5547  -27.7682  -47.1476 C.3       14 UNK         0.1400 
     81 CB          1.7972  -26.9484  -47.5287 C.3       14 UNK        -0.1800 
     82 C          -0.1959  -28.2484  -48.4046 C.2       14 UNK         0.5000 
     83 O          -0.0417  -29.4053  -48.7982 O.2       14 UNK        -0.5000 
     84 N          -0.9936  -27.3571  -49.0086 N.am      15 UNK        -0.5000 
     85 CA         -1.7802  -27.6211  -50.2152 C.3       15 UNK         0.1400 
     86 CB         -2.2408  -26.2827  -50.8145 C.3       15 UNK        -0.1800 
     87 C          -2.9962  -28.5358  -49.9770 C.2       15 UNK         0.5000 
     88 O          -3.4248  -29.2151  -50.9107 O.2       15 UNK        -0.5000 
     89 N          -3.5388  -28.5129  -48.7504 N.am      16 UNK        -0.5000 
     90 CA         -4.7826  -29.1578  -48.3118 C.3       16 UNK         0.1400 
     91 CB         -4.6874  -30.6948  -48.4089 C.3       16 UNK        -0.1800 
     92 C          -6.0297  -28.5728  -49.0134 C.2       16 UNK         0.5000 
     93 O          -7.0070  -29.2849  -49.2512 O.2       16 UNK        -0.5000 
     94 N          -5.9674  -27.2743  -49.3226 N.am      17 UNK        -0.5000 
     95 CA         -6.9871  -26.4624  -49.9764 C.3       17 UNK         0.1400 
     96 CB         -7.0242  -26.7667  -51.4847 C.3       17 UNK        -0.1800 
     97 C          -6.6232  -24.9940  -49.7188 C.2       17 UNK         0.5000 
     98 O          -5.4521  -24.7047  -49.4729 O.2       17 UNK        -0.5000 
     99 N          -7.6133  -24.0946  -49.7631 N.am      18 UNK        -0.5000 
    100 CA        -7.4495  -22.6680  -49.4663 C.3       18 UNK         0.1400 
    101 CB        -8.8224  -21.9808  -49.5297 C.3       18 UNK        -0.1800 
    102 C         -6.4539  -21.9570  -50.4049 C.2       18 UNK         0.5000 
    103 O         -6.5145  -22.1471  -51.6224 O.2       18 UNK        -0.5000 
    104 N         -5.5928  -21.1086  -49.8278 N.am      19 UNK        -0.5000 
    105 CA        -4.6004  -20.2883  -50.5284 C.3       19 UNK         0.1400 
    106 CB        -3.4487  -19.9668  -49.5590 C.3       19 UNK        -0.1800 
    107 C         -5.2474  -19.0223  -51.1309 C.2       19 UNK         0.5000 
    108 O         -4.8573  -17.8988  -50.8048 O.2       19 UNK        -0.5000 
    109 N         -6.2515  -19.2388  -51.9914 N.am      20 UNK        -0.5000 
    110 CA        -7.1314  -18.2267  -52.5835 C.3       20 UNK         0.1400 
    111 CB        -8.2128  -18.9366  -53.4118 C.3       20 UNK        -0.1800 
    112 C         -6.4161  -17.1576  -53.4312 C.2       20 UNK         0.5000 
    113 O         -6.9444  -16.0546  -53.5780 O.2       20 UNK        -0.5000 
    114 N         -5.2154  -17.4771  -53.9350 N.am      21 UNK        -0.5000 
    115 CA        -4.3296  -16.5689  -54.6694 C.3       21 UNK         0.1400 
    116 CB        -3.0884  -17.3498  -55.1279 C.3       21 UNK        -0.1800 
    117 C         -3.9106  -15.3177  -53.8683 C.2       21 UNK         0.5000 
    118 O         -3.6421  -14.2788  -54.4732 O.2       21 UNK        -0.5000 
    119 N         -3.8878  -15.4325  -52.5344 N.am      22 UNK        -0.5000 
    120 CA        -3.6422  -14.3263  -51.5962 C.3       22 UNK         0.1400 
    121 C         -4.9427  -13.5990  -51.1393 C.2       22 UNK         0.5000 
    122 N         -6.1247  -13.9428  -51.6389 N.am      22 UNK        -0.7600 
    123 O         -4.8805  -12.6844  -50.3232 O.2       22 UNK        -0.5000 
    124 C124       -2.7897  -14.7903  -50.3881 C.3       23 UNK        -0.0398 
    125 S125       -1.1385  -15.3708  -50.9059 S.3       23 UNK        -0.2404 
    126 C126       -0.7197  -16.4407  -49.5038 C.3       23 UNK        -0.0205 
    127 H127        8.2752  -10.3646  -50.4247 H         1 UNK         0.0600 
    128 H128        8.0654  -11.7048  -51.5552 H         1 UNK         0.0600 
    129 H129        9.1872  -11.8613  -50.2006 H         1 UNK         0.0600 
    130 H130        6.1764  -12.8290  -51.2133 H         1 UNK         0.3000 
    131 H131        5.3516  -13.8364  -48.6781 H         1 UNK         0.0600 
    132 H132        3.1887  -14.4191  -50.0785 H         1 UNK         0.0800 
    133 H133        4.0442  -13.7799  -51.4407 H         1 UNK         0.0800 
    134 H134        4.2534  -16.1368  -48.4132 H         1 UNK         0.0800 
    135 H135        5.0289  -17.5738  -49.0204 H         1 UNK         0.0800 
    136 H136        1.8299  -15.7012  -48.9295 H         1 UNK         0.1150 
    137 H137       -0.4476  -18.9044  -50.6155 H         1 UNK         0.1150 
    138 H138        3.8212  -19.2131  -50.3745 H         1 UNK         0.1150 
    139 H139        2.5698  -21.1663  -50.8825 H         1 UNK         0.0800 
    140 H140        1.5298  -20.6081  -52.1711 H         1 UNK         0.0800 
    141 H141       -0.4490  -20.7290  -48.3277 H         1 UNK         0.0800 
    142 H142        1.2855  -20.7780  -48.4202 H         1 UNK         0.0800 
    143 H143        1.3034  -23.2217  -48.0247 H         1 UNK         0.0600 
    144 H144        0.6402  -21.2516  -46.1243 H         1 UNK         0.3000 
    145 H145        0.7840  -23.2530  -43.1643 H         1 UNK         0.0600 
    146 H146        2.3772  -21.4310  -42.6312 H         1 UNK         0.0600 
    147 H147        3.1010  -22.5490  -43.7785 H         1 UNK         0.0600 
    148 H148        2.4949  -20.9928  -44.3332 H         1 UNK         0.0600 
    149 H149        0.1799  -20.4974  -43.5466 H         1 UNK         0.3000 
    150 H150       -3.3913  -20.8762  -43.8035 H         1 UNK         0.0600 
    151 H151       -2.7330  -20.8779  -41.3905 H         1 UNK         0.0600 
    152 H152       -3.2029  -19.2735  -41.9321 H         1 UNK         0.0600 
    153 H153       -1.4992  -19.6665  -41.7178 H         1 UNK         0.0600 
    154 H154       -1.8207  -18.5331  -43.9299 H         1 UNK         0.3000 
    155 H155       -1.2832  -18.5276  -47.4885 H         1 UNK         0.0600 
    156 H156       -3.0156  -16.8939  -45.5554 H         1 UNK         0.0600 
    157 H157       -2.2936  -16.2373  -47.0161 H         1 UNK         0.0600 
    158 H158       -3.4911  -17.5167  -47.1251 H         1 UNK         0.0600 
    159 H159       -0.3776  -16.6863  -45.5707 H         1 UNK         0.3000 
    160 H160        2.6595  -18.3525  -44.6154 H         1 UNK         0.0600 
    161 H161        2.0464  -15.8649  -46.2967 H         1 UNK         0.0600 
    162 H162        3.1922  -17.1488  -46.6636 H         1 UNK         0.0600 
    163 H163        3.4868  -16.0843  -45.2988 H         1 UNK         0.0600 
    164 H164        1.3320  -15.9027  -43.8472 H         1 UNK         0.3000 
    165 H165       -0.3369  -17.2515  -41.0073 H         1 UNK         0.0600 
    166 H166        0.9697  -15.4670  -39.8848 H         1 UNK         0.0600 
    167 H167        2.0058  -16.8394  -40.2420 H         1 UNK         0.0600 
    168 H168        2.0942  -15.3941  -41.2417 H         1 UNK         0.0600 
    169 H169       -0.1033  -14.6042  -42.0891 H         1 UNK         0.3000 
    170 H170       -2.8632  -14.7995  -44.3316 H         1 UNK         0.0600 
    171 H171       -3.9274  -14.4838  -42.0926 H         1 UNK         0.0600 
    172 H172       -2.6258  -13.4003  -41.6154 H         1 UNK         0.0600 
    173 H173       -3.7176  -12.9532  -42.9270 H         1 UNK         0.0600 
    174 H174       -1.3089  -12.5795  -43.5710 H         1 UNK         0.3000 
    175 H175        0.0297  -11.6117  -45.0188 H         1 UNK         0.0600 
    176 H176        2.3562  -13.5868  -45.3168 H         1 UNK         0.0600 
    177 H177        2.4894  -11.8426  -45.1199 H         1 UNK         0.0600 
    178 H178        1.8635  -12.8279  -43.8065 H         1 UNK         0.0600 
    179 H179        1.4254  -12.4625  -47.3114 H         1 UNK         0.3000 
    180 H180       -0.2337  -12.8753  -49.6062 H         1 UNK         0.0600 
    181 H181       -1.4311  -10.0563  -49.5334 H         1 UNK         0.0600 
    182 H182       -2.3139  -11.5469  -49.8211 H         1 UNK         0.0600 
    183 H183       -1.1243  -11.0023  -50.9895 H         1 UNK         0.0600 
    184 H184        1.7171  -11.9120  -49.9524 H         1 UNK         0.3000 
    185 H185        3.1257   -9.2090  -50.1336 H         1 UNK         0.0600 
    186 H186        3.2832   -8.1989  -47.8871 H         1 UNK         0.0600 
    187 H187        3.6955   -9.7520  -47.1718 H         1 UNK         0.0600 
    188 H188        4.8102   -8.9652  -48.2877 H         1 UNK         0.0600 
    189 H189        4.3998  -10.9831  -50.5040 H         1 UNK         0.3000 
    190 H190       -1.9427  -22.1895  -46.7985 H         1 UNK         0.3000 
    191 H191       -3.4195  -24.0021  -48.3392 H         1 UNK         0.0600 
    192 H192       -4.1149  -22.7075  -45.6487 H         1 UNK         0.0600 
    193 H193       -5.2723  -23.4835  -46.7264 H         1 UNK         0.0600 
    194 H194       -4.4329  -22.0296  -47.2439 H         1 UNK         0.0600 
    195 H195       -2.0257  -24.3940  -45.0678 H         1 UNK         0.3000 
    196 H196       -3.1025  -26.9608  -44.5040 H         1 UNK         0.0600 
    197 H197       -1.2756  -27.0542  -42.7976 H         1 UNK         0.0600 
    198 H198       -2.1115  -25.5090  -42.7648 H         1 UNK         0.0600 
    199 H199       -0.5223  -25.6349  -43.5149 H         1 UNK         0.0600 
    200 H200       -0.1057  -25.9846  -46.2042 H         1 UNK         0.3000 
    201 H201        0.8917  -28.6530  -46.6034 H         1 UNK         0.0600 
    202 H202        2.3691  -26.6673  -46.6441 H         1 UNK         0.0600 
    203 H203        1.5321  -26.0326  -48.0576 H         1 UNK         0.0600 
    204 H204        2.4602  -27.5225  -48.1771 H         1 UNK         0.0600 
    205 H205       -1.0104  -26.4012  -48.6588 H         1 UNK         0.3000 
    206 H206       -1.1331  -28.1150  -50.9430 H         1 UNK         0.0600 
    207 H207       -1.3902  -25.6505  -51.0698 H         1 UNK         0.0600 
    208 H208       -2.8177  -26.4374  -51.7272 H         1 UNK         0.0600 
    209 H209       -2.8714  -25.7283  -50.1183 H         1 UNK         0.0600 
    210 H210       -3.1498  -27.8536  -48.0841 H         1 UNK         0.3000 
    211 H211       -4.8889  -28.9052  -47.2559 H         1 UNK         0.0600 
    212 H212       -4.6659  -31.0381  -49.4433 H         1 UNK         0.0600 
    213 H213       -5.5436  -31.1685  -47.9275 H         1 UNK         0.0600 
    214 H214       -3.7906  -31.0654  -47.9124 H         1 UNK         0.0600 
    215 H215       -5.1498  -26.7418  -49.0430 H         1 UNK         0.3000 
    216 H216       -7.9590  -26.6731  -49.5260 H         1 UNK         0.0600 
    217 H217       -7.7600  -26.1422  -51.9925 H         1 UNK         0.0600 
    218 H218       -7.2947  -27.8054  -51.6748 H         1 UNK         0.0600 
    219 H219       -6.0562  -26.5825  -51.9527 H         1 UNK         0.0600 
    220 H220       -8.5443  -24.3991  -50.0068 H         1 UNK         0.3000 
    221 H221       -7.0768  -22.5905  -48.4428 H         1 UNK         0.0600 
    222 H222       -9.2656  -22.0600  -50.5234 H         1 UNK         0.0600 
    223 H223       -9.5185  -22.4199  -48.8148 H         1 UNK         0.0600 
    224 H224       -8.7405  -20.9194  -49.2916 H         1 UNK         0.0600 
    225 H225       -5.6415  -20.9746  -48.8289 H         1 UNK         0.3000 
    226 H226       -4.1826  -20.8646  -51.3566 H         1 UNK         0.0600 
    227 H227       -2.9644  -20.8778  -49.2061 H         1 UNK         0.0600 
    228 H228       -2.6836  -19.3627  -50.0462 H         1 UNK         0.0600 
    229 H229       -3.7984  -19.4147  -48.6865 H         1 UNK         0.0600 
    230 H230       -6.4907  -20.2073  -52.1793 H         1 UNK         0.3000 
    231 H231       -7.6216  -17.7037  -51.7599 H         1 UNK         0.0600 
    232 H232       -8.9112  -18.2184  -53.8435 H         1 UNK         0.0600 
    233 H233       -8.7942  -19.6233  -52.7960 H         1 UNK         0.0600 
    234 H234       -7.7782  -19.5077  -54.2331 H         1 UNK         0.0600 
    235 H235       -4.8627  -18.4056  -53.7569 H         1 UNK         0.3000 
    236 H236       -4.8683  -16.2258  -55.5549 H         1 UNK         0.0600 
    237 H237       -3.3627  -18.1909  -55.7648 H         1 UNK         0.0600 
    238 H238       -2.4169  -16.7124  -55.7048 H         1 UNK         0.0600 
    239 H239       -2.5231  -17.7387  -54.2797 H         1 UNK         0.0600 
    240 H240       -4.1427  -16.3180  -52.1123 H         1 UNK         0.3000 
    241 H241       -3.0628  -13.5571  -52.1103 H         1 UNK         0.0600 
    242 H242       -6.2169  -14.6734  -52.3358 H         1 UNK         0.3800 
    243 H243       -6.9470  -13.4487  -51.3310 H         1 UNK         0.3800 
    244 H244       -2.6465  -13.9810  -49.6708 H         1 UNK         0.0800 
    245 H245       -3.3083  -15.5870  -49.8519 H         1 UNK         0.0800 
    246 H246       -1.5430  -17.1342  -49.3313 H         1 UNK         0.0800 
    247 H247       -0.6165  -15.8347  -48.6023 H         1 UNK         0.0800 
@<TRIPOS>BOND
     1    1    2 1    
     2    1  127 1    
     3    1  128 1    
     4    1  129 1    
     5    2    3 2    
     6    2    4 am   BACKBONE|DICT|INTERRES
     7    4    5 1    
     8    4  130 1    
     9    5    6 1    
    10    5   65 1    
    11    5  131 1    
    12    6    7 1    
    13    6  132 1    
    14    6  133 1    
    15    7    8 1    
    16    8    9 1    
    17    8  134 1    
    18    8  135 1    
    19    9   10 ar   
    20    9   14 ar   
    21   10   11 ar   
    22   10  136 1    
    23   11   12 ar   
    24   11  126 1    
    25   12   13 ar   
    26   12  137 1    
    27   13   14 ar   
    28   13   15 1    
    29   14  138 1    
    30   15   16 1    
    31   15  139 1    
    32   15  140 1    
    33   16   17 1    
    34   17   18 1    
    35   17  141 1    
    36   17  142 1    
    37   18   19 1    
    38   18   67 1    
    39   18  143 1    
    40   19   20 am   BACKBONE|DICT|INTERRES
    41   19  144 1    
    42   20   21 2    
    43   20   22 1    
    44   22   23 1    
    45   22   24 1    
    46   22  145 1    
    47   23  146 1    
    48   23  147 1    
    49   23  148 1    
    50   24   25 am   BACKBONE|DICT|INTERRES
    51   24  149 1    
    52   25   26 2    
    53   25   27 1    
    54   27   28 1    
    55   27   29 1    
    56   27  150 1    
    57   28  151 1    
    58   28  152 1    
    59   28  153 1    
    60   29   30 am   BACKBONE|DICT|INTERRES
    61   29  154 1    
    62   30   31 2    
    63   30   32 1    
    64   32   33 1    
    65   32   34 1    
    66   32  155 1    
    67   33  156 1    
    68   33  157 1    
    69   33  158 1    
    70   34   35 am   BACKBONE|DICT|INTERRES
    71   34  159 1    
    72   35   36 2    
    73   35   37 1    
    74   37   38 1    
    75   37   39 1    
    76   37  160 1    
    77   38  161 1    
    78   38  162 1    
    79   38  163 1    
    80   39   40 am   BACKBONE|DICT|INTERRES
    81   39  164 1    
    82   40   41 2    
    83   40   42 1    
    84   42   43 1    
    85   42   44 1    
    86   42  165 1    
    87   43  166 1    
    88   43  167 1    
    89   43  168 1    
    90   44   45 am   BACKBONE|DICT|INTERRES
    91   44  169 1    
    92   45   46 2    
    93   45   47 1    
    94   47   48 1    
    95   47   49 1    
    96   47  170 1    
    97   48  171 1    
    98   48  172 1    
    99   48  173 1    
   100   49   50 am   BACKBONE|DICT|INTERRES
   101   49  174 1    
   102   50   51 2    
   103   50   52 1    
   104   52   53 1    
   105   52   54 1    
   106   52  175 1    
   107   53  176 1    
   108   53  177 1    
   109   53  178 1    
   110   54   55 am   BACKBONE|DICT|INTERRES
   111   54  179 1    
   112   55   56 2    
   113   55   57 1    
   114   57   58 1    
   115   57   59 1    
   116   57  180 1    
   117   58  181 1    
   118   58  182 1    
   119   58  183 1    
   120   59   60 am   BACKBONE|DICT|INTERRES
   121   59  184 1    
   122   60   61 2    
   123   60   62 1    
   124   62   63 1    
   125   62   64 1    
   126   62  185 1    
   127   63  186 1    
   128   63  187 1    
   129   63  188 1    
   130   64   65 am   BACKBONE|DICT|INTERRES
   131   64  189 1    
   132   65   66 2    
   133   67   68 2    
   134   67   69 am   BACKBONE|DICT|INTERRES
   135   69   70 1    
   136   69  190 1    
   137   70   71 1    
   138   70   72 1    
   139   70  191 1    
   140   71  192 1    
   141   71  193 1    
   142   71  194 1    
   143   72   73 2    
   144   72   74 am   BACKBONE|DICT|INTERRES
   145   74   75 1    
   146   74  195 1    
   147   75   76 1    
   148   75   77 1    
   149   75  196 1    
   150   76  197 1    
   151   76  198 1    
   152   76  199 1    
   153   77   78 2    
   154   77   79 am   BACKBONE|DICT|INTERRES
   155   79   80 1    
   156   79  200 1    
   157   80   81 1    
   158   80   82 1    
   159   80  201 1    
   160   81  202 1    
   161   81  203 1    
   162   81  204 1    
   163   82   83 2    
   164   82   84 am   BACKBONE|DICT|INTERRES
   165   84   85 1    
   166   84  205 1    
   167   85   86 1    
   168   85   87 1    
   169   85  206 1    
   170   86  207 1    
   171   86  208 1    
   172   86  209 1    
   173   87   88 2    
   174   87   89 am   BACKBONE|DICT|INTERRES
   175   89   90 1    
   176   89  210 1    
   177   90   91 1    
   178   90   92 1    
   179   90  211 1    
   180   91  212 1    
   181   91  213 1    
   182   91  214 1    
   183   92   93 2    
   184   92   94 am   BACKBONE|DICT|INTERRES
   185   94   95 1    
   186   94  215 1    
   187   95   96 1    
   188   95   97 1    
   189   95  216 1    
   190   96  217 1    
   191   96  218 1    
   192   96  219 1    
   193   97   98 2    
   194   97   99 am   BACKBONE|DICT|INTERRES
   195   99  100 1    
   196   99  220 1    
   197  100  101 1    
   198  100  102 1    
   199  100  221 1    
   200  101  222 1    
   201  101  223 1    
   202  101  224 1    
   203  102  103 2    
   204  102  104 am   BACKBONE|DICT|INTERRES
   205  104  105 1    
   206  104  225 1    
   207  105  106 1    
   208  105  107 1    
   209  105  226 1    
   210  106  227 1    
   211  106  228 1    
   212  106  229 1    
   213  107  108 2    
   214  107  109 am   BACKBONE|DICT|INTERRES
   215  109  110 1    
   216  109  230 1    
   217  110  111 1    
   218  110  112 1    
   219  110  231 1    
   220  111  232 1    
   221  111  233 1    
   222  111  234 1    
   223  112  113 2    
   224  112  114 am   BACKBONE|DICT|INTERRES
   225  114  115 1    
   226  114  235 1    
   227  115  116 1    
   228  115  117 1    
   229  115  236 1    
   230  116  237 1    
   231  116  238 1    
   232  116  239 1    
   233  117  118 2    
   234  117  119 am   BACKBONE|DICT|INTERRES
   235  119  120 1    
   236  119  240 1    
   237  120  121 1    
   238  120  124 1    
   239  120  241 1    
   240  121  122 am   BACKBONE|DICT|INTERRES
   241  121  123 2    
   242  122  242 1    
   243  122  243 1    
   244  124  125 1    
   245  124  244 1    
   246  124  245 1    
   247  125  126 1    
   248  126  246 1    
   249  126  247 1    
@<TRIPOS>SUBSTRUCTURE
     1 UNK         1 GROUP             0       ****    0 ROOT    
