@<TRIPOS>MOLECULE
3R540
247   249    1
SMALL
USER_CHARGES


@<TRIPOS>ATOM
      1 CA         -4.7761  -17.9597  -42.7924 C.3       0 UNK        -0.1800 
      2 C          -5.1445  -17.6814  -44.2420 C.2       0 UNK         0.5000 
      3 O          -6.3201  -17.4866  -44.5484 O.2       0 UNK        -0.5000 
      4 N          -4.1411  -17.6732  -45.1267 N.am      1 UNK        -0.5000 
      5 CA         -4.2725  -17.4224  -46.5637 C.3       1 UNK         0.1400 
      6 C6         -3.1224  -18.1140  -47.3499 C.3       23 UNK        -0.0398 
      7 S7         -1.4884  -17.3042  -47.2144 S.3       23 UNK        -0.2404 
      8 C8         -1.1679  -16.8286  -48.9406 C.3       23 UNK        -0.0205 
      9 C9         -0.5258  -17.9527  -49.7325 C.ar      23 UNK        -0.0193 
     10 C10        -1.3131  -18.8293  -50.4818 C.ar      23 UNK        -0.1150 
     11 C11        -0.7169  -19.8033  -51.2872 C.ar      23 UNK        -0.0193 
     12 C12         0.6759  -19.9176  -51.3152 C.ar      23 UNK        -0.1150 
     13 C13         1.4738  -19.0554  -50.5569 C.ar      23 UNK        -0.0193 
     14 C14         0.8656  -18.0739  -49.7690 C.ar      23 UNK        -0.1150 
     15 C15         2.9926  -19.1521  -50.6261 C.3       23 UNK        -0.0205 
     16 S16         3.7440  -19.5353  -49.0126 S.3       23 UNK        -0.2404 
     17 C17         2.9702  -21.1429  -48.6370 C.3       23 UNK        -0.0398 
     18 CA          3.9097  -22.0817  -47.8434 C.3       11 UNK         0.1400 
     19 N           4.2292  -21.5340  -46.5220 N.am      11 UNK        -0.5000 
     20 C           5.2779  -21.9005  -45.7757 C.2       10 UNK         0.5000 
     21 O           6.0954  -22.7571  -46.1146 O.2       10 UNK        -0.5000 
     22 CA          5.4288  -21.1986  -44.4151 C.3       10 UNK         0.1400 
     23 CB          6.0112  -19.7868  -44.5857 C.3       10 UNK        -0.1800 
     24 N           4.1592  -21.1212  -43.6924 N.am      10 UNK        -0.5000 
     25 C           3.5673  -22.1639  -43.0934 C.2       9 UNK         0.5000 
     26 O           4.0436  -23.2989  -43.0686 O.2       9 UNK        -0.5000 
     27 CA          2.2125  -21.9017  -42.4104 C.3       9 UNK         0.1400 
     28 CB          2.4237  -21.4366  -40.9618 C.3       9 UNK        -0.1800 
     29 N           1.3938  -20.9176  -43.1165 N.am      9 UNK        -0.5000 
     30 C           0.8397  -21.1130  -44.3205 C.2       8 UNK         0.5000 
     31 O           0.9375  -22.1564  -44.9645 O.2       8 UNK        -0.5000 
     32 CA          0.0795  -19.9260  -44.9308 C.3       8 UNK         0.1400 
     33 CB         -1.3290  -19.8373  -44.3304 C.3       8 UNK        -0.1800 
     34 N           0.7761  -18.6488  -44.7731 N.am      8 UNK        -0.5000 
     35 C           2.0066  -18.3974  -45.2450 C.2       7 UNK         0.5000 
     36 O           2.7100  -19.2358  -45.8060 O.2       7 UNK        -0.5000 
     37 CA          2.5640  -16.9871  -45.0118 C.3       7 UNK         0.1400 
     38 CB          1.9745  -15.9993  -46.0234 C.3       7 UNK        -0.1800 
     39 N           2.2880  -16.5281  -43.6537 N.am      7 UNK        -0.5000 
     40 C           2.9464  -16.9666  -42.5720 C.2       6 UNK         0.5000 
     41 O           3.9019  -17.7421  -42.6167 O.2       6 UNK        -0.5000 
     42 CA          2.4194  -16.4885  -41.2071 C.3       6 UNK         0.1400 
     43 CB          2.9556  -15.0875  -40.8760 C.3       6 UNK        -0.1800 
     44 N           0.9574  -16.4767  -41.1385 N.am      6 UNK        -0.5000 
     45 C           0.1826  -17.5651  -41.2455 C.2       5 UNK         0.5000 
     46 O           0.6183  -18.7062  -41.3959 O.2       5 UNK        -0.5000 
     47 CA         -1.3384  -17.3411  -41.2097 C.3       5 UNK         0.1400 
     48 CB         -1.8674  -17.4539  -39.7728 C.3       5 UNK        -0.1800 
     49 N          -1.7739  -16.0662  -41.7848 N.am      5 UNK        -0.5000 
     50 C          -1.6010  -15.6845  -43.0580 C.2       4 UNK         0.5000 
     51 O          -0.9956  -16.3614  -43.8927 O.2       4 UNK        -0.5000 
     52 CA         -2.2650  -14.3462  -43.4394 C.3       4 UNK         0.1400 
     53 CB         -1.8695  -13.1975  -42.4850 C.3       4 UNK        -0.1800 
     54 N          -2.0766  -13.9623  -44.8416 N.am      4 UNK        -0.5000 
     55 C          -0.9641  -13.5159  -45.4442 C.2       3 UNK         0.5000 
     56 O           0.1182  -13.3806  -44.8718 O.2       3 UNK        -0.5000 
     57 CA         -1.0965  -13.1153  -46.9308 C.3       3 UNK         0.1400 
     58 CB          0.1982  -13.3421  -47.7301 C.3       3 UNK        -0.1800 
     59 N          -2.2042  -13.8178  -47.5863 N.am      3 UNK        -0.5000 
     60 C          -3.2955  -13.2344  -48.1032 C.2       2 UNK         0.5000 
     61 O          -3.4491  -12.0140  -48.1627 O.2       2 UNK        -0.5000 
     62 CA         -4.4276  -14.1516  -48.6277 C.3       2 UNK         0.1400 
     63 CB         -4.4348  -14.1691  -50.1628 C.3       2 UNK        -0.1800 
     64 N          -4.4053  -15.5384  -48.1444 N.am      2 UNK        -0.5000 
     65 C          -4.4221  -15.9102  -46.8576 C.2       1 UNK         0.5000 
     66 O          -4.4997  -15.0971  -45.9323 O.2       1 UNK        -0.5000 
     67 C           3.2837  -23.4891  -47.7663 C.2       11 UNK         0.5000 
     68 O           3.3485  -24.2209  -48.7546 O.2       11 UNK        -0.5000 
     69 N           2.6572  -23.8189  -46.6253 N.am      12 UNK        -0.5000 
     70 CA          1.7418  -24.9466  -46.4135 C.3       12 UNK         0.1400 
     71 CB          2.4659  -26.3025  -46.5492 C.3       12 UNK        -0.1800 
     72 C           0.4994  -24.8076  -47.3195 C.2       12 UNK         0.5000 
     73 O           0.1438  -25.7362  -48.0482 O.2       12 UNK        -0.5000 
     74 N          -0.0949  -23.6064  -47.2912 N.am      13 UNK        -0.5000 
     75 CA         -1.2100  -23.1952  -48.1422 C.3       13 UNK         0.1400 
     76 CB         -1.4026  -21.6747  -48.0256 C.3       13 UNK        -0.1800 
     77 C          -2.5199  -23.9275  -47.8040 C.2       13 UNK         0.5000 
     78 O          -2.7234  -24.3481  -46.6614 O.2       13 UNK        -0.5000 
     79 N          -3.4066  -24.0284  -48.8012 N.am      14 UNK        -0.5000 
     80 CA         -4.7169  -24.6775  -48.7186 C.3       14 UNK         0.1400 
     81 CB         -5.1604  -25.0636  -50.1418 C.3       14 UNK        -0.1800 
     82 C          -5.7603  -23.8053  -47.9852 C.2       14 UNK         0.5000 
     83 O          -6.7780  -23.4335  -48.5721 O.2       14 UNK        -0.5000 
     84 N          -5.4748  -23.4877  -46.7148 N.am      15 UNK        -0.5000 
     85 CA         -6.2462  -22.6266  -45.8143 C.3       15 UNK         0.1400 
     86 CB         -7.5906  -23.2905  -45.4386 C.3       15 UNK        -0.1800 
     87 C          -6.3727  -21.1973  -46.3815 C.2       15 UNK         0.5000 
     88 O          -5.3460  -20.5804  -46.6705 O.2       15 UNK        -0.5000 
     89 N          -7.6053  -20.7008  -46.5549 N.am      16 UNK        -0.5000 
     90 CA         -7.9528  -19.3774  -47.0852 C.3       16 UNK         0.1400 
     91 CB         -9.3979  -19.0491  -46.6681 C.3       16 UNK        -0.1800 
     92 C          -7.7270  -19.2403  -48.6098 C.2       16 UNK         0.5000 
     93 O          -8.6033  -18.7534  -49.3270 O.2       16 UNK        -0.5000 
     94 N          -6.5644  -19.6958  -49.0842 N.am      17 UNK        -0.5000 
     95 CA         -6.1702  -19.7105  -50.4869 C.3       17 UNK         0.1400 
     96 CB         -5.0855  -20.7802  -50.6718 C.3       17 UNK        -0.1800 
     97 C          -5.6550  -18.3406  -50.9599 C.2       17 UNK         0.5000 
     98 O          -5.0837  -17.5813  -50.1704 O.2       17 UNK        -0.5000 
     99 N          -5.8221  -18.0809  -52.2619 N.am      18 UNK        -0.5000 
    100 CA        -5.2161  -16.9542  -52.9671 C.3       18 UNK         0.1400 
    101 CB        -5.9386  -16.7501  -54.3073 C.3       18 UNK        -0.1800 
    102 C         -3.7194  -17.2171  -53.1994 C.2       18 UNK         0.5000 
    103 O         -3.3442  -18.3468  -53.5122 O.2       18 UNK        -0.5000 
    104 N         -2.8971  -16.1683  -53.0840 N.am      19 UNK        -0.5000 
    105 CA        -1.4324  -16.2341  -53.1606 C.3       19 UNK         0.1400 
    106 CB        -0.8560  -14.9170  -52.6150 C.3       19 UNK        -0.1800 
    107 C         -0.8544  -16.5643  -54.5550 C.2       19 UNK         0.5000 
    108 O          0.3611  -16.7215  -54.6751 O.2       19 UNK        -0.5000 
    109 N         -1.7132  -16.6492  -55.5809 N.am      20 UNK        -0.5000 
    110 CA        -1.3558  -16.9802  -56.9599 C.3       20 UNK         0.1400 
    111 CB        -2.5865  -16.7944  -57.8620 C.3       20 UNK        -0.1800 
    112 C         -0.7688  -18.3968  -57.1130 C.2       20 UNK         0.5000 
    113 O          0.2991  -18.5422  -57.7097 O.2       20 UNK        -0.5000 
    114 N         -1.4624  -19.4032  -56.5641 N.am      21 UNK        -0.5000 
    115 CA        -1.0827  -20.8156  -56.5912 C.3       21 UNK         0.1400 
    116 CB        -1.0880  -21.3692  -58.0320 C.3       21 UNK        -0.1800 
    117 C         -2.0630  -21.6237  -55.7305 C.2       21 UNK         0.5000 
    118 O         -3.2532  -21.3025  -55.6984 O.2       21 UNK        -0.5000 
    119 N         -1.5513  -22.6735  -55.0801 N.am      22 UNK        -0.5000 
    120 CA        -2.3236  -23.6339  -54.2734 C.3       22 UNK         0.1400 
    121 C         -1.6414  -25.0271  -54.1349 C.2       22 UNK         0.5000 
    122 N         -0.6282  -25.3551  -54.9295 N.am      22 UNK        -0.7600 
    123 O         -2.0499  -25.8431  -53.3134 O.2       22 UNK        -0.5000 
    124 C124       -2.8282  -23.0445  -52.9260 C.3       23 UNK        -0.0398 
    125 S125       -1.5149  -22.4309  -51.8111 S.3       23 UNK        -0.2404 
    126 C126       -1.5775  -20.6577  -52.2006 C.3       23 UNK        -0.0205 
    127 H127       -4.6019  -17.0250  -42.2598 H         1 UNK         0.0600 
    128 H128       -3.8790  -18.5739  -42.7260 H         1 UNK         0.0600 
    129 H129       -5.5831  -18.4943  -42.2911 H         1 UNK         0.0600 
    130 H130       -3.1908  -17.7725  -44.8010 H         1 UNK         0.3000 
    131 H131       -5.2006  -17.8832  -46.8996 H         1 UNK         0.0600 
    132 H132       -3.0123  -19.1431  -47.0059 H         1 UNK         0.0800 
    133 H133       -3.3935  -18.2095  -48.3986 H         1 UNK         0.0800 
    134 H134       -2.0869  -16.5013  -49.4276 H         1 UNK         0.0800 
    135 H135       -0.5043  -15.9657  -48.9551 H         1 UNK         0.0800 
    136 H136       -2.3879  -18.7176  -50.4812 H         1 UNK         0.1150 
    137 H137        1.1351  -20.6625  -51.9497 H         1 UNK         0.1150 
    138 H138        1.4796  -17.3939  -49.1958 H         1 UNK         0.1150 
    139 H139        3.3035  -19.9053  -51.3518 H         1 UNK         0.0800 
    140 H140        3.3906  -18.2012  -50.9825 H         1 UNK         0.0800 
    141 H141        2.0475  -20.9588  -48.0834 H         1 UNK         0.0800 
    142 H142        2.6744  -21.6091  -49.5790 H         1 UNK         0.0800 
    143 H143        4.8411  -22.1803  -48.4054 H         1 UNK         0.0600 
    144 H144        3.6377  -20.7699  -46.1985 H         1 UNK         0.3000 
    145 H145        6.1317  -21.7800  -43.8146 H         1 UNK         0.0600 
    146 H146        6.1755  -19.3097  -43.6194 H         1 UNK         0.0600 
    147 H147        5.3514  -19.1422  -45.1670 H         1 UNK         0.0600 
    148 H148        6.9724  -19.8212  -45.0999 H         1 UNK         0.0600 
    149 H149        3.6919  -20.2249  -43.6873 H         1 UNK         0.3000 
    150 H150        1.6631  -22.8453  -42.3897 H         1 UNK         0.0600 
    151 H151        3.0210  -22.1568  -40.4012 H         1 UNK         0.0600 
    152 H152        1.4722  -21.3271  -40.4411 H         1 UNK         0.0600 
    153 H153        2.9391  -20.4758  -40.9205 H         1 UNK         0.0600 
    154 H154        1.2274  -20.0365  -42.6365 H         1 UNK         0.3000 
    155 H155       -0.0118  -20.0977  -46.0041 H         1 UNK         0.0600 
    156 H156       -1.3013  -19.8130  -43.2419 H         1 UNK         0.0600 
    157 H157       -1.9322  -20.6982  -44.6210 H         1 UNK         0.0600 
    158 H158       -1.8433  -18.9445  -44.6738 H         1 UNK         0.0600 
    159 H159        0.2497  -17.8869  -44.3580 H         1 UNK         0.3000 
    160 H160        3.6454  -17.0201  -45.1616 H         1 UNK         0.0600 
    161 H161        0.8926  -15.9220  -45.9163 H         1 UNK         0.0600 
    162 H162        2.1824  -16.3163  -47.0459 H         1 UNK         0.0600 
    163 H163        2.3960  -15.0021  -45.8960 H         1 UNK         0.0600 
    164 H164        1.4835  -15.9283  -43.5323 H         1 UNK         0.3000 
    165 H165        2.7851  -17.1837  -40.4483 H         1 UNK         0.0600 
    166 H166        2.6545  -14.7761  -39.8757 H         1 UNK         0.0600 
    167 H167        4.0459  -15.0703  -40.9063 H         1 UNK         0.0600 
    168 H168        2.5955  -14.3397  -41.5838 H         1 UNK         0.0600 
    169 H169        0.5110  -15.5789  -41.0249 H         1 UNK         0.3000 
    170 H170       -1.7942  -18.1375  -41.7959 H         1 UNK         0.0600 
    171 H171       -1.5780  -18.4049  -39.3234 H         1 UNK         0.0600 
    172 H172       -1.4783  -16.6580  -39.1365 H         1 UNK         0.0600 
    173 H173       -2.9562  -17.4035  -39.7481 H         1 UNK         0.0600 
    174 H174       -2.2824  -15.4544  -41.1633 H         1 UNK         0.3000 
    175 H175       -3.3392  -14.5053  -43.3337 H         1 UNK         0.0600 
    176 H176       -0.7880  -13.0744  -42.4205 H         1 UNK         0.0600 
    177 H177       -2.2944  -12.2488  -42.8134 H         1 UNK         0.0600 
    178 H178       -2.2362  -13.3745  -41.4737 H         1 UNK         0.0600 
    179 H179       -2.9028  -14.1001  -45.4158 H         1 UNK         0.3000 
    180 H180       -1.2860  -12.0404  -46.9246 H         1 UNK         0.0600 
    181 H181        1.0221  -12.7587  -47.3177 H         1 UNK         0.0600 
    182 H182        0.0770  -13.0393  -48.7703 H         1 UNK         0.0600 
    183 H183        0.5018  -14.3861  -47.7190 H         1 UNK         0.0600 
    184 H184       -2.1720  -14.8270  -47.5441 H         1 UNK         0.3000 
    185 H185       -5.3673  -13.7094  -48.2910 H         1 UNK         0.0600 
    186 H186       -4.4236  -13.1580  -50.5722 H         1 UNK         0.0600 
    187 H187       -3.5688  -14.6977  -50.5612 H         1 UNK         0.0600 
    188 H188       -5.3346  -14.6566  -50.5360 H         1 UNK         0.0600 
    189 H189       -4.4310  -16.2576  -48.8626 H         1 UNK         0.3000 
    190 H190        2.6294  -23.1171  -45.8957 H         1 UNK         0.3000 
    191 H191        1.3866  -24.8677  -45.3849 H         1 UNK         0.0600 
    192 H192        1.8064  -27.1222  -46.2627 H         1 UNK         0.0600 
    193 H193        3.3409  -26.3470  -45.9007 H         1 UNK         0.0600 
    194 H194        2.7948  -26.4940  -47.5706 H         1 UNK         0.0600 
    195 H195        0.2305  -22.9379  -46.6003 H         1 UNK         0.3000 
    196 H196       -0.9356  -23.4363  -49.1698 H         1 UNK         0.0600 
    197 H197       -1.7162  -21.3885  -47.0220 H         1 UNK         0.0600 
    198 H198       -0.4864  -21.1350  -48.2664 H         1 UNK         0.0600 
    199 H199       -2.1697  -21.3230  -48.7164 H         1 UNK         0.0600 
    200 H200       -3.1715  -23.6215  -49.6948 H         1 UNK         0.3000 
    201 H201       -4.6114  -25.6012  -48.1457 H         1 UNK         0.0600 
    202 H202       -6.1081  -25.6032  -50.1224 H         1 UNK         0.0600 
    203 H203       -4.4284  -25.7143  -50.6211 H         1 UNK         0.0600 
    204 H204       -5.2954  -24.1870  -50.7759 H         1 UNK         0.0600 
    205 H205       -4.5730  -23.7976  -46.3637 H         1 UNK         0.3000 
    206 H206       -5.6579  -22.5352  -44.9002 H         1 UNK         0.0600 
    207 H207       -7.4268  -24.2787  -45.0084 H         1 UNK         0.0600 
    208 H208       -8.1249  -22.7038  -44.6902 H         1 UNK         0.0600 
    209 H209       -8.2481  -23.4136  -46.2998 H         1 UNK         0.0600 
    210 H210       -8.3857  -21.3032  -46.3384 H         1 UNK         0.3000 
    211 H211       -7.3074  -18.6415  -46.6102 H         1 UNK         0.0600 
    212 H212      -10.1123  -19.7432  -47.1125 H         1 UNK         0.0600 
    213 H213       -9.6780  -18.0419  -46.9791 H         1 UNK         0.0600 
    214 H214       -9.5144  -19.0930  -45.5850 H         1 UNK         0.0600 
    215 H215       -5.8962  -20.0605  -48.4122 H         1 UNK         0.3000 
    216 H216       -7.0373  -19.9900  -51.0894 H         1 UNK         0.0600 
    217 H217       -4.8200  -20.8752  -51.7239 H         1 UNK         0.0600 
    218 H218       -5.4343  -21.7569  -50.3395 H         1 UNK         0.0600 
    219 H219       -4.1785  -20.5403  -50.1154 H         1 UNK         0.0600 
    220 H220       -6.2577  -18.7802  -52.8449 H         1 UNK         0.3000 
    221 H221       -5.3375  -16.0526  -52.3661 H         1 UNK         0.0600 
    222 H222       -7.0008  -16.5560  -54.1567 H         1 UNK         0.0600 
    223 H223       -5.5270  -15.8968  -54.8479 H         1 UNK         0.0600 
    224 H224       -5.8456  -17.6241  -54.9536 H         1 UNK         0.0600 
    225 H225       -3.2879  -15.2608  -52.8781 H         1 UNK         0.3000 
    226 H226       -1.1001  -17.0367  -52.5029 H         1 UNK         0.0600 
    227 H227       -1.1778  -14.7402  -51.5884 H         1 UNK         0.0600 
    228 H228        0.2346  -14.9376  -52.6078 H         1 UNK         0.0600 
    229 H229       -1.1650  -14.0630  -53.2186 H         1 UNK         0.0600 
    230 H230       -2.6934  -16.5172  -55.3841 H         1 UNK         0.3000 
    231 H231       -0.5920  -16.2695  -57.2826 H         1 UNK         0.0600 
    232 H232       -2.3480  -17.0298  -58.9002 H         1 UNK         0.0600 
    233 H233       -2.9414  -15.7639  -57.8372 H         1 UNK         0.0600 
    234 H234       -3.4117  -17.4406  -57.5600 H         1 UNK         0.0600 
    235 H235       -2.3214  -19.2082  -56.0635 H         1 UNK         0.3000 
    236 H236       -0.0808  -20.9096  -56.1675 H         1 UNK         0.0600 
    237 H237       -2.0502  -21.2053  -58.5188 H         1 UNK         0.0600 
    238 H238       -0.3180  -20.9077  -58.6494 H         1 UNK         0.0600 
    239 H239       -0.8959  -22.4429  -58.0405 H         1 UNK         0.0600 
    240 H240       -0.5583  -22.8496  -55.1221 H         1 UNK         0.3000 
    241 H241       -3.2182  -23.8631  -54.8555 H         1 UNK         0.0600 
    242 H242       -0.3161  -24.7530  -55.6731 H         1 UNK         0.3800 
    243 H243       -0.2076  -26.2656  -54.8251 H         1 UNK         0.3800 
    244 H244       -3.4117  -23.7884  -52.3828 H         1 UNK         0.0800 
    245 H245       -3.5313  -22.2383  -53.1325 H         1 UNK         0.0800 
    246 H246       -2.6130  -20.3294  -52.1457 H         1 UNK         0.0800 
    247 H247       -1.2573  -20.4925  -53.2283 H         1 UNK         0.0800 
@<TRIPOS>BOND
     1    1    2 1    
     2    1  127 1    
     3    1  128 1    
     4    1  129 1    
     5    2    3 2    
     6    2    4 am   BACKBONE|DICT|INTERRES
     7    4    5 1    
     8    4  130 1    
     9    5    6 1    
    10    5   65 1    
    11    5  131 1    
    12    6    7 1    
    13    6  132 1    
    14    6  133 1    
    15    7    8 1    
    16    8    9 1    
    17    8  134 1    
    18    8  135 1    
    19    9   10 ar   
    20    9   14 ar   
    21   10   11 ar   
    22   10  136 1    
    23   11   12 ar   
    24   11  126 1    
    25   12   13 ar   
    26   12  137 1    
    27   13   14 ar   
    28   13   15 1    
    29   14  138 1    
    30   15   16 1    
    31   15  139 1    
    32   15  140 1    
    33   16   17 1    
    34   17   18 1    
    35   17  141 1    
    36   17  142 1    
    37   18   19 1    
    38   18   67 1    
    39   18  143 1    
    40   19   20 am   BACKBONE|DICT|INTERRES
    41   19  144 1    
    42   20   21 2    
    43   20   22 1    
    44   22   23 1    
    45   22   24 1    
    46   22  145 1    
    47   23  146 1    
    48   23  147 1    
    49   23  148 1    
    50   24   25 am   BACKBONE|DICT|INTERRES
    51   24  149 1    
    52   25   26 2    
    53   25   27 1    
    54   27   28 1    
    55   27   29 1    
    56   27  150 1    
    57   28  151 1    
    58   28  152 1    
    59   28  153 1    
    60   29   30 am   BACKBONE|DICT|INTERRES
    61   29  154 1    
    62   30   31 2    
    63   30   32 1    
    64   32   33 1    
    65   32   34 1    
    66   32  155 1    
    67   33  156 1    
    68   33  157 1    
    69   33  158 1    
    70   34   35 am   BACKBONE|DICT|INTERRES
    71   34  159 1    
    72   35   36 2    
    73   35   37 1    
    74   37   38 1    
    75   37   39 1    
    76   37  160 1    
    77   38  161 1    
    78   38  162 1    
    79   38  163 1    
    80   39   40 am   BACKBONE|DICT|INTERRES
    81   39  164 1    
    82   40   41 2    
    83   40   42 1    
    84   42   43 1    
    85   42   44 1    
    86   42  165 1    
    87   43  166 1    
    88   43  167 1    
    89   43  168 1    
    90   44   45 am   BACKBONE|DICT|INTERRES
    91   44  169 1    
    92   45   46 2    
    93   45   47 1    
    94   47   48 1    
    95   47   49 1    
    96   47  170 1    
    97   48  171 1    
    98   48  172 1    
    99   48  173 1    
   100   49   50 am   BACKBONE|DICT|INTERRES
   101   49  174 1    
   102   50   51 2    
   103   50   52 1    
   104   52   53 1    
   105   52   54 1    
   106   52  175 1    
   107   53  176 1    
   108   53  177 1    
   109   53  178 1    
   110   54   55 am   BACKBONE|DICT|INTERRES
   111   54  179 1    
   112   55   56 2    
   113   55   57 1    
   114   57   58 1    
   115   57   59 1    
   116   57  180 1    
   117   58  181 1    
   118   58  182 1    
   119   58  183 1    
   120   59   60 am   BACKBONE|DICT|INTERRES
   121   59  184 1    
   122   60   61 2    
   123   60   62 1    
   124   62   63 1    
   125   62   64 1    
   126   62  185 1    
   127   63  186 1    
   128   63  187 1    
   129   63  188 1    
   130   64   65 am   BACKBONE|DICT|INTERRES
   131   64  189 1    
   132   65   66 2    
   133   67   68 2    
   134   67   69 am   BACKBONE|DICT|INTERRES
   135   69   70 1    
   136   69  190 1    
   137   70   71 1    
   138   70   72 1    
   139   70  191 1    
   140   71  192 1    
   141   71  193 1    
   142   71  194 1    
   143   72   73 2    
   144   72   74 am   BACKBONE|DICT|INTERRES
   145   74   75 1    
   146   74  195 1    
   147   75   76 1    
   148   75   77 1    
   149   75  196 1    
   150   76  197 1    
   151   76  198 1    
   152   76  199 1    
   153   77   78 2    
   154   77   79 am   BACKBONE|DICT|INTERRES
   155   79   80 1    
   156   79  200 1    
   157   80   81 1    
   158   80   82 1    
   159   80  201 1    
   160   81  202 1    
   161   81  203 1    
   162   81  204 1    
   163   82   83 2    
   164   82   84 am   BACKBONE|DICT|INTERRES
   165   84   85 1    
   166   84  205 1    
   167   85   86 1    
   168   85   87 1    
   169   85  206 1    
   170   86  207 1    
   171   86  208 1    
   172   86  209 1    
   173   87   88 2    
   174   87   89 am   BACKBONE|DICT|INTERRES
   175   89   90 1    
   176   89  210 1    
   177   90   91 1    
   178   90   92 1    
   179   90  211 1    
   180   91  212 1    
   181   91  213 1    
   182   91  214 1    
   183   92   93 2    
   184   92   94 am   BACKBONE|DICT|INTERRES
   185   94   95 1    
   186   94  215 1    
   187   95   96 1    
   188   95   97 1    
   189   95  216 1    
   190   96  217 1    
   191   96  218 1    
   192   96  219 1    
   193   97   98 2    
   194   97   99 am   BACKBONE|DICT|INTERRES
   195   99  100 1    
   196   99  220 1    
   197  100  101 1    
   198  100  102 1    
   199  100  221 1    
   200  101  222 1    
   201  101  223 1    
   202  101  224 1    
   203  102  103 2    
   204  102  104 am   BACKBONE|DICT|INTERRES
   205  104  105 1    
   206  104  225 1    
   207  105  106 1    
   208  105  107 1    
   209  105  226 1    
   210  106  227 1    
   211  106  228 1    
   212  106  229 1    
   213  107  108 2    
   214  107  109 am   BACKBONE|DICT|INTERRES
   215  109  110 1    
   216  109  230 1    
   217  110  111 1    
   218  110  112 1    
   219  110  231 1    
   220  111  232 1    
   221  111  233 1    
   222  111  234 1    
   223  112  113 2    
   224  112  114 am   BACKBONE|DICT|INTERRES
   225  114  115 1    
   226  114  235 1    
   227  115  116 1    
   228  115  117 1    
   229  115  236 1    
   230  116  237 1    
   231  116  238 1    
   232  116  239 1    
   233  117  118 2    
   234  117  119 am   BACKBONE|DICT|INTERRES
   235  119  120 1    
   236  119  240 1    
   237  120  121 1    
   238  120  124 1    
   239  120  241 1    
   240  121  122 am   BACKBONE|DICT|INTERRES
   241  121  123 2    
   242  122  242 1    
   243  122  243 1    
   244  124  125 1    
   245  124  244 1    
   246  124  245 1    
   247  125  126 1    
   248  126  246 1    
   249  126  247 1    
@<TRIPOS>SUBSTRUCTURE
     1 UNK         1 GROUP             0       ****    0 ROOT    
