@<TRIPOS>MOLECULE
3R540
247   249    1
SMALL
USER_CHARGES


@<TRIPOS>ATOM
      1 CA         -0.6224  -14.3156  -50.2028 C.3       0 UNK        -0.1800 
      2 C           0.7465  -13.9954  -49.6189 C.2       0 UNK         0.5000 
      3 O           1.1497  -14.6126  -48.6349 O.2       0 UNK        -0.5000 
      4 N           1.4493  -13.0206  -50.2106 N.am      1 UNK        -0.5000 
      5 CA          2.8013  -12.5356  -49.8834 C.3       1 UNK         0.1400 
      6 C6          3.9151  -13.6076  -50.0210 C.3       23 UNK        -0.0398 
      7 S7          4.1835  -14.1007  -51.7588 S.3       23 UNK        -0.2404 
      8 C8          4.3682  -15.9068  -51.6298 C.3       23 UNK        -0.0205 
      9 C9          3.0228  -16.6140  -51.6352 C.ar      23 UNK        -0.0193 
     10 C10         2.3840  -16.8943  -52.8471 C.ar      23 UNK        -0.1150 
     11 C11         1.1493  -17.5501  -52.8653 C.ar      23 UNK        -0.0193 
     12 C12         0.5485  -17.9144  -51.6575 C.ar      23 UNK        -0.1150 
     13 C13         1.1754  -17.6324  -50.4406 C.ar      23 UNK        -0.0193 
     14 C14         2.4189  -16.9963  -50.4352 C.ar      23 UNK        -0.1150 
     15 C15         0.4901  -17.9872  -49.1343 C.3       23 UNK        -0.0205 
     16 S16         0.6325  -19.7627  -48.7798 S.3       23 UNK        -0.2404 
     17 C17        -1.0786  -20.1086  -48.2667 C.3       23 UNK        -0.0398 
     18 CA         -1.2063  -21.4647  -47.5423 C.3       11 UNK         0.1400 
     19 N          -0.5598  -21.4381  -46.2278 N.am      11 UNK        -0.5000 
     20 C          -0.2884  -22.5170  -45.4833 C.2       10 UNK         0.5000 
     21 O          -0.5495  -23.6687  -45.8312 O.2       10 UNK        -0.5000 
     22 CA          0.3094  -22.2543  -44.0890 C.3       10 UNK         0.1400 
     23 CB          1.8013  -21.9030  -44.1837 C.3       10 UNK        -0.1800 
     24 N          -0.4005  -21.1903  -43.3767 N.am      10 UNK        -0.5000 
     25 C          -1.6807  -21.2610  -42.9842 C.2       9 UNK         0.5000 
     26 O          -2.3873  -22.2550  -43.1389 O.2       9 UNK        -0.5000 
     27 CA         -2.2921  -20.0000  -42.3546 C.3       9 UNK         0.1400 
     28 CB         -2.1328  -20.0096  -40.8262 C.3       9 UNK        -0.1800 
     29 N          -1.7128  -18.7807  -42.9211 N.am      9 UNK        -0.5000 
     30 C          -2.1113  -18.2519  -44.0861 C.2       8 UNK         0.5000 
     31 O          -2.9900  -18.7461  -44.7927 O.2       8 UNK        -0.5000 
     32 CA         -1.4097  -16.9650  -44.5530 C.3       8 UNK         0.1400 
     33 CB         -1.9775  -15.7391  -43.8217 C.3       8 UNK        -0.1800 
     34 N           0.0461  -16.9743  -44.4153 N.am      8 UNK        -0.5000 
     35 C           0.8726  -17.8267  -45.0354 C.2       7 UNK         0.5000 
     36 O           0.4930  -18.8412  -45.6161 O.2       7 UNK        -0.5000 
     37 CA          2.3715  -17.4947  -44.9872 C.3       7 UNK         0.1400 
     38 CB          2.6699  -16.1502  -45.6724 C.3       7 UNK        -0.1800 
     39 N           2.8101  -17.4386  -43.5988 N.am      7 UNK        -0.5000 
     40 C           3.5478  -18.3780  -42.9930 C.2       6 UNK         0.5000 
     41 O           4.0849  -19.3168  -43.5813 O.2       6 UNK        -0.5000 
     42 CA          3.6952  -18.2719  -41.4600 C.3       6 UNK         0.1400 
     43 CB          5.0254  -17.5958  -41.0944 C.3       6 UNK        -0.1800 
     44 N           2.6023  -17.5519  -40.7999 N.am      6 UNK        -0.5000 
     45 C           1.3037  -17.8784  -40.8638 C.2       5 UNK         0.5000 
     46 O           0.8712  -18.8567  -41.4722 O.2       5 UNK        -0.5000 
     47 CA          0.3094  -16.9059  -40.2026 C.3       5 UNK         0.1400 
     48 CB          0.0146  -17.3400  -38.7597 C.3       5 UNK        -0.1800 
     49 N           0.7345  -15.5013  -40.2099 N.am      5 UNK        -0.5000 
     50 C           1.0409  -14.7836  -41.2996 C.2       4 UNK         0.5000 
     51 O           1.1067  -15.2521  -42.4393 O.2       4 UNK        -0.5000 
     52 CA          1.3755  -13.3007  -41.0691 C.3       4 UNK         0.1400 
     53 CB          2.8965  -13.1134  -40.9611 C.3       4 UNK        -0.1800 
     54 N           0.8726  -12.4601  -42.1536 N.am      4 UNK        -0.5000 
     55 C          -0.4199  -12.2706  -42.4569 C.2       3 UNK         0.5000 
     56 O          -1.3505  -12.7303  -41.7937 O.2       3 UNK        -0.5000 
     57 CA         -0.7311  -11.4067  -43.6964 C.3       3 UNK         0.1400 
     58 CB         -1.2967  -10.0417  -43.2725 C.3       3 UNK        -0.1800 
     59 N           0.4425  -11.1852  -44.5461 N.am      3 UNK        -0.5000 
     60 C           0.8979  -12.0580  -45.4526 C.2       2 UNK         0.5000 
     61 O           0.3499  -13.1306  -45.7132 O.2       2 UNK        -0.5000 
     62 CA          2.2051  -11.6713  -46.1549 C.3       2 UNK         0.1400 
     63 CB          3.4253  -12.1235  -45.3321 C.3       2 UNK        -0.1800 
     64 N           2.2477  -12.2773  -47.4804 N.am      2 UNK        -0.5000 
     65 C           2.9094  -11.7889  -48.5335 C.2       1 UNK         0.5000 
     66 O           3.5895  -10.7625  -48.4795 O.2       1 UNK        -0.5000 
     67 C          -2.6852  -21.8998  -47.4779 C.2       11 UNK         0.5000 
     68 O          -3.2064  -22.3807  -48.4842 O.2       11 UNK        -0.5000 
     69 N          -3.3390  -21.7219  -46.3229 N.am      12 UNK        -0.5000 
     70 CA         -4.7093  -22.1719  -46.0707 C.3       12 UNK         0.1400 
     71 CB         -5.3500  -21.2525  -45.0201 C.3       12 UNK        -0.1800 
     72 C          -4.7848  -23.6460  -45.6259 C.2       12 UNK         0.5000 
     73 O          -5.8768  -24.2163  -45.6357 O.2       12 UNK        -0.5000 
     74 N          -3.6444  -24.2321  -45.2366 N.am      13 UNK        -0.5000 
     75 CA         -3.5056  -25.6270  -44.8275 C.3       13 UNK         0.1400 
     76 CB         -2.4234  -25.7210  -43.7324 C.3       13 UNK        -0.1800 
     77 C          -3.2336  -26.5318  -46.0485 C.2       13 UNK         0.5000 
     78 O          -3.7562  -26.2751  -47.1353 O.2       13 UNK        -0.5000 
     79 N          -2.4268  -27.5846  -45.8534 N.am      14 UNK        -0.5000 
     80 CA         -2.1376  -28.6512  -46.8193 C.3       14 UNK         0.1400 
     81 CB         -1.2398  -29.6981  -46.1413 C.3       14 UNK        -0.1800 
     82 C          -1.5129  -28.1931  -48.1534 C.2       14 UNK         0.5000 
     83 O          -1.6195  -28.9191  -49.1428 O.2       14 UNK        -0.5000 
     84 N          -0.8867  -27.0077  -48.1701 N.am      15 UNK        -0.5000 
     85 CA         -0.3613  -26.3697  -49.3785 C.3       15 UNK         0.1400 
     86 CB          0.5171  -25.1760  -48.9762 C.3       15 UNK        -0.1800 
     87 C          -1.4704  -25.9187  -50.3506 C.2       15 UNK         0.5000 
     88 O          -1.2511  -25.9389  -51.5616 O.2       15 UNK        -0.5000 
     89 N          -2.6293  -25.5211  -49.7999 N.am      16 UNK        -0.5000 
     90 CA         -3.8691  -25.1128  -50.4755 C.3       16 UNK         0.1400 
     91 CB         -4.5081  -26.3210  -51.1880 C.3       16 UNK        -0.1800 
     92 C          -3.7539  -23.8911  -51.4152 C.2       16 UNK         0.5000 
     93 O          -4.6977  -23.6055  -52.1531 O.2       16 UNK        -0.5000 
     94 N          -2.6289  -23.1667  -51.3664 N.am      17 UNK        -0.5000 
     95 CA         -2.3260  -22.0219  -52.2238 C.3       17 UNK         0.1400 
     96 CB         -0.8624  -21.6078  -52.0187 C.3       17 UNK        -0.1800 
     97 C          -3.2704  -20.8241  -52.0203 C.2       17 UNK         0.5000 
     98 O          -3.5343  -20.1048  -52.9833 O.2       17 UNK        -0.5000 
     99 N          -3.7880  -20.6448  -50.7956 N.am      18 UNK        -0.5000 
    100 CA        -4.7658  -19.6014  -50.4772 C.3       18 UNK         0.1400 
    101 CB        -4.7895  -19.3368  -48.9645 C.3       18 UNK        -0.1800 
    102 C         -6.1722  -19.9626  -50.9834 C.2       18 UNK         0.5000 
    103 O         -6.8935  -19.0783  -51.4435 O.2       18 UNK        -0.5000 
    104 N         -6.5222  -21.2561  -50.9275 N.am      19 UNK        -0.5000 
    105 CA        -7.7787  -21.7990  -51.4499 C.3       19 UNK         0.1400 
    106 CB        -7.9884  -23.2219  -50.9087 C.3       19 UNK        -0.1800 
    107 C         -7.8143  -21.7797  -52.9891 C.2       19 UNK         0.5000 
    108 O         -8.8510  -21.4675  -53.5751 O.2       19 UNK        -0.5000 
    109 N         -6.6620  -22.0658  -53.6094 N.am      20 UNK        -0.5000 
    110 CA        -6.4259  -21.9582  -55.0494 C.3       20 UNK         0.1400 
    111 CB        -5.1715  -22.7751  -55.3982 C.3       20 UNK        -0.1800 
    112 C         -6.2645  -20.5039  -55.5400 C.2       20 UNK         0.5000 
    113 O         -6.2371  -20.2846  -56.7518 O.2       20 UNK        -0.5000 
    114 N         -6.1160  -19.5484  -54.6082 N.am      21 UNK        -0.5000 
    115 CA        -5.8700  -18.1161  -54.8204 C.3       21 UNK         0.1400 
    116 CB        -7.1380  -17.4316  -55.3698 C.3       21 UNK        -0.1800 
    117 C         -4.6158  -17.8511  -55.6822 C.2       21 UNK         0.5000 
    118 O         -4.6354  -16.9932  -56.5668 O.2       21 UNK        -0.5000 
    119 N         -3.5644  -18.6396  -55.4259 N.am      22 UNK        -0.5000 
    120 CA        -2.3093  -18.7221  -56.1911 C.3       22 UNK         0.1400 
    121 C         -2.4551  -19.2806  -57.6423 C.2       22 UNK         0.5000 
    122 N         -3.5955  -19.8269  -58.0489 N.am      22 UNK        -0.7600 
    123 O         -1.4991  -19.2553  -58.4128 O.2       22 UNK        -0.5000 
    124 C124       -1.4669  -17.4149  -56.1442 C.3       23 UNK        -0.0398 
    125 S125       -1.0324  -16.8966  -54.4485 S.3       23 UNK        -0.2404 
    126 C126        0.4749  -17.8824  -54.1869 C.3       23 UNK        -0.0205 
    127 H127       -0.6135  -15.3043  -50.6601 H         1 UNK         0.0600 
    128 H128       -0.9178  -13.5929  -50.9635 H         1 UNK         0.0600 
    129 H129       -1.3769  -14.3091  -49.4164 H         1 UNK         0.0600 
    130 H130        1.0283  -12.5513  -50.9999 H         1 UNK         0.3000 
    131 H131        3.0030  -11.7725  -50.6372 H         1 UNK         0.0600 
    132 H132        4.8689  -13.2217  -49.6565 H         1 UNK         0.0800 
    133 H133        3.6918  -14.4792  -49.4058 H         1 UNK         0.0800 
    134 H134        4.9386  -16.1621  -50.7353 H         1 UNK         0.0800 
    135 H135        4.9623  -16.2573  -52.4750 H         1 UNK         0.0800 
    136 H136        2.8529  -16.6025  -53.7764 H         1 UNK         0.1150 
    137 H137       -0.4119  -18.4109  -51.6644 H         1 UNK         0.1150 
    138 H138        2.9030  -16.7771  -49.4940 H         1 UNK         0.1150 
    139 H139        0.9169  -17.4233  -48.3039 H         1 UNK         0.0800 
    140 H140       -0.5566  -17.6863  -49.1963 H         1 UNK         0.0800 
    141 H141       -1.6867  -20.0805  -49.1702 H         1 UNK         0.0800 
    142 H142       -1.4386  -19.3023  -47.6242 H         1 UNK         0.0800 
    143 H143       -0.6950  -22.2152  -48.1470 H         1 UNK         0.0600 
    144 H144       -0.2637  -20.5217  -45.8959 H         1 UNK         0.3000 
    145 H145        0.2116  -23.1725  -43.5059 H         1 UNK         0.0600 
    146 H146        1.9675  -20.9849  -44.7481 H         1 UNK         0.0600 
    147 H147        2.2387  -21.7677  -43.1942 H         1 UNK         0.0600 
    148 H148        2.3584  -22.6980  -44.6806 H         1 UNK         0.0600 
    149 H149        0.1099  -20.3355  -43.1989 H         1 UNK         0.3000 
    150 H150       -3.3634  -20.0072  -42.5665 H         1 UNK         0.0600 
    151 H151       -2.7096  -20.8246  -40.3876 H         1 UNK         0.0600 
    152 H152       -2.4932  -19.0815  -40.3824 H         1 UNK         0.0600 
    153 H153       -1.0974  -20.1527  -40.5202 H         1 UNK         0.0600 
    154 H154       -0.9097  -18.3925  -42.4437 H         1 UNK         0.3000 
    155 H155       -1.6272  -16.8482  -45.6168 H         1 UNK         0.0600 
    156 H156       -3.0611  -15.6828  -43.9319 H         1 UNK         0.0600 
    157 H157       -1.7556  -15.7659  -42.7543 H         1 UNK         0.0600 
    158 H158       -1.5615  -14.8148  -44.2237 H         1 UNK         0.0600 
    159 H159        0.4466  -16.2002  -43.8912 H         1 UNK         0.3000 
    160 H160        2.9034  -18.2757  -45.5345 H         1 UNK         0.0600 
    161 H161        3.7389  -15.9380  -45.6719 H         1 UNK         0.0600 
    162 H162        2.3420  -16.1609  -46.7120 H         1 UNK         0.0600 
    163 H163        2.1655  -15.3186  -45.1790 H         1 UNK         0.0600 
    164 H164        2.3832  -16.7167  -43.0285 H         1 UNK         0.3000 
    165 H165        3.7044  -19.2894  -41.0641 H         1 UNK         0.0600 
    166 H166        5.1863  -17.5966  -40.0162 H         1 UNK         0.0600 
    167 H167        5.8681  -18.1199  -41.5474 H         1 UNK         0.0600 
    168 H168        5.0579  -16.5615  -41.4395 H         1 UNK         0.0600 
    169 H169        2.8557  -16.7190  -40.2897 H         1 UNK         0.3000 
    170 H170       -0.6222  -16.9621  -40.7684 H         1 UNK         0.0600 
    171 H171       -0.3221  -18.3770  -38.7230 H         1 UNK         0.0600 
    172 H172        0.8992  -17.2599  -38.1267 H         1 UNK         0.0600 
    173 H173       -0.7728  -16.7300  -38.3167 H         1 UNK         0.0600 
    174 H174        0.7291  -15.0360  -39.3134 H         1 UNK         0.3000 
    175 H175        0.9103  -12.9693  -40.1385 H         1 UNK         0.0600 
    176 H176        3.4059  -13.4202  -41.8759 H         1 UNK         0.0600 
    177 H177        3.1535  -12.0718  -40.7671 H         1 UNK         0.0600 
    178 H178        3.3075  -13.7057  -40.1425 H         1 UNK         0.0600 
    179 H179        1.5636  -12.0644  -42.7710 H         1 UNK         0.3000 
    180 H180       -1.4976  -11.9280  -44.2740 H         1 UNK         0.0600 
    181 H181       -0.5766   -9.4721  -42.6837 H         1 UNK         0.0600 
    182 H182       -2.1951  -10.1615  -42.6656 H         1 UNK         0.0600 
    183 H183       -1.5714   -9.4419  -44.1405 H         1 UNK         0.0600 
    184 H184        0.9457  -10.3220  -44.3967 H         1 UNK         0.3000 
    185 H185        2.2234  -10.5840  -46.2578 H         1 UNK         0.0600 
    186 H186        4.3578  -11.8224  -45.8094 H         1 UNK         0.0600 
    187 H187        3.4157  -11.6806  -44.3358 H         1 UNK         0.0600 
    188 H188        3.4481  -13.2068  -45.2104 H         1 UNK         0.0600 
    189 H189        1.6923  -13.1240  -47.5968 H         1 UNK         0.3000 
    190 H190       -2.8557  -21.2883  -45.5486 H         1 UNK         0.3000 
    191 H191       -5.2925  -22.0872  -46.9895 H         1 UNK         0.0600 
    192 H192       -4.8290  -21.3096  -44.0646 H         1 UNK         0.0600 
    193 H193       -6.3908  -21.5261  -44.8428 H         1 UNK         0.0600 
    194 H194       -5.3394  -20.2127  -45.3476 H         1 UNK         0.0600 
    195 H195       -2.7883  -23.6954  -45.2737 H         1 UNK         0.3000 
    196 H196       -4.4458  -25.9655  -44.3878 H         1 UNK         0.0600 
    197 H197       -2.3944  -26.7140  -43.2827 H         1 UNK         0.0600 
    198 H198       -2.6253  -25.0179  -42.9240 H         1 UNK         0.0600 
    199 H199       -1.4290  -25.4991  -44.1202 H         1 UNK         0.0600 
    200 H200       -2.0234  -27.7037  -44.9356 H         1 UNK         0.3000 
    201 H201       -3.0886  -29.1279  -47.0648 H         1 UNK         0.0600 
    202 H202       -1.7190  -30.1170  -45.2563 H         1 UNK         0.0600 
    203 H203       -0.2842  -29.2697  -45.8365 H         1 UNK         0.0600 
    204 H204       -1.0268  -30.5287  -46.8157 H         1 UNK         0.0600 
    205 H205       -0.8381  -26.4766  -47.3125 H         1 UNK         0.3000 
    206 H206        0.2657  -27.0939  -49.9029 H         1 UNK         0.0600 
    207 H207        1.3587  -25.4947  -48.3610 H         1 UNK         0.0600 
    208 H208        0.9270  -24.6751  -49.8543 H         1 UNK         0.0600 
    209 H209       -0.0493  -24.4380  -48.4097 H         1 UNK         0.0600 
    210 H210       -2.7153  -25.5854  -48.7909 H         1 UNK         0.3000 
    211 H211       -4.5476  -24.8050  -49.6785 H         1 UNK         0.0600 
    212 H212       -3.9042  -26.6571  -52.0313 H         1 UNK         0.0600 
    213 H213       -5.4987  -26.0747  -51.5722 H         1 UNK         0.0600 
    214 H214       -4.6274  -27.1616  -50.5042 H         1 UNK         0.0600 
    215 H215       -1.9173  -23.4529  -50.7120 H         1 UNK         0.3000 
    216 H216       -2.4393  -22.3485  -53.2593 H         1 UNK         0.0600 
    217 H217       -0.6056  -20.7511  -52.6425 H         1 UNK         0.0600 
    218 H218       -0.6618  -21.3346  -50.9840 H         1 UNK         0.0600 
    219 H219       -0.1838  -22.4178  -52.2866 H         1 UNK         0.0600 
    220 H220       -3.5574  -21.3093  -50.0622 H         1 UNK         0.3000 
    221 H221       -4.4610  -18.6763  -50.9719 H         1 UNK         0.0600 
    222 H222       -5.0908  -20.2216  -48.4059 H         1 UNK         0.0600 
    223 H223       -3.8147  -19.0182  -48.5984 H         1 UNK         0.0600 
    224 H224       -5.4973  -18.5436  -48.7207 H         1 UNK         0.0600 
    225 H225       -5.8513  -21.9239  -50.5778 H         1 UNK         0.3000 
    226 H226       -8.5982  -21.1741  -51.0882 H         1 UNK         0.0600 
    227 H227       -8.0061  -23.2307  -49.8188 H         1 UNK         0.0600 
    228 H228       -8.9391  -23.6313  -51.2523 H         1 UNK         0.0600 
    229 H229       -7.2026  -23.9026  -51.2367 H         1 UNK         0.0600 
    230 H230       -5.8825  -22.4008  -53.0490 H         1 UNK         0.3000 
    231 H231       -7.2782  -22.3919  -55.5762 H         1 UNK         0.0600 
    232 H232       -4.9873  -22.7741  -56.4733 H         1 UNK         0.0600 
    233 H233       -5.2776  -23.8147  -55.0875 H         1 UNK         0.0600 
    234 H234       -4.2832  -22.3698  -54.9128 H         1 UNK         0.0600 
    235 H235       -6.1242  -19.8430  -53.6420 H         1 UNK         0.3000 
    236 H236       -5.6610  -17.6911  -53.8376 H         1 UNK         0.0600 
    237 H237       -7.0070  -16.3503  -55.4242 H         1 UNK         0.0600 
    238 H238       -7.9967  -17.6217  -54.7258 H         1 UNK         0.0600 
    239 H239       -7.3857  -17.7833  -56.3718 H         1 UNK         0.0600 
    240 H240       -3.6335  -19.2775  -54.6357 H         1 UNK         0.3000 
    241 H241       -1.7298  -19.4899  -55.6780 H         1 UNK         0.0600 
    242 H242       -3.6552  -20.1902  -58.9867 H         1 UNK         0.3800 
    243 H243       -4.4161  -19.8566  -57.4537 H         1 UNK         0.3800 
    244 H244       -2.0060  -16.5977  -56.6244 H         1 UNK         0.0800 
    245 H245       -0.5413  -17.5274  -56.7109 H         1 UNK         0.0800 
    246 H246        1.1647  -17.7153  -55.0156 H         1 UNK         0.0800 
    247 H247        0.2223  -18.9432  -54.2039 H         1 UNK         0.0800 
@<TRIPOS>BOND
     1    1    2 1    
     2    1  127 1    
     3    1  128 1    
     4    1  129 1    
     5    2    3 2    
     6    2    4 am   BACKBONE|DICT|INTERRES
     7    4    5 1    
     8    4  130 1    
     9    5    6 1    
    10    5   65 1    
    11    5  131 1    
    12    6    7 1    
    13    6  132 1    
    14    6  133 1    
    15    7    8 1    
    16    8    9 1    
    17    8  134 1    
    18    8  135 1    
    19    9   10 ar   
    20    9   14 ar   
    21   10   11 ar   
    22   10  136 1    
    23   11   12 ar   
    24   11  126 1    
    25   12   13 ar   
    26   12  137 1    
    27   13   14 ar   
    28   13   15 1    
    29   14  138 1    
    30   15   16 1    
    31   15  139 1    
    32   15  140 1    
    33   16   17 1    
    34   17   18 1    
    35   17  141 1    
    36   17  142 1    
    37   18   19 1    
    38   18   67 1    
    39   18  143 1    
    40   19   20 am   BACKBONE|DICT|INTERRES
    41   19  144 1    
    42   20   21 2    
    43   20   22 1    
    44   22   23 1    
    45   22   24 1    
    46   22  145 1    
    47   23  146 1    
    48   23  147 1    
    49   23  148 1    
    50   24   25 am   BACKBONE|DICT|INTERRES
    51   24  149 1    
    52   25   26 2    
    53   25   27 1    
    54   27   28 1    
    55   27   29 1    
    56   27  150 1    
    57   28  151 1    
    58   28  152 1    
    59   28  153 1    
    60   29   30 am   BACKBONE|DICT|INTERRES
    61   29  154 1    
    62   30   31 2    
    63   30   32 1    
    64   32   33 1    
    65   32   34 1    
    66   32  155 1    
    67   33  156 1    
    68   33  157 1    
    69   33  158 1    
    70   34   35 am   BACKBONE|DICT|INTERRES
    71   34  159 1    
    72   35   36 2    
    73   35   37 1    
    74   37   38 1    
    75   37   39 1    
    76   37  160 1    
    77   38  161 1    
    78   38  162 1    
    79   38  163 1    
    80   39   40 am   BACKBONE|DICT|INTERRES
    81   39  164 1    
    82   40   41 2    
    83   40   42 1    
    84   42   43 1    
    85   42   44 1    
    86   42  165 1    
    87   43  166 1    
    88   43  167 1    
    89   43  168 1    
    90   44   45 am   BACKBONE|DICT|INTERRES
    91   44  169 1    
    92   45   46 2    
    93   45   47 1    
    94   47   48 1    
    95   47   49 1    
    96   47  170 1    
    97   48  171 1    
    98   48  172 1    
    99   48  173 1    
   100   49   50 am   BACKBONE|DICT|INTERRES
   101   49  174 1    
   102   50   51 2    
   103   50   52 1    
   104   52   53 1    
   105   52   54 1    
   106   52  175 1    
   107   53  176 1    
   108   53  177 1    
   109   53  178 1    
   110   54   55 am   BACKBONE|DICT|INTERRES
   111   54  179 1    
   112   55   56 2    
   113   55   57 1    
   114   57   58 1    
   115   57   59 1    
   116   57  180 1    
   117   58  181 1    
   118   58  182 1    
   119   58  183 1    
   120   59   60 am   BACKBONE|DICT|INTERRES
   121   59  184 1    
   122   60   61 2    
   123   60   62 1    
   124   62   63 1    
   125   62   64 1    
   126   62  185 1    
   127   63  186 1    
   128   63  187 1    
   129   63  188 1    
   130   64   65 am   BACKBONE|DICT|INTERRES
   131   64  189 1    
   132   65   66 2    
   133   67   68 2    
   134   67   69 am   BACKBONE|DICT|INTERRES
   135   69   70 1    
   136   69  190 1    
   137   70   71 1    
   138   70   72 1    
   139   70  191 1    
   140   71  192 1    
   141   71  193 1    
   142   71  194 1    
   143   72   73 2    
   144   72   74 am   BACKBONE|DICT|INTERRES
   145   74   75 1    
   146   74  195 1    
   147   75   76 1    
   148   75   77 1    
   149   75  196 1    
   150   76  197 1    
   151   76  198 1    
   152   76  199 1    
   153   77   78 2    
   154   77   79 am   BACKBONE|DICT|INTERRES
   155   79   80 1    
   156   79  200 1    
   157   80   81 1    
   158   80   82 1    
   159   80  201 1    
   160   81  202 1    
   161   81  203 1    
   162   81  204 1    
   163   82   83 2    
   164   82   84 am   BACKBONE|DICT|INTERRES
   165   84   85 1    
   166   84  205 1    
   167   85   86 1    
   168   85   87 1    
   169   85  206 1    
   170   86  207 1    
   171   86  208 1    
   172   86  209 1    
   173   87   88 2    
   174   87   89 am   BACKBONE|DICT|INTERRES
   175   89   90 1    
   176   89  210 1    
   177   90   91 1    
   178   90   92 1    
   179   90  211 1    
   180   91  212 1    
   181   91  213 1    
   182   91  214 1    
   183   92   93 2    
   184   92   94 am   BACKBONE|DICT|INTERRES
   185   94   95 1    
   186   94  215 1    
   187   95   96 1    
   188   95   97 1    
   189   95  216 1    
   190   96  217 1    
   191   96  218 1    
   192   96  219 1    
   193   97   98 2    
   194   97   99 am   BACKBONE|DICT|INTERRES
   195   99  100 1    
   196   99  220 1    
   197  100  101 1    
   198  100  102 1    
   199  100  221 1    
   200  101  222 1    
   201  101  223 1    
   202  101  224 1    
   203  102  103 2    
   204  102  104 am   BACKBONE|DICT|INTERRES
   205  104  105 1    
   206  104  225 1    
   207  105  106 1    
   208  105  107 1    
   209  105  226 1    
   210  106  227 1    
   211  106  228 1    
   212  106  229 1    
   213  107  108 2    
   214  107  109 am   BACKBONE|DICT|INTERRES
   215  109  110 1    
   216  109  230 1    
   217  110  111 1    
   218  110  112 1    
   219  110  231 1    
   220  111  232 1    
   221  111  233 1    
   222  111  234 1    
   223  112  113 2    
   224  112  114 am   BACKBONE|DICT|INTERRES
   225  114  115 1    
   226  114  235 1    
   227  115  116 1    
   228  115  117 1    
   229  115  236 1    
   230  116  237 1    
   231  116  238 1    
   232  116  239 1    
   233  117  118 2    
   234  117  119 am   BACKBONE|DICT|INTERRES
   235  119  120 1    
   236  119  240 1    
   237  120  121 1    
   238  120  124 1    
   239  120  241 1    
   240  121  122 am   BACKBONE|DICT|INTERRES
   241  121  123 2    
   242  122  242 1    
   243  122  243 1    
   244  124  125 1    
   245  124  244 1    
   246  124  245 1    
   247  125  126 1    
   248  126  246 1    
   249  126  247 1    
@<TRIPOS>SUBSTRUCTURE
     1 UNK         1 GROUP             0       ****    0 ROOT    
