@<TRIPOS>MOLECULE
3R540
247   249    1
SMALL
USER_CHARGES


@<TRIPOS>ATOM
      1 CA          3.3336   -9.6523  -46.5339 C.3       0 UNK        -0.1800 
      2 C           4.0610  -10.9587  -46.8163 C.2       0 UNK         0.5000 
      3 O           5.2872  -10.9692  -46.9295 O.2       0 UNK        -0.5000 
      4 N           3.3161  -12.0666  -46.9132 N.am      1 UNK        -0.5000 
      5 CA          3.8019  -13.4217  -47.2208 C.3       1 UNK         0.1400 
      6 C6          2.6911  -14.2989  -47.8638 C.3       23 UNK        -0.0398 
      7 S7          1.8455  -13.4691  -49.2559 S.3       23 UNK        -0.2404 
      8 C8          2.4367  -14.4041  -50.6977 C.3       23 UNK        -0.0205 
      9 C9          1.5132  -15.5657  -51.0304 C.ar      23 UNK        -0.0193 
     10 C10         0.3406  -15.3371  -51.7549 C.ar      23 UNK        -0.1150 
     11 C11        -0.4921  -16.3992  -52.1153 C.ar      23 UNK        -0.0193 
     12 C12        -0.1555  -17.6987  -51.7241 C.ar      23 UNK        -0.1150 
     13 C13         1.0155  -17.9456  -50.9986 C.ar      23 UNK        -0.0193 
     14 C14         1.8473  -16.8702  -50.6592 C.ar      23 UNK        -0.1150 
     15 C15         1.3883  -19.3864  -50.6504 C.3       23 UNK        -0.0205 
     16 S16         2.2409  -19.5812  -49.0483 S.3       23 UNK        -0.2404 
     17 C17         0.9259  -19.0776  -47.8946 C.3       23 UNK        -0.0398 
     18 CA          0.3549  -20.2677  -47.0911 C.3       11 UNK         0.1400 
     19 N          -0.2684  -19.8180  -45.8472 N.am      11 UNK        -0.5000 
     20 C          -0.7456  -20.6238  -44.8902 C.2       10 UNK         0.5000 
     21 O          -0.6689  -21.8511  -44.9200 O.2       10 UNK        -0.5000 
     22 CA         -1.4650  -19.9382  -43.7196 C.3       10 UNK         0.1400 
     23 CB         -0.4557  -19.4974  -42.6507 C.3       10 UNK        -0.1800 
     24 N          -2.2670  -18.7952  -44.1632 N.am      10 UNK        -0.5000 
     25 C          -3.3847  -18.9089  -44.8955 C.2       9 UNK         0.5000 
     26 O          -3.8784  -19.9878  -45.2244 O.2       9 UNK        -0.5000 
     27 CA         -4.0317  -17.5981  -45.3774 C.3       9 UNK         0.1400 
     28 CB         -4.8023  -16.9177  -44.2360 C.3       9 UNK        -0.1800 
     29 N          -3.0536  -16.6618  -45.9328 N.am      9 UNK        -0.5000 
     30 C          -2.3649  -16.8694  -47.0646 C.2       8 UNK         0.5000 
     31 O          -2.4995  -17.8647  -47.7729 O.2       8 UNK        -0.5000 
     32 CA         -1.3127  -15.8143  -47.4548 C.3       8 UNK         0.1400 
     33 CB         -1.9337  -14.7459  -48.3642 C.3       8 UNK        -0.1800 
     34 N          -0.6598  -15.1581  -46.3203 N.am      8 UNK        -0.5000 
     35 C          -0.0018  -15.7779  -45.3312 C.2       7 UNK         0.5000 
     36 O           0.0527  -17.0041  -45.2164 O.2       7 UNK        -0.5000 
     37 CA          0.7304  -14.8882  -44.3047 C.3       7 UNK         0.1400 
     38 CB          0.3879  -13.3845  -44.4008 C.3       7 UNK        -0.1800 
     39 N           0.5662  -15.3646  -42.9330 N.am      7 UNK        -0.5000 
     40 C          -0.5869  -15.5495  -42.2744 C.2       6 UNK         0.5000 
     41 O          -1.6995  -15.3530  -42.7667 O.2       6 UNK        -0.5000 
     42 CA         -0.4586  -16.0612  -40.8295 C.3       6 UNK         0.1400 
     43 CB         -1.7533  -16.7105  -40.3053 C.3       6 UNK        -0.1800 
     44 N           0.6548  -17.0085  -40.7326 N.am      6 UNK        -0.5000 
     45 C           1.6651  -16.9256  -39.8610 C.2       5 UNK         0.5000 
     46 O           1.7438  -16.0685  -38.9801 O.2       5 UNK        -0.5000 
     47 CA          2.7886  -17.9724  -39.9951 C.3       5 UNK         0.1400 
     48 CB          2.4887  -19.1855  -39.1007 C.3       5 UNK        -0.1800 
     49 N           3.0654  -18.4475  -41.3577 N.am      5 UNK        -0.5000 
     50 C           3.4626  -17.6894  -42.3896 C.2       4 UNK         0.5000 
     51 O           3.4432  -16.4559  -42.3851 O.2       4 UNK        -0.5000 
     52 CA          3.9613  -18.4473  -43.6334 C.3       4 UNK         0.1400 
     53 CB          2.8494  -18.6013  -44.6750 C.3       4 UNK        -0.1800 
     54 N           5.0613  -17.7133  -44.2483 N.am      4 UNK        -0.5000 
     55 C           6.3557  -18.0504  -44.1723 C.2       3 UNK         0.5000 
     56 O           6.7652  -19.0793  -43.6329 O.2       3 UNK        -0.5000 
     57 CA          7.3742  -17.0701  -44.7938 C.3       3 UNK         0.1400 
     58 CB          7.7402  -17.5087  -46.2200 C.3       3 UNK        -0.1800 
     59 N           6.8884  -15.6903  -44.8331 N.am      3 UNK        -0.5000 
     60 C           6.6331  -14.9399  -43.7538 C.2       2 UNK         0.5000 
     61 O           6.9453  -15.2744  -42.6100 O.2       2 UNK        -0.5000 
     62 CA          5.8934  -13.6035  -43.9695 C.3       2 UNK         0.1400 
     63 CB          6.8009  -12.4179  -43.6033 C.3       2 UNK        -0.1800 
     64 N           5.3432  -13.3634  -45.3095 N.am      2 UNK        -0.5000 
     65 C           4.4226  -14.0840  -45.9648 C.2       1 UNK         0.5000 
     66 O           4.0467  -15.1979  -45.5977 O.2       1 UNK        -0.5000 
     67 C          -0.6167  -21.1211  -47.9330 C.2       11 UNK         0.5000 
     68 O          -0.2576  -22.2218  -48.3517 O.2       11 UNK        -0.5000 
     69 N          -1.8488  -20.6242  -48.1107 N.am      12 UNK        -0.5000 
     70 CA         -2.9353  -21.3251  -48.7883 C.3       12 UNK         0.1400 
     71 CB         -4.1341  -20.3858  -48.9474 C.3       12 UNK        -0.1800 
     72 C          -3.3549  -22.6141  -48.0666 C.2       12 UNK         0.5000 
     73 O          -3.5478  -23.6315  -48.7288 O.2       12 UNK        -0.5000 
     74 N          -3.4489  -22.5680  -46.7295 N.am      13 UNK        -0.5000 
     75 CA         -3.7562  -23.7265  -45.8884 C.3       13 UNK         0.1400 
     76 CB         -3.9520  -23.2792  -44.4324 C.3       13 UNK        -0.1800 
     77 C          -2.6905  -24.8342  -45.9866 C.2       13 UNK         0.5000 
     78 O          -3.0483  -26.0060  -46.1071 O.2       13 UNK        -0.5000 
     79 N          -1.4081  -24.4432  -45.9812 N.am      14 UNK        -0.5000 
     80 CA         -0.2624  -25.3364  -46.1650 C.3       14 UNK         0.1400 
     81 CB          1.0347  -24.5749  -45.8516 C.3       14 UNK        -0.1800 
     82 C          -0.2055  -25.9554  -47.5748 C.2       14 UNK         0.5000 
     83 O           0.1223  -27.1350  -47.7079 O.2       14 UNK        -0.5000 
     84 N          -0.5487  -25.1590  -48.5960 N.am      15 UNK        -0.5000 
     85 CA         -0.6347  -25.5816  -49.9959 C.3       15 UNK         0.1400 
     86 CB         -0.6149  -24.3298  -50.8886 C.3       15 UNK        -0.1800 
     87 C          -1.8780  -26.4394  -50.3128 C.2       15 UNK         0.5000 
     88 O          -1.9103  -27.0734  -51.3682 O.2       15 UNK        -0.5000 
     89 N          -2.8791  -26.4189  -49.4192 N.am      16 UNK        -0.5000 
     90 CA         -4.2296  -26.9744  -49.5698 C.3       16 UNK         0.1400 
     91 CB         -4.1949  -28.5132  -49.6759 C.3       16 UNK        -0.1800 
     92 C          -5.0132  -26.2950  -50.7158 C.2       16 UNK         0.5000 
     93 O          -5.7556  -26.9532  -51.4474 O.2       16 UNK        -0.5000 
     94 N          -4.8112  -24.9807  -50.8529 N.am      17 UNK        -0.5000 
     95 CA         -5.4247  -24.1143  -51.8514 C.3       17 UNK         0.1400 
     96 CB         -4.4136  -23.0093  -52.1875 C.3       17 UNK        -0.1800 
     97 C          -6.7347  -23.5127  -51.3114 C.2       17 UNK         0.5000 
     98 O          -6.8774  -23.3434  -50.0975 O.2       17 UNK        -0.5000 
     99 N          -7.6604  -23.1767  -52.2186 N.am      18 UNK        -0.5000 
    100 CA        -8.9610  -22.5879  -51.8907 C.3       18 UNK         0.1400 
    101 CB        -9.9129  -23.6452  -51.2962 C.3       18 UNK        -0.1800 
    102 C         -9.5903  -21.9095  -53.1156 C.2       18 UNK         0.5000 
    103 O         -9.9401  -20.7314  -53.0447 O.2       18 UNK        -0.5000 
    104 N         -9.7261  -22.6621  -54.2178 N.am      19 UNK        -0.5000 
    105 CA       -10.3641  -22.2057  -55.4611 C.3       19 UNK         0.1400 
    106 CB       -10.7119  -23.4339  -56.3169 C.3       19 UNK        -0.1800 
    107 C         -9.5091  -21.2110  -56.2731 C.2       19 UNK         0.5000 
    108 O        -10.0458  -20.4697  -57.0975 O.2       19 UNK        -0.5000 
    109 N         -8.1996  -21.2193  -56.0213 N.am      20 UNK        -0.5000 
    110 CA        -7.1746  -20.3500  -56.5803 C.3       20 UNK         0.1400 
    111 CB        -6.7555  -20.8655  -57.9705 C.3       20 UNK        -0.1800 
    112 C         -6.0018  -20.3441  -55.5854 C.2       20 UNK         0.5000 
    113 O         -6.1018  -20.9805  -54.5314 O.2       20 UNK        -0.5000 
    114 N         -4.9166  -19.6337  -55.9266 N.am      21 UNK        -0.5000 
    115 CA        -3.6391  -19.5817  -55.1974 C.3       21 UNK         0.1400 
    116 CB        -2.8771  -20.9128  -55.3659 C.3       21 UNK        -0.1800 
    117 C         -3.7890  -19.1608  -53.7190 C.2       21 UNK         0.5000 
    118 O         -3.1710  -19.7554  -52.8352 O.2       21 UNK        -0.5000 
    119 N         -4.6317  -18.1442  -53.4922 N.am      22 UNK        -0.5000 
    120 CA        -5.0381  -17.6136  -52.1780 C.3       22 UNK         0.1400 
    121 C         -5.9652  -18.5571  -51.3505 C.2       22 UNK         0.5000 
    122 N         -6.3907  -19.7092  -51.8562 N.am      22 UNK        -0.7600 
    123 O         -6.3539  -18.2131  -50.2382 O.2       22 UNK        -0.5000 
    124 C124       -3.8505  -17.0456  -51.3409 C.3       23 UNK        -0.0398 
    125 S125       -3.1488  -15.5286  -52.0773 S.3       23 UNK        -0.2404 
    126 C126       -1.7048  -16.1444  -52.9984 C.3       23 UNK        -0.0205 
    127 H127        3.5190   -8.9392  -47.3371 H         1 UNK         0.0600 
    128 H128        3.6919   -9.2179  -45.6007 H         1 UNK         0.0600 
    129 H129        2.2563   -9.7980  -46.4502 H         1 UNK         0.0600 
    130 H130        2.3152  -11.9848  -46.8128 H         1 UNK         0.3000 
    131 H131        4.6058  -13.3345  -47.9548 H         1 UNK         0.0600 
    132 H132        3.1004  -15.2541  -48.1967 H         1 UNK         0.0800 
    133 H133        1.9290  -14.5433  -47.1270 H         1 UNK         0.0800 
    134 H134        2.4825  -13.7285  -51.5531 H         1 UNK         0.0800 
    135 H135        3.4590  -14.7483  -50.5339 H         1 UNK         0.0800 
    136 H136        0.0881  -14.3313  -52.0608 H         1 UNK         0.1150 
    137 H137       -0.7913  -18.5241  -52.0142 H         1 UNK         0.1150 
    138 H138        2.7672  -17.0469  -50.1207 H         1 UNK         0.1150 
    139 H139        0.4995  -20.0199  -50.6497 H         1 UNK         0.0800 
    140 H140        2.0389  -19.7705  -51.4368 H         1 UNK         0.0800 
    141 H141        1.3741  -18.3484  -47.2194 H         1 UNK         0.0800 
    142 H142        0.1364  -18.5415  -48.4219 H         1 UNK         0.0800 
    143 H143        1.1861  -20.9127  -46.7973 H         1 UNK         0.0600 
    144 H144       -0.3331  -18.8136  -45.7052 H         1 UNK         0.3000 
    145 H145       -2.1324  -20.6752  -43.2685 H         1 UNK         0.0600 
    146 H146        0.2681  -20.2863  -42.4402 H         1 UNK         0.0600 
    147 H147        0.0983  -18.6145  -42.9664 H         1 UNK         0.0600 
    148 H148       -0.9589  -19.2753  -41.7118 H         1 UNK         0.0600 
    149 H149       -1.8898  -17.8725  -43.9958 H         1 UNK         0.3000 
    150 H150       -4.7439  -17.8496  -46.1664 H         1 UNK         0.0600 
    151 H151       -5.5494  -17.5912  -43.8142 H         1 UNK         0.0600 
    152 H152       -5.3279  -16.0306  -44.5897 H         1 UNK         0.0600 
    153 H153       -4.1395  -16.6132  -43.4249 H         1 UNK         0.0600 
    154 H154       -2.8509  -15.8354  -45.3884 H         1 UNK         0.3000 
    155 H155       -0.5333  -16.3229  -48.0247 H         1 UNK         0.0600 
    156 H156       -1.1759  -14.0635  -48.7490 H         1 UNK         0.0600 
    157 H157       -2.6867  -14.1564  -47.8400 H         1 UNK         0.0600 
    158 H158       -2.4171  -15.2057  -49.2257 H         1 UNK         0.0600 
    159 H159       -0.6837  -14.1492  -46.3193 H         1 UNK         0.3000 
    160 H160        1.7903  -14.9982  -44.5208 H         1 UNK         0.0600 
    161 H161       -0.6728  -13.1958  -44.2302 H         1 UNK         0.0600 
    162 H162        0.6504  -12.9749  -45.3764 H         1 UNK         0.0600 
    163 H163        0.9468  -12.8125  -43.6600 H         1 UNK         0.0600 
    164 H164        1.4302  -15.6074  -42.4613 H         1 UNK         0.3000 
    165 H165       -0.2569  -15.1800  -40.2176 H         1 UNK         0.0600 
    166 H166       -2.1155  -17.4967  -40.9664 H         1 UNK         0.0600 
    167 H167       -1.6080  -17.1409  -39.3144 H         1 UNK         0.0600 
    168 H168       -2.5494  -15.9697  -40.2225 H         1 UNK         0.0600 
    169 H169        0.6875  -17.7361  -41.4314 H         1 UNK         0.3000 
    170 H170        3.7040  -17.5026  -39.6294 H         1 UNK         0.0600 
    171 H171        2.3028  -18.8774  -38.0708 H         1 UNK         0.0600 
    172 H172        1.6078  -19.7296  -39.4443 H         1 UNK         0.0600 
    173 H173        3.3281  -19.8808  -39.0820 H         1 UNK         0.0600 
    174 H174        3.0936  -19.4511  -41.4667 H         1 UNK         0.3000 
    175 H175        4.2871  -19.4447  -43.3313 H         1 UNK         0.0600 
    176 H176        1.9836  -19.1102  -44.2559 H         1 UNK         0.0600 
    177 H177        2.5262  -17.6310  -45.0501 H         1 UNK         0.0600 
    178 H178        3.1890  -19.1892  -45.5279 H         1 UNK         0.0600 
    179 H179        4.8100  -16.8191  -44.6599 H         1 UNK         0.3000 
    180 H180        8.2779  -17.0967  -44.1815 H         1 UNK         0.0600 
    181 H181        6.8735  -17.4867  -46.8821 H         1 UNK         0.0600 
    182 H182        8.1327  -18.5265  -46.2267 H         1 UNK         0.0600 
    183 H183        8.5074  -16.8628  -46.6475 H         1 UNK         0.0600 
    184 H184        6.5880  -15.3393  -45.7301 H         1 UNK         0.3000 
    185 H185        5.0483  -13.6089  -43.2782 H         1 UNK         0.0600 
    186 H186        6.2540  -11.4755  -43.6411 H         1 UNK         0.0600 
    187 H187        7.1968  -12.5198  -42.5919 H         1 UNK         0.0600 
    188 H188        7.6503  -12.3406  -44.2831 H         1 UNK         0.0600 
    189 H189        5.5831  -12.4688  -45.7272 H         1 UNK         0.3000 
    190 H190       -2.0648  -19.6896  -47.7725 H         1 UNK         0.3000 
    191 H191       -2.5804  -21.5968  -49.7842 H         1 UNK         0.0600 
    192 H192       -4.9618  -20.8859  -49.4518 H         1 UNK         0.0600 
    193 H193       -3.8635  -19.5163  -49.5444 H         1 UNK         0.0600 
    194 H194       -4.5019  -20.0285  -47.9850 H         1 UNK         0.0600 
    195 H195       -3.3214  -21.6795  -46.2567 H         1 UNK         0.3000 
    196 H196       -4.7008  -24.1455  -46.2412 H         1 UNK         0.0600 
    197 H197       -4.2233  -24.1242  -43.7985 H         1 UNK         0.0600 
    198 H198       -4.7504  -22.5416  -44.3502 H         1 UNK         0.0600 
    199 H199       -3.0450  -22.8385  -44.0197 H         1 UNK         0.0600 
    200 H200       -1.1965  -23.4605  -45.8280 H         1 UNK         0.3000 
    201 H201       -0.3572  -26.1541  -45.4476 H         1 UNK         0.0600 
    202 H202        1.0350  -24.2037  -44.8266 H         1 UNK         0.0600 
    203 H203        1.1707  -23.7203  -46.5151 H         1 UNK         0.0600 
    204 H204        1.9055  -25.2217  -45.9643 H         1 UNK         0.0600 
    205 H205       -0.7377  -24.1791  -48.4073 H         1 UNK         0.3000 
    206 H206        0.2466  -26.1819  -50.2306 H         1 UNK         0.0600 
    207 H207        0.2890  -23.7426  -50.7259 H         1 UNK         0.0600 
    208 H208       -0.6419  -24.5990  -51.9452 H         1 UNK         0.0600 
    209 H209       -1.4722  -23.6849  -50.6927 H         1 UNK         0.0600 
    210 H210       -2.7516  -25.8250  -48.6099 H         1 UNK         0.3000 
    211 H211       -4.7603  -26.7214  -48.6508 H         1 UNK         0.0600 
    212 H212       -3.7417  -28.8480  -50.6092 H         1 UNK         0.0600 
    213 H213       -5.2026  -28.9283  -49.6367 H         1 UNK         0.0600 
    214 H214       -3.6316  -28.9515  -48.8521 H         1 UNK         0.0600 
    215 H215       -4.2631  -24.5074  -50.1364 H         1 UNK         0.3000 
    216 H216       -5.6362  -24.6880  -52.7561 H         1 UNK         0.0600 
    217 H217       -4.7746  -22.3828  -52.9975 H         1 UNK         0.0600 
    218 H218       -3.4578  -23.4259  -52.5056 H         1 UNK         0.0600 
    219 H219       -4.2283  -22.3573  -51.3348 H         1 UNK         0.0600 
    220 H220       -7.4445  -23.2742  -53.2004 H         1 UNK         0.3000 
    221 H221       -8.8075  -21.8085  -51.1411 H         1 UNK         0.0600 
    222 H222      -10.0362  -24.4991  -51.9629 H         1 UNK         0.0600 
    223 H223       -9.5452  -24.0201  -50.3411 H         1 UNK         0.0600 
    224 H224      -10.9023  -23.2231  -51.1147 H         1 UNK         0.0600 
    225 H225       -9.4474  -23.6320  -54.1877 H         1 UNK         0.3000 
    226 H226      -11.2957  -21.6978  -55.2024 H         1 UNK         0.0600 
    227 H227      -11.3807  -24.1102  -55.7842 H         1 UNK         0.0600 
    228 H228      -11.2172  -23.1388  -57.2376 H         1 UNK         0.0600 
    229 H229       -9.8192  -23.9941  -56.5980 H         1 UNK         0.0600 
    230 H230       -7.8538  -21.8041  -55.2719 H         1 UNK         0.3000 
    231 H231       -7.5631  -19.3328  -56.6586 H         1 UNK         0.0600 
    232 H232       -6.0183  -20.2092  -58.4336 H         1 UNK         0.0600 
    233 H233       -7.6081  -20.9147  -58.6479 H         1 UNK         0.0600 
    234 H234       -6.3190  -21.8634  -57.9120 H         1 UNK         0.0600 
    235 H235       -4.9379  -19.1198  -56.7965 H         1 UNK         0.3000 
    236 H236       -3.0425  -18.8012  -55.6719 H         1 UNK         0.0600 
    237 H237       -2.7370  -21.1551  -56.4193 H         1 UNK         0.0600 
    238 H238       -1.8866  -20.8592  -54.9124 H         1 UNK         0.0600 
    239 H239       -3.4059  -21.7442  -54.9000 H         1 UNK         0.0600 
    240 H240       -5.1034  -17.7368  -54.2863 H         1 UNK         0.3000 
    241 H241       -5.6895  -16.7709  -52.4127 H         1 UNK         0.0600 
    242 H242       -6.1102  -20.0233  -52.7784 H         1 UNK         0.3800 
    243 H243       -7.0019  -20.2801  -51.2985 H         1 UNK         0.3800 
    244 H244       -4.1846  -16.7701  -50.3393 H         1 UNK         0.0800 
    245 H245       -3.0691  -17.7892  -51.1877 H         1 UNK         0.0800 
    246 H246       -1.4415  -15.4012  -53.7523 H         1 UNK         0.0800 
    247 H247       -1.9664  -17.0424  -53.5547 H         1 UNK         0.0800 
@<TRIPOS>BOND
     1    1    2 1    
     2    1  127 1    
     3    1  128 1    
     4    1  129 1    
     5    2    3 2    
     6    2    4 am   BACKBONE|DICT|INTERRES
     7    4    5 1    
     8    4  130 1    
     9    5    6 1    
    10    5   65 1    
    11    5  131 1    
    12    6    7 1    
    13    6  132 1    
    14    6  133 1    
    15    7    8 1    
    16    8    9 1    
    17    8  134 1    
    18    8  135 1    
    19    9   10 ar   
    20    9   14 ar   
    21   10   11 ar   
    22   10  136 1    
    23   11   12 ar   
    24   11  126 1    
    25   12   13 ar   
    26   12  137 1    
    27   13   14 ar   
    28   13   15 1    
    29   14  138 1    
    30   15   16 1    
    31   15  139 1    
    32   15  140 1    
    33   16   17 1    
    34   17   18 1    
    35   17  141 1    
    36   17  142 1    
    37   18   19 1    
    38   18   67 1    
    39   18  143 1    
    40   19   20 am   BACKBONE|DICT|INTERRES
    41   19  144 1    
    42   20   21 2    
    43   20   22 1    
    44   22   23 1    
    45   22   24 1    
    46   22  145 1    
    47   23  146 1    
    48   23  147 1    
    49   23  148 1    
    50   24   25 am   BACKBONE|DICT|INTERRES
    51   24  149 1    
    52   25   26 2    
    53   25   27 1    
    54   27   28 1    
    55   27   29 1    
    56   27  150 1    
    57   28  151 1    
    58   28  152 1    
    59   28  153 1    
    60   29   30 am   BACKBONE|DICT|INTERRES
    61   29  154 1    
    62   30   31 2    
    63   30   32 1    
    64   32   33 1    
    65   32   34 1    
    66   32  155 1    
    67   33  156 1    
    68   33  157 1    
    69   33  158 1    
    70   34   35 am   BACKBONE|DICT|INTERRES
    71   34  159 1    
    72   35   36 2    
    73   35   37 1    
    74   37   38 1    
    75   37   39 1    
    76   37  160 1    
    77   38  161 1    
    78   38  162 1    
    79   38  163 1    
    80   39   40 am   BACKBONE|DICT|INTERRES
    81   39  164 1    
    82   40   41 2    
    83   40   42 1    
    84   42   43 1    
    85   42   44 1    
    86   42  165 1    
    87   43  166 1    
    88   43  167 1    
    89   43  168 1    
    90   44   45 am   BACKBONE|DICT|INTERRES
    91   44  169 1    
    92   45   46 2    
    93   45   47 1    
    94   47   48 1    
    95   47   49 1    
    96   47  170 1    
    97   48  171 1    
    98   48  172 1    
    99   48  173 1    
   100   49   50 am   BACKBONE|DICT|INTERRES
   101   49  174 1    
   102   50   51 2    
   103   50   52 1    
   104   52   53 1    
   105   52   54 1    
   106   52  175 1    
   107   53  176 1    
   108   53  177 1    
   109   53  178 1    
   110   54   55 am   BACKBONE|DICT|INTERRES
   111   54  179 1    
   112   55   56 2    
   113   55   57 1    
   114   57   58 1    
   115   57   59 1    
   116   57  180 1    
   117   58  181 1    
   118   58  182 1    
   119   58  183 1    
   120   59   60 am   BACKBONE|DICT|INTERRES
   121   59  184 1    
   122   60   61 2    
   123   60   62 1    
   124   62   63 1    
   125   62   64 1    
   126   62  185 1    
   127   63  186 1    
   128   63  187 1    
   129   63  188 1    
   130   64   65 am   BACKBONE|DICT|INTERRES
   131   64  189 1    
   132   65   66 2    
   133   67   68 2    
   134   67   69 am   BACKBONE|DICT|INTERRES
   135   69   70 1    
   136   69  190 1    
   137   70   71 1    
   138   70   72 1    
   139   70  191 1    
   140   71  192 1    
   141   71  193 1    
   142   71  194 1    
   143   72   73 2    
   144   72   74 am   BACKBONE|DICT|INTERRES
   145   74   75 1    
   146   74  195 1    
   147   75   76 1    
   148   75   77 1    
   149   75  196 1    
   150   76  197 1    
   151   76  198 1    
   152   76  199 1    
   153   77   78 2    
   154   77   79 am   BACKBONE|DICT|INTERRES
   155   79   80 1    
   156   79  200 1    
   157   80   81 1    
   158   80   82 1    
   159   80  201 1    
   160   81  202 1    
   161   81  203 1    
   162   81  204 1    
   163   82   83 2    
   164   82   84 am   BACKBONE|DICT|INTERRES
   165   84   85 1    
   166   84  205 1    
   167   85   86 1    
   168   85   87 1    
   169   85  206 1    
   170   86  207 1    
   171   86  208 1    
   172   86  209 1    
   173   87   88 2    
   174   87   89 am   BACKBONE|DICT|INTERRES
   175   89   90 1    
   176   89  210 1    
   177   90   91 1    
   178   90   92 1    
   179   90  211 1    
   180   91  212 1    
   181   91  213 1    
   182   91  214 1    
   183   92   93 2    
   184   92   94 am   BACKBONE|DICT|INTERRES
   185   94   95 1    
   186   94  215 1    
   187   95   96 1    
   188   95   97 1    
   189   95  216 1    
   190   96  217 1    
   191   96  218 1    
   192   96  219 1    
   193   97   98 2    
   194   97   99 am   BACKBONE|DICT|INTERRES
   195   99  100 1    
   196   99  220 1    
   197  100  101 1    
   198  100  102 1    
   199  100  221 1    
   200  101  222 1    
   201  101  223 1    
   202  101  224 1    
   203  102  103 2    
   204  102  104 am   BACKBONE|DICT|INTERRES
   205  104  105 1    
   206  104  225 1    
   207  105  106 1    
   208  105  107 1    
   209  105  226 1    
   210  106  227 1    
   211  106  228 1    
   212  106  229 1    
   213  107  108 2    
   214  107  109 am   BACKBONE|DICT|INTERRES
   215  109  110 1    
   216  109  230 1    
   217  110  111 1    
   218  110  112 1    
   219  110  231 1    
   220  111  232 1    
   221  111  233 1    
   222  111  234 1    
   223  112  113 2    
   224  112  114 am   BACKBONE|DICT|INTERRES
   225  114  115 1    
   226  114  235 1    
   227  115  116 1    
   228  115  117 1    
   229  115  236 1    
   230  116  237 1    
   231  116  238 1    
   232  116  239 1    
   233  117  118 2    
   234  117  119 am   BACKBONE|DICT|INTERRES
   235  119  120 1    
   236  119  240 1    
   237  120  121 1    
   238  120  124 1    
   239  120  241 1    
   240  121  122 am   BACKBONE|DICT|INTERRES
   241  121  123 2    
   242  122  242 1    
   243  122  243 1    
   244  124  125 1    
   245  124  244 1    
   246  124  245 1    
   247  125  126 1    
   248  126  246 1    
   249  126  247 1    
@<TRIPOS>SUBSTRUCTURE
     1 UNK         1 GROUP             0       ****    0 ROOT    
