@<TRIPOS>MOLECULE
3R540
247   249    1
SMALL
USER_CHARGES


@<TRIPOS>ATOM
      1 CA          5.0797  -14.2766  -43.6076 C.3       0 UNK        -0.1800 
      2 C           4.1846  -13.5988  -44.6336 C.2       0 UNK         0.5000 
      3 O           3.1105  -13.1145  -44.2814 O.2       0 UNK        -0.5000 
      4 N           4.6217  -13.5396  -45.9000 N.am      1 UNK        -0.5000 
      5 CA          3.8739  -12.9593  -47.0282 C.3       1 UNK         0.1400 
      6 C6          4.4377  -13.3903  -48.4057 C.3       23 UNK        -0.0398 
      7 S7          4.2641  -15.1787  -48.7262 S.3       23 UNK        -0.2404 
      8 C8          2.4764  -15.2786  -49.1040 C.3       23 UNK        -0.0205 
      9 C9          1.9905  -16.5801  -49.7446 C.ar      23 UNK        -0.0193 
     10 C10         0.7184  -16.5859  -50.3241 C.ar      23 UNK        -0.1150 
     11 C11         0.1946  -17.7341  -50.9231 C.ar      23 UNK        -0.0193 
     12 C12         0.9836  -18.8892  -50.9656 C.ar      23 UNK        -0.1150 
     13 C13         2.2502  -18.9174  -50.3730 C.ar      23 UNK        -0.0193 
     14 C14         2.7448  -17.7609  -49.7610 C.ar      23 UNK        -0.1150 
     15 C15         3.0973  -20.1891  -50.3938 C.3       23 UNK        -0.0205 
     16 S16         2.1561  -21.7158  -50.0402 S.3       23 UNK        -0.2404 
     17 C17         1.3648  -21.2665  -48.4619 C.3       23 UNK        -0.0398 
     18 CA          0.8968  -22.4795  -47.6273 C.3       11 UNK         0.1400 
     19 N           0.6444  -22.0850  -46.2428 N.am      11 UNK        -0.5000 
     20 C           0.3562  -22.9106  -45.2298 C.2       10 UNK         0.5000 
     21 O           0.3157  -24.1362  -45.3304 O.2       10 UNK        -0.5000 
     22 CA          0.0033  -22.2402  -43.8911 C.3       10 UNK         0.1400 
     23 CB          1.2704  -21.7978  -43.1436 C.3       10 UNK        -0.1800 
     24 N          -0.8830  -21.0902  -44.0755 N.am      10 UNK        -0.5000 
     25 C          -2.1561  -21.1758  -44.4860 C.2       9 UNK         0.5000 
     26 O          -2.7280  -22.2395  -44.7226 O.2       9 UNK        -0.5000 
     27 CA         -2.9034  -19.8486  -44.7035 C.3       9 UNK         0.1400 
     28 CB         -3.4679  -19.3207  -43.3768 C.3       9 UNK        -0.1800 
     29 N          -2.0595  -18.8279  -45.3286 N.am      9 UNK        -0.5000 
     30 C          -1.6379  -18.8975  -46.6003 C.2       8 UNK         0.5000 
     31 O          -1.9176  -19.8233  -47.3596 O.2       8 UNK        -0.5000 
     32 CA         -0.7153  -17.7771  -47.1067 C.3       8 UNK         0.1400 
     33 CB         -1.5360  -16.5653  -47.5701 C.3       8 UNK        -0.1800 
     34 N           0.2986  -17.3536  -46.1400 N.am      8 UNK        -0.5000 
     35 C           1.2398  -18.1621  -45.6308 C.2       7 UNK         0.5000 
     36 O           1.2688  -19.3778  -45.8117 O.2       7 UNK        -0.5000 
     37 CA          2.3377  -17.5152  -44.7809 C.3       7 UNK         0.1400 
     38 CB          3.3669  -16.8316  -45.6865 C.3       7 UNK        -0.1800 
     39 N           1.7743  -16.5506  -43.8402 N.am      7 UNK        -0.5000 
     40 C           1.4867  -16.8416  -42.5646 C.2       6 UNK         0.5000 
     41 O           1.7728  -17.9090  -42.0209 O.2       6 UNK        -0.5000 
     42 CA          0.7222  -15.7730  -41.7605 C.3       6 UNK         0.1400 
     43 CB          1.7046  -14.7897  -41.1055 C.3       6 UNK        -0.1800 
     44 N          -0.2542  -15.0203  -42.5503 N.am      6 UNK        -0.5000 
     45 C          -1.2838  -15.5465  -43.2290 C.2       5 UNK         0.5000 
     46 O          -1.5327  -16.7501  -43.2867 O.2       5 UNK        -0.5000 
     47 CA         -2.1665  -14.5610  -44.0149 C.3       5 UNK         0.1400 
     48 CB         -3.2883  -14.0218  -43.1153 C.3       5 UNK        -0.1800 
     49 N          -1.4532  -13.4294  -44.6169 N.am      5 UNK        -0.5000 
     50 C          -0.3626  -13.4830  -45.3975 C.2       4 UNK         0.5000 
     51 O           0.2579  -14.5193  -45.6448 O.2       4 UNK        -0.5000 
     52 CA          0.1205  -12.1555  -46.0108 C.3       4 UNK         0.1400 
     53 CB         -0.0212  -12.2211  -47.5402 C.3       4 UNK        -0.1800 
     54 N          -0.6264  -10.9835  -45.5365 N.am      4 UNK        -0.5000 
     55 C          -0.4302  -10.1920  -44.4666 C.2       3 UNK         0.5000 
     56 O          -1.2539   -9.3220  -44.1901 O.2       3 UNK        -0.5000 
     57 CA          0.8160  -10.3164  -43.5572 C.3       3 UNK         0.1400 
     58 CB          0.7336  -11.5193  -42.6044 C.3       3 UNK        -0.1800 
     59 N           2.1004  -10.2985  -44.2583 N.am      3 UNK        -0.5000 
     60 C           2.6114   -9.2305  -44.8926 C.2       2 UNK         0.5000 
     61 O           2.0455   -8.1383  -44.9497 O.2       2 UNK        -0.5000 
     62 CA          3.9941   -9.3914  -45.5625 C.3       2 UNK         0.1400 
     63 CB          5.1043   -8.8860  -44.6284 C.3       2 UNK        -0.1800 
     64 N           4.2850  -10.7748  -45.9362 N.am      2 UNK        -0.5000 
     65 C           3.6987  -11.4232  -46.9506 C.2       1 UNK         0.5000 
     66 O           2.9951  -10.8570  -47.7867 O.2       1 UNK        -0.5000 
     67 C          -0.3322  -23.1779  -48.2461 C.2       11 UNK         0.5000 
     68 O          -0.1892  -24.2586  -48.8176 O.2       11 UNK        -0.5000 
     69 N          -1.5230  -22.5870  -48.0649 N.am      12 UNK        -0.5000 
     70 CA         -2.8038  -23.1521  -48.4872 C.3       12 UNK         0.1400 
     71 CB         -3.9273  -22.1416  -48.2263 C.3       12 UNK        -0.1800 
     72 C          -3.1198  -24.4962  -47.8107 C.2       12 UNK         0.5000 
     73 O          -3.5500  -25.4234  -48.4951 O.2       12 UNK        -0.5000 
     74 N          -2.8681  -24.5949  -46.4976 N.am      13 UNK        -0.5000 
     75 CA         -3.0268  -25.8238  -45.7191 C.3       13 UNK         0.1400 
     76 CB         -2.8466  -25.5224  -44.2238 C.3       13 UNK        -0.1800 
     77 C          -2.0734  -26.9436  -46.1745 C.2       13 UNK         0.5000 
     78 O          -2.5106  -28.0856  -46.3162 O.2       13 UNK        -0.5000 
     79 N          -0.8058  -26.5929  -46.4354 N.am      14 UNK        -0.5000 
     80 CA          0.2195  -27.4995  -46.9575 C.3       14 UNK         0.1400 
     81 CB          1.5908  -26.8091  -46.9022 C.3       14 UNK        -0.1800 
     82 C          -0.0864  -27.9938  -48.3844 C.2       14 UNK         0.5000 
     83 O           0.1318  -29.1691  -48.6809 O.2       14 UNK        -0.5000 
     84 N          -0.6104  -27.0978  -49.2312 N.am      15 UNK        -0.5000 
     85 CA         -1.0516  -27.3914  -50.5965 C.3       15 UNK         0.1400 
     86 CB         -1.1854  -26.0673  -51.3662 C.3       15 UNK        -0.1800 
     87 C          -2.3775  -28.1766  -50.6645 C.2       15 UNK         0.5000 
     88 O          -2.6892  -28.7268  -51.7214 O.2       15 UNK        -0.5000 
     89 N          -3.1366  -28.1895  -49.5579 N.am      16 UNK        -0.5000 
     90 CA         -4.5063  -28.6950  -49.4161 C.3       16 UNK         0.1400 
     91 CB         -4.5590  -30.2258  -49.6012 C.3       16 UNK        -0.1800 
     92 C          -5.4902  -27.9270  -50.3251 C.2       16 UNK         0.5000 
     93 O          -6.3093  -28.5326  -51.0198 O.2       16 UNK        -0.5000 
     94 N          -5.3584  -26.5969  -50.3146 N.am      17 UNK        -0.5000 
     95 CA         -6.1030  -25.6451  -51.1304 C.3       17 UNK         0.1400 
     96 CB         -5.1775  -25.1442  -52.2591 C.3       17 UNK        -0.1800 
     97 C          -6.6404  -24.5076  -50.2398 C.2       17 UNK         0.5000 
     98 O          -6.8311  -24.7002  -49.0366 O.2       17 UNK        -0.5000 
     99 N          -6.8814  -23.3426  -50.8471 N.am      18 UNK        -0.5000 
    100 CA        -7.2748  -22.0978  -50.1956 C.3       18 UNK         0.1400 
    101 CB        -8.7251  -21.7672  -50.5829 C.3       18 UNK        -0.1800 
    102 C         -6.3276  -20.9905  -50.6761 C.2       18 UNK         0.5000 
    103 O         -5.7523  -21.1105  -51.7607 O.2       18 UNK        -0.5000 
    104 N         -6.2107  -19.9089  -49.8939 N.am      19 UNK        -0.5000 
    105 CA        -5.3512  -18.7561  -50.1980 C.3       19 UNK         0.1400 
    106 CB        -5.3548  -17.7879  -49.0059 C.3       19 UNK        -0.1800 
    107 C         -5.7261  -18.0244  -51.5053 C.2       19 UNK         0.5000 
    108 O         -4.8652  -17.4121  -52.1370 O.2       19 UNK        -0.5000 
    109 N         -6.9956  -18.1442  -51.9154 N.am      20 UNK        -0.5000 
    110 CA        -7.5192  -17.6547  -53.1894 C.3       20 UNK         0.1400 
    111 CB        -9.0528  -17.7462  -53.1574 C.3       20 UNK        -0.1800 
    112 C         -6.9622  -18.3986  -54.4221 C.2       20 UNK         0.5000 
    113 O         -7.0087  -17.8409  -55.5192 O.2       20 UNK        -0.5000 
    114 N         -6.4588  -19.6305  -54.2410 N.am      21 UNK        -0.5000 
    115 CA        -5.8621  -20.4298  -55.3120 C.3       21 UNK         0.1400 
    116 CB        -5.8553  -21.9165  -54.9199 C.3       21 UNK        -0.1800 
    117 C         -4.4438  -19.9466  -55.6592 C.2       21 UNK         0.5000 
    118 O         -4.1182  -19.8304  -56.8417 O.2       21 UNK        -0.5000 
    119 N         -3.6336  -19.6670  -54.6296 N.am      22 UNK        -0.5000 
    120 CA        -2.2853  -19.0957  -54.7738 C.3       22 UNK         0.1400 
    121 C         -2.2798  -17.5572  -54.9975 C.2       22 UNK         0.5000 
    122 N         -3.2302  -16.8043  -54.4564 N.am      22 UNK        -0.7600 
    123 O         -1.4046  -17.0397  -55.6858 O.2       22 UNK        -0.5000 
    124 C124       -1.3276  -19.5239  -53.6297 C.3       23 UNK        -0.0398 
    125 S125       -1.9887  -19.2619  -51.9475 S.3       23 UNK        -0.2404 
    126 C126       -1.2233  -17.6658  -51.4940 C.3       23 UNK        -0.0205 
    127 H127        5.9663  -14.7123  -44.0686 H         1 UNK         0.0600 
    128 H128        4.5320  -15.0719  -43.1019 H         1 UNK         0.0600 
    129 H129        5.4019  -13.5547  -42.8575 H         1 UNK         0.0600 
    130 H130        5.5136  -13.9513  -46.1359 H         1 UNK         0.3000 
    131 H131        2.8602  -13.3556  -46.9579 H         1 UNK         0.0600 
    132 H132        5.4938  -13.1265  -48.4803 H         1 UNK         0.0800 
    133 H133        3.9416  -12.8614  -49.2217 H         1 UNK         0.0800 
    134 H134        1.9117  -15.1284  -48.1833 H         1 UNK         0.0800 
    135 H135        2.2188  -14.4510  -49.7668 H         1 UNK         0.0800 
    136 H136        0.1212  -15.6848  -50.2994 H         1 UNK         0.1150 
    137 H137        0.6133  -19.7856  -51.4387 H         1 UNK         0.1150 
    138 H138        3.7225  -17.7882  -49.3033 H         1 UNK         0.1150 
    139 H139        3.5616  -20.2826  -51.3762 H         1 UNK         0.0800 
    140 H140        3.9129  -20.1150  -49.6728 H         1 UNK         0.0800 
    141 H141        0.5384  -20.5792  -48.6511 H         1 UNK         0.0800 
    142 H142        2.1025  -20.7001  -47.8924 H         1 UNK         0.0800 
    143 H143        1.7100  -23.2080  -47.6003 H         1 UNK         0.0600 
    144 H144        0.6992  -21.0868  -46.0489 H         1 UNK         0.3000 
    145 H145       -0.5165  -22.9766  -43.2746 H         1 UNK         0.0600 
    146 H146        1.0257  -21.3783  -42.1675 H         1 UNK         0.0600 
    147 H147        1.9387  -22.6433  -42.9762 H         1 UNK         0.0600 
    148 H148        1.8282  -21.0436  -43.6996 H         1 UNK         0.0600 
    149 H149       -0.4764  -20.1747  -43.9499 H         1 UNK         0.3000 
    150 H150       -3.7452  -20.0457  -45.3708 H         1 UNK         0.0600 
    151 H151       -4.1522  -20.0431  -42.9302 H         1 UNK         0.0600 
    152 H152       -4.0227  -18.3939  -43.5245 H         1 UNK         0.0600 
    153 H153       -2.6777  -19.1261  -42.6507 H         1 UNK         0.0600 
    154 H154       -1.7690  -18.0516  -44.7410 H         1 UNK         0.3000 
    155 H155       -0.1806  -18.1692  -47.9738 H         1 UNK         0.0600 
    156 H156       -0.8947  -15.7798  -47.9695 H         1 UNK         0.0600 
    157 H157       -2.2357  -16.8487  -48.3567 H         1 UNK         0.0600 
    158 H158       -2.1181  -16.1387  -46.7560 H         1 UNK         0.0600 
    159 H159        0.3351  -16.3587  -45.9346 H         1 UNK         0.3000 
    160 H160        2.8537  -18.3162  -44.2471 H         1 UNK         0.0600 
    161 H161        2.9581  -15.9286  -46.1379 H         1 UNK         0.0600 
    162 H162        3.6838  -17.4908  -46.4962 H         1 UNK         0.0600 
    163 H163        4.2615  -16.5616  -45.1282 H         1 UNK         0.0600 
    164 H164        1.4659  -15.6635  -44.2202 H         1 UNK         0.3000 
    165 H165        0.1738  -16.2881  -40.9693 H         1 UNK         0.0600 
    166 H166        1.1840  -14.0744  -40.4685 H         1 UNK         0.0600 
    167 H167        2.4254  -15.3169  -40.4793 H         1 UNK         0.0600 
    168 H168        2.2689  -14.2277  -41.8506 H         1 UNK         0.0600 
    169 H169       -0.1288  -14.0208  -42.5838 H         1 UNK         0.3000 
    170 H170       -2.6331  -15.1198  -44.8257 H         1 UNK         0.0600 
    171 H171       -3.8538  -14.8378  -42.6627 H         1 UNK         0.0600 
    172 H172       -2.8943  -13.4062  -42.3057 H         1 UNK         0.0600 
    173 H173       -3.9949  -13.4171  -43.6840 H         1 UNK         0.0600 
    174 H174       -1.8811  -12.5243  -44.4875 H         1 UNK         0.3000 
    175 H175        1.1742  -12.0617  -45.7743 H         1 UNK         0.0600 
    176 H176        0.3256  -11.3003  -48.0090 H         1 UNK         0.0600 
    177 H177        0.5688  -13.0371  -47.9582 H         1 UNK         0.0600 
    178 H178       -1.0570  -12.3791  -47.8435 H         1 UNK         0.0600 
    179 H179       -1.4479  -10.7818  -46.0871 H         1 UNK         0.3000 
    180 H180        0.8056   -9.4309  -42.9176 H         1 UNK         0.0600 
    181 H181        0.9091  -12.4603  -43.1177 H         1 UNK         0.0600 
    182 H182       -0.2440  -11.5773  -42.1240 H         1 UNK         0.0600 
    183 H183        1.4787  -11.4385  -41.8128 H         1 UNK         0.0600 
    184 H184        2.6165  -11.1724  -44.2661 H         1 UNK         0.3000 
    185 H185        4.0006   -8.7762  -46.4648 H         1 UNK         0.0600 
    186 H186        4.9354   -7.8453  -44.3485 H         1 UNK         0.0600 
    187 H187        5.1532   -9.4696  -43.7081 H         1 UNK         0.0600 
    188 H188        6.0801   -8.9370  -45.1116 H         1 UNK         0.0600 
    189 H189        4.8515  -11.3106  -45.2952 H         1 UNK         0.3000 
    190 H190       -1.5639  -21.6734  -47.6204 H         1 UNK         0.3000 
    191 H191       -2.7504  -23.3287  -49.5634 H         1 UNK         0.0600 
    192 H192       -3.9721  -21.8483  -47.1776 H         1 UNK         0.0600 
    193 H193       -4.8961  -22.5647  -48.4870 H         1 UNK         0.0600 
    194 H194       -3.7881  -21.2394  -48.8217 H         1 UNK         0.0600 
    195 H195       -2.5640  -23.7700  -45.9895 H         1 UNK         0.3000 
    196 H196       -4.0484  -26.1795  -45.8693 H         1 UNK         0.0600 
    197 H197       -2.9746  -26.4250  -43.6250 H         1 UNK         0.0600 
    198 H198       -3.5821  -24.7961  -43.8778 H         1 UNK         0.0600 
    199 H199       -1.8558  -25.1226  -44.0082 H         1 UNK         0.0600 
    200 H200       -0.5137  -25.6375  -46.2478 H         1 UNK         0.3000 
    201 H201        0.2546  -28.3742  -46.3049 H         1 UNK         0.0600 
    202 H202        1.8499  -26.5301  -45.8807 H         1 UNK         0.0600 
    203 H203        1.6113  -25.9041  -47.5101 H         1 UNK         0.0600 
    204 H204        2.3770  -27.4701  -47.2688 H         1 UNK         0.0600 
    205 H205       -0.6861  -26.1294  -48.9309 H         1 UNK         0.3000 
    206 H206       -0.2850  -27.9959  -51.0854 H         1 UNK         0.0600 
    207 H207       -0.2399  -25.5251  -51.3871 H         1 UNK         0.0600 
    208 H208       -1.4834  -26.2413  -52.4009 H         1 UNK         0.0600 
    209 H209       -1.9346  -25.4162  -50.9142 H         1 UNK         0.0600 
    210 H210       -2.7891  -27.6707  -48.7619 H         1 UNK         0.3000 
    211 H211       -4.8046  -28.4775  -48.3894 H         1 UNK         0.0600 
    212 H212       -4.3270  -30.5225  -50.6243 H         1 UNK         0.0600 
    213 H213       -5.5523  -30.6109  -49.3680 H         1 UNK         0.0600 
    214 H214       -3.8531  -30.7259  -48.9382 H         1 UNK         0.0600 
    215 H215       -4.6999  -26.1816  -49.6558 H         1 UNK         0.3000 
    216 H216       -6.9717  -26.1316  -51.5780 H         1 UNK         0.0600 
    217 H217       -4.3564  -24.5416  -51.8676 H         1 UNK         0.0600 
    218 H218       -5.7200  -24.5399  -52.9867 H         1 UNK         0.0600 
    219 H219       -4.7405  -25.9798  -52.8066 H         1 UNK         0.0600 
    220 H220       -6.6178  -23.2351  -51.8175 H         1 UNK         0.3000 
    221 H221       -7.1975  -22.1808  -49.1098 H         1 UNK         0.0600 
    222 H222       -9.4044  -22.5602  -50.2696 H         1 UNK         0.0600 
    223 H223       -8.8363  -21.6392  -51.6607 H         1 UNK         0.0600 
    224 H224       -9.0606  -20.8461  -50.1049 H         1 UNK         0.0600 
    225 H225       -6.7254  -19.8685  -49.0260 H         1 UNK         0.3000 
    226 H226       -4.3349  -19.1324  -50.3162 H         1 UNK         0.0600 
    227 H227       -4.9766  -18.2719  -48.1049 H         1 UNK         0.0600 
    228 H228       -4.7148  -16.9265  -49.2016 H         1 UNK         0.0600 
    229 H229       -6.3566  -17.4124  -48.7947 H         1 UNK         0.0600 
    230 H230       -7.6358  -18.6622  -51.3328 H         1 UNK         0.3000 
    231 H231       -7.2398  -16.6036  -53.2883 H         1 UNK         0.0600 
    232 H232       -9.3916  -18.7764  -53.0404 H         1 UNK         0.0600 
    233 H233       -9.4873  -17.3606  -54.0807 H         1 UNK         0.0600 
    234 H234       -9.4666  -17.1602  -52.3366 H         1 UNK         0.0600 
    235 H235       -6.4113  -20.0220  -53.3065 H         1 UNK         0.3000 
    236 H236       -6.4820  -20.3276  -56.2055 H         1 UNK         0.0600 
    237 H237       -6.8502  -22.2557  -54.6314 H         1 UNK         0.0600 
    238 H238       -5.5305  -22.5344  -55.7578 H         1 UNK         0.0600 
    239 H239       -5.1768  -22.1167  -54.0906 H         1 UNK         0.0600 
    240 H240       -3.9747  -19.7734  -53.6847 H         1 UNK         0.3000 
    241 H241       -1.8535  -19.5162  -55.6844 H         1 UNK         0.0600 
    242 H242       -3.2216  -15.8110  -54.6212 H         1 UNK         0.3800 
    243 H243       -3.8914  -17.1907  -53.7891 H         1 UNK         0.3800 
    244 H244       -0.3571  -19.0340  -53.7285 H         1 UNK         0.0800 
    245 H245       -1.1216  -20.5906  -53.7252 H         1 UNK         0.0800 
    246 H246       -1.2253  -16.9972  -52.3544 H         1 UNK         0.0800 
    247 H247       -1.8735  -17.2011  -50.7521 H         1 UNK         0.0800 
@<TRIPOS>BOND
     1    1    2 1    
     2    1  127 1    
     3    1  128 1    
     4    1  129 1    
     5    2    3 2    
     6    2    4 am   BACKBONE|DICT|INTERRES
     7    4    5 1    
     8    4  130 1    
     9    5    6 1    
    10    5   65 1    
    11    5  131 1    
    12    6    7 1    
    13    6  132 1    
    14    6  133 1    
    15    7    8 1    
    16    8    9 1    
    17    8  134 1    
    18    8  135 1    
    19    9   10 ar   
    20    9   14 ar   
    21   10   11 ar   
    22   10  136 1    
    23   11   12 ar   
    24   11  126 1    
    25   12   13 ar   
    26   12  137 1    
    27   13   14 ar   
    28   13   15 1    
    29   14  138 1    
    30   15   16 1    
    31   15  139 1    
    32   15  140 1    
    33   16   17 1    
    34   17   18 1    
    35   17  141 1    
    36   17  142 1    
    37   18   19 1    
    38   18   67 1    
    39   18  143 1    
    40   19   20 am   BACKBONE|DICT|INTERRES
    41   19  144 1    
    42   20   21 2    
    43   20   22 1    
    44   22   23 1    
    45   22   24 1    
    46   22  145 1    
    47   23  146 1    
    48   23  147 1    
    49   23  148 1    
    50   24   25 am   BACKBONE|DICT|INTERRES
    51   24  149 1    
    52   25   26 2    
    53   25   27 1    
    54   27   28 1    
    55   27   29 1    
    56   27  150 1    
    57   28  151 1    
    58   28  152 1    
    59   28  153 1    
    60   29   30 am   BACKBONE|DICT|INTERRES
    61   29  154 1    
    62   30   31 2    
    63   30   32 1    
    64   32   33 1    
    65   32   34 1    
    66   32  155 1    
    67   33  156 1    
    68   33  157 1    
    69   33  158 1    
    70   34   35 am   BACKBONE|DICT|INTERRES
    71   34  159 1    
    72   35   36 2    
    73   35   37 1    
    74   37   38 1    
    75   37   39 1    
    76   37  160 1    
    77   38  161 1    
    78   38  162 1    
    79   38  163 1    
    80   39   40 am   BACKBONE|DICT|INTERRES
    81   39  164 1    
    82   40   41 2    
    83   40   42 1    
    84   42   43 1    
    85   42   44 1    
    86   42  165 1    
    87   43  166 1    
    88   43  167 1    
    89   43  168 1    
    90   44   45 am   BACKBONE|DICT|INTERRES
    91   44  169 1    
    92   45   46 2    
    93   45   47 1    
    94   47   48 1    
    95   47   49 1    
    96   47  170 1    
    97   48  171 1    
    98   48  172 1    
    99   48  173 1    
   100   49   50 am   BACKBONE|DICT|INTERRES
   101   49  174 1    
   102   50   51 2    
   103   50   52 1    
   104   52   53 1    
   105   52   54 1    
   106   52  175 1    
   107   53  176 1    
   108   53  177 1    
   109   53  178 1    
   110   54   55 am   BACKBONE|DICT|INTERRES
   111   54  179 1    
   112   55   56 2    
   113   55   57 1    
   114   57   58 1    
   115   57   59 1    
   116   57  180 1    
   117   58  181 1    
   118   58  182 1    
   119   58  183 1    
   120   59   60 am   BACKBONE|DICT|INTERRES
   121   59  184 1    
   122   60   61 2    
   123   60   62 1    
   124   62   63 1    
   125   62   64 1    
   126   62  185 1    
   127   63  186 1    
   128   63  187 1    
   129   63  188 1    
   130   64   65 am   BACKBONE|DICT|INTERRES
   131   64  189 1    
   132   65   66 2    
   133   67   68 2    
   134   67   69 am   BACKBONE|DICT|INTERRES
   135   69   70 1    
   136   69  190 1    
   137   70   71 1    
   138   70   72 1    
   139   70  191 1    
   140   71  192 1    
   141   71  193 1    
   142   71  194 1    
   143   72   73 2    
   144   72   74 am   BACKBONE|DICT|INTERRES
   145   74   75 1    
   146   74  195 1    
   147   75   76 1    
   148   75   77 1    
   149   75  196 1    
   150   76  197 1    
   151   76  198 1    
   152   76  199 1    
   153   77   78 2    
   154   77   79 am   BACKBONE|DICT|INTERRES
   155   79   80 1    
   156   79  200 1    
   157   80   81 1    
   158   80   82 1    
   159   80  201 1    
   160   81  202 1    
   161   81  203 1    
   162   81  204 1    
   163   82   83 2    
   164   82   84 am   BACKBONE|DICT|INTERRES
   165   84   85 1    
   166   84  205 1    
   167   85   86 1    
   168   85   87 1    
   169   85  206 1    
   170   86  207 1    
   171   86  208 1    
   172   86  209 1    
   173   87   88 2    
   174   87   89 am   BACKBONE|DICT|INTERRES
   175   89   90 1    
   176   89  210 1    
   177   90   91 1    
   178   90   92 1    
   179   90  211 1    
   180   91  212 1    
   181   91  213 1    
   182   91  214 1    
   183   92   93 2    
   184   92   94 am   BACKBONE|DICT|INTERRES
   185   94   95 1    
   186   94  215 1    
   187   95   96 1    
   188   95   97 1    
   189   95  216 1    
   190   96  217 1    
   191   96  218 1    
   192   96  219 1    
   193   97   98 2    
   194   97   99 am   BACKBONE|DICT|INTERRES
   195   99  100 1    
   196   99  220 1    
   197  100  101 1    
   198  100  102 1    
   199  100  221 1    
   200  101  222 1    
   201  101  223 1    
   202  101  224 1    
   203  102  103 2    
   204  102  104 am   BACKBONE|DICT|INTERRES
   205  104  105 1    
   206  104  225 1    
   207  105  106 1    
   208  105  107 1    
   209  105  226 1    
   210  106  227 1    
   211  106  228 1    
   212  106  229 1    
   213  107  108 2    
   214  107  109 am   BACKBONE|DICT|INTERRES
   215  109  110 1    
   216  109  230 1    
   217  110  111 1    
   218  110  112 1    
   219  110  231 1    
   220  111  232 1    
   221  111  233 1    
   222  111  234 1    
   223  112  113 2    
   224  112  114 am   BACKBONE|DICT|INTERRES
   225  114  115 1    
   226  114  235 1    
   227  115  116 1    
   228  115  117 1    
   229  115  236 1    
   230  116  237 1    
   231  116  238 1    
   232  116  239 1    
   233  117  118 2    
   234  117  119 am   BACKBONE|DICT|INTERRES
   235  119  120 1    
   236  119  240 1    
   237  120  121 1    
   238  120  124 1    
   239  120  241 1    
   240  121  122 am   BACKBONE|DICT|INTERRES
   241  121  123 2    
   242  122  242 1    
   243  122  243 1    
   244  124  125 1    
   245  124  244 1    
   246  124  245 1    
   247  125  126 1    
   248  126  246 1    
   249  126  247 1    
@<TRIPOS>SUBSTRUCTURE
     1 UNK         1 GROUP             0       ****    0 ROOT    
