@<TRIPOS>MOLECULE
3R540
247   249    1
SMALL
USER_CHARGES


@<TRIPOS>ATOM
      1 CA         -5.3946  -16.0023  -46.3919 C.3       0 UNK        -0.1800 
      2 C          -4.1042  -15.3542  -46.8748 C.2       0 UNK         0.5000 
      3 O          -3.0223  -15.8437  -46.5539 O.2       0 UNK        -0.5000 
      4 N          -4.2288  -14.2363  -47.6080 N.am      1 UNK        -0.5000 
      5 CA         -3.1696  -13.3990  -48.2052 C.3       1 UNK         0.1400 
      6 C6         -2.6885  -13.8737  -49.6078 C.3       23 UNK        -0.0398 
      7 S7         -1.9207  -15.5325  -49.7160 S.3       23 UNK        -0.2404 
      8 C8         -0.2009  -15.1152  -50.1450 C.3       23 UNK        -0.0205 
      9 C9          0.5140  -16.2812  -50.8140 C.ar      23 UNK        -0.0193 
     10 C10         0.6336  -16.3309  -52.2064 C.ar      23 UNK        -0.1150 
     11 C11         1.3268  -17.3754  -52.8286 C.ar      23 UNK        -0.0193 
     12 C12         1.8823  -18.3911  -52.0424 C.ar      23 UNK        -0.1150 
     13 C13         1.7480  -18.3664  -50.6508 C.ar      23 UNK        -0.0193 
     14 C14         1.0803  -17.2990  -50.0438 C.ar      23 UNK        -0.1150 
     15 C15         2.3367  -19.4816  -49.7983 C.3       23 UNK        -0.0205 
     16 S16         1.1771  -20.8714  -49.5806 S.3       23 UNK        -0.2404 
     17 C17        -0.1404  -20.0867  -48.5959 C.3       23 UNK        -0.0398 
     18 CA         -1.1252  -21.1141  -47.9966 C.3       11 UNK         0.1400 
     19 N          -0.5389  -21.9146  -46.9175 N.am      11 UNK        -0.5000 
     20 C          -1.0523  -23.0786  -46.4898 C.2       10 UNK         0.5000 
     21 O          -2.0411  -23.6074  -46.9933 O.2       10 UNK        -0.5000 
     22 CA         -0.3881  -23.7481  -45.2702 C.3       10 UNK         0.1400 
     23 CB          0.7775  -24.6423  -45.7176 C.3       10 UNK        -0.1800 
     24 N           0.0949  -22.7890  -44.2778 N.am      10 UNK        -0.5000 
     25 C          -0.6728  -21.9088  -43.6203 C.2       9 UNK         0.5000 
     26 O          -1.9002  -21.8820  -43.7046 O.2       9 UNK        -0.5000 
     27 CA          0.0504  -20.8344  -42.7829 C.3       9 UNK         0.1400 
     28 CB          0.0319  -21.2008  -41.2924 C.3       9 UNK        -0.1800 
     29 N           1.4328  -20.5696  -43.1991 N.am      9 UNK        -0.5000 
     30 C           1.8124  -20.1562  -44.4146 C.2       8 UNK         0.5000 
     31 O           1.0128  -19.9567  -45.3307 O.2       8 UNK        -0.5000 
     32 CA          3.3280  -19.9833  -44.6500 C.3       8 UNK         0.1400 
     33 CB          3.6510  -19.6144  -46.1085 C.3       8 UNK        -0.1800 
     34 N           3.9476  -18.9887  -43.7736 N.am      8 UNK        -0.5000 
     35 C           4.2069  -19.1259  -42.4668 C.2       7 UNK         0.5000 
     36 O           3.8905  -20.1176  -41.8076 O.2       7 UNK        -0.5000 
     37 CA          4.9767  -17.9782  -41.7940 C.3       7 UNK         0.1400 
     38 CB          6.4878  -18.2327  -42.0020 C.3       7 UNK        -0.1800 
     39 N           4.5336  -16.6731  -42.3094 N.am      7 UNK        -0.5000 
     40 C           5.1181  -15.4787  -42.1235 C.2       6 UNK         0.5000 
     41 O           6.1732  -15.3034  -41.5135 O.2       6 UNK        -0.5000 
     42 CA          4.3748  -14.2510  -42.6824 C.3       6 UNK         0.1400 
     43 CB          4.2963  -14.2768  -44.2181 C.3       6 UNK        -0.1800 
     44 N           3.0348  -14.1257  -42.1130 N.am      6 UNK        -0.5000 
     45 C           2.7760  -13.7900  -40.8400 C.2       5 UNK         0.5000 
     46 O           3.6418  -13.4693  -40.0250 O.2       5 UNK        -0.5000 
     47 CA          1.3034  -13.8352  -40.3922 C.3       5 UNK         0.1400 
     48 CB          0.6130  -12.4819  -40.6241 C.3       5 UNK        -0.1800 
     49 N           0.5598  -14.8927  -41.0763 N.am      5 UNK        -0.5000 
     50 C           0.6652  -16.1958  -40.7788 C.2       4 UNK         0.5000 
     51 O           1.3284  -16.6316  -39.8375 O.2       4 UNK        -0.5000 
     52 CA         -0.0766  -17.1839  -41.6978 C.3       4 UNK         0.1400 
     53 CB         -1.4666  -17.5096  -41.1315 C.3       4 UNK        -0.1800 
     54 N          -0.2115  -16.7063  -43.0762 N.am      4 UNK        -0.5000 
     55 C           0.8174  -16.5449  -43.9199 C.2       3 UNK         0.5000 
     56 O           1.9850  -16.7907  -43.6237 O.2       3 UNK        -0.5000 
     57 CA          0.5017  -15.9371  -45.2952 C.3       3 UNK         0.1400 
     58 CB          0.0688  -17.0131  -46.2948 C.3       3 UNK        -0.1800 
     59 N          -0.5216  -14.8970  -45.2315 N.am      3 UNK        -0.5000 
     60 C          -0.3431  -13.7066  -44.6407 C.2       2 UNK         0.5000 
     61 O           0.6588  -13.4349  -43.9771 O.2       2 UNK        -0.5000 
     62 CA         -1.4649  -12.6559  -44.7998 C.3       2 UNK         0.1400 
     63 CB         -0.9176  -11.2145  -44.8397 C.3       2 UNK        -0.1800 
     64 N          -2.3557  -12.9090  -45.9394 N.am      2 UNK        -0.5000 
     65 C          -2.0314  -12.9808  -47.2415 C.2       1 UNK         0.5000 
     66 O          -0.9080  -12.7320  -47.6813 O.2       1 UNK        -0.5000 
     67 C          -2.4153  -20.4148  -47.5294 C.2       11 UNK         0.5000 
     68 O          -3.3667  -20.3320  -48.3062 O.2       11 UNK        -0.5000 
     69 N          -2.4551  -19.9605  -46.2684 N.am      12 UNK        -0.5000 
     70 CA         -3.6513  -19.3687  -45.6651 C.3       12 UNK         0.1400 
     71 CB         -3.3088  -18.7297  -44.3120 C.3       12 UNK        -0.1800 
     72 C          -4.7899  -20.3962  -45.5310 C.2       12 UNK         0.5000 
     73 O          -5.9219  -20.1053  -45.9200 O.2       12 UNK        -0.5000 
     74 N          -4.4445  -21.6025  -45.0567 N.am      13 UNK        -0.5000 
     75 CA         -5.3305  -22.7660  -44.9645 C.3       13 UNK         0.1400 
     76 CB         -4.6008  -23.8934  -44.2193 C.3       13 UNK        -0.1800 
     77 C          -5.8383  -23.2638  -46.3333 C.2       13 UNK         0.5000 
     78 O          -6.9497  -23.7863  -46.4138 O.2       13 UNK        -0.5000 
     79 N          -5.0411  -23.0516  -47.3889 N.am      14 UNK        -0.5000 
     80 CA         -5.3655  -23.3431  -48.7868 C.3       14 UNK         0.1400 
     81 CB         -4.0606  -23.6020  -49.5562 C.3       14 UNK        -0.1800 
     82 C          -6.2142  -22.2468  -49.4689 C.2       14 UNK         0.5000 
     83 O          -6.2655  -22.2111  -50.6999 O.2       14 UNK        -0.5000 
     84 N          -6.8617  -21.3828  -48.6725 N.am      15 UNK        -0.5000 
     85 CA         -7.7624  -20.3004  -49.0740 C.3       15 UNK         0.1400 
     86 CB         -9.0175  -20.8590  -49.7783 C.3       15 UNK        -0.1800 
     87 C          -7.0315  -19.2238  -49.8946 C.2       15 UNK         0.5000 
     88 O          -7.4056  -18.9488  -51.0350 O.2       15 UNK        -0.5000 
     89 N          -5.9807  -18.6535  -49.2878 N.am      16 UNK        -0.5000 
     90 CA         -5.0872  -17.6382  -49.8583 C.3       16 UNK         0.1400 
     91 CB         -5.8480  -16.3263  -50.1472 C.3       16 UNK        -0.1800 
     92 C          -4.3168  -18.1812  -51.0770 C.2       16 UNK         0.5000 
     93 O          -4.3151  -17.5713  -52.1472 O.2       16 UNK        -0.5000 
     94 N          -3.7047  -19.3547  -50.8701 N.am      17 UNK        -0.5000 
     95 CA         -2.8652  -20.1278  -51.7867 C.3       17 UNK         0.1400 
     96 CB         -1.6529  -19.2954  -52.2403 C.3       17 UNK        -0.1800 
     97 C          -3.6036  -20.7423  -52.9914 C.2       17 UNK         0.5000 
     98 O          -2.9472  -21.3711  -53.8220 O.2       17 UNK        -0.5000 
     99 N          -4.9312  -20.5802  -53.0719 N.am      18 UNK        -0.5000 
    100 CA        -5.7667  -20.9905  -54.2000 C.3       18 UNK         0.1400 
    101 CB        -7.1926  -20.4568  -54.0002 C.3       18 UNK        -0.1800 
    102 C         -5.7839  -22.5096  -54.4320 C.2       18 UNK         0.5000 
    103 O         -5.6019  -22.9504  -55.5673 O.2       18 UNK        -0.5000 
    104 N         -5.9740  -23.2835  -53.3549 N.am      19 UNK        -0.5000 
    105 CA        -6.0020  -24.7482  -53.4028 C.3       19 UNK         0.1400 
    106 CB        -6.7298  -25.2847  -52.1606 C.3       19 UNK        -0.1800 
    107 C         -4.5966  -25.3684  -53.5270 C.2       19 UNK         0.5000 
    108 O         -4.4714  -26.4973  -54.0028 O.2       19 UNK        -0.5000 
    109 N         -3.5694  -24.6218  -53.1017 N.am      20 UNK        -0.5000 
    110 CA        -2.1629  -25.0182  -53.1675 C.3       20 UNK         0.1400 
    111 CB        -1.3996  -24.3195  -52.0288 C.3       20 UNK        -0.1800 
    112 C         -1.5120  -24.6754  -54.5191 C.2       20 UNK         0.5000 
    113 O         -0.4480  -25.2153  -54.8242 O.2       20 UNK        -0.5000 
    114 N         -2.1160  -23.7389  -55.2676 N.am      21 UNK        -0.5000 
    115 CA        -1.5935  -23.0911  -56.4772 C.3       21 UNK         0.1400 
    116 CB        -1.5738  -24.0829  -57.6582 C.3       21 UNK        -0.1800 
    117 C         -0.2276  -22.4094  -56.2313 C.2       21 UNK         0.5000 
    118 O          0.6475  -22.4430  -57.0983 O.2       21 UNK        -0.5000 
    119 N         -0.0651  -21.8494  -55.0233 N.am      22 UNK        -0.5000 
    120 CA         1.1899  -21.3157  -54.4603 C.3       22 UNK         0.1400 
    121 C          2.3091  -22.3784  -54.2171 C.2       22 UNK         0.5000 
    122 N          2.0403  -23.6772  -54.2900 N.am      22 UNK        -0.7600 
    123 O          3.4453  -22.0222  -53.9171 O.2       22 UNK        -0.5000 
    124 C124        1.7168  -20.0647  -55.2194 C.3       23 UNK        -0.0398 
    125 S125        0.5422  -18.6642  -55.1879 S.3       23 UNK        -0.2404 
    126 C126        1.5100  -17.3699  -54.3421 C.3       23 UNK        -0.0205 
    127 H127       -6.2543  -15.3479  -46.5365 H         1 UNK         0.0600 
    128 H128       -5.3228  -16.2349  -45.3295 H         1 UNK         0.0600 
    129 H129       -5.5810  -16.9295  -46.9312 H         1 UNK         0.0600 
    130 H130       -5.1642  -13.9011  -47.7910 H         1 UNK         0.3000 
    131 H131       -3.6784  -12.4521  -48.3923 H         1 UNK         0.0600 
    132 H132       -2.0178  -13.1301  -50.0399 H         1 UNK         0.0800 
    133 H133       -3.5451  -13.8826  -50.2812 H         1 UNK         0.0800 
    134 H134        0.3310  -14.8172  -49.2400 H         1 UNK         0.0800 
    135 H135       -0.1818  -14.2508  -50.8099 H         1 UNK         0.0800 
    136 H136        0.2017  -15.5418  -52.8058 H         1 UNK         0.1150 
    137 H137        2.4212  -19.2020  -52.5096 H         1 UNK         0.1150 
    138 H138        0.9951  -17.2648  -48.9693 H         1 UNK         0.1150 
    139 H139        3.2503  -19.8562  -50.2620 H         1 UNK         0.0800 
    140 H140        2.6296  -19.0933  -48.8227 H         1 UNK         0.0800 
    141 H141       -0.6661  -19.3894  -49.2490 H         1 UNK         0.0800 
    142 H142        0.3125  -19.4865  -47.8088 H         1 UNK         0.0800 
    143 H143       -1.4124  -21.7950  -48.8003 H         1 UNK         0.0600 
    144 H144        0.2391  -21.4958  -46.4202 H         1 UNK         0.3000 
    145 H145       -1.1386  -24.3774  -44.7877 H         1 UNK         0.0600 
    146 H146        1.2058  -25.1844  -44.8743 H         1 UNK         0.0600 
    147 H147        0.4429  -25.3846  -46.4436 H         1 UNK         0.0600 
    148 H148        1.5742  -24.0620  -46.1850 H         1 UNK         0.0600 
    149 H149        1.0934  -22.7398  -44.1428 H         1 UNK         0.3000 
    150 H150       -0.5103  -19.9086  -42.9171 H         1 UNK         0.0600 
    151 H151       -0.9884  -21.3651  -40.9427 H         1 UNK         0.0600 
    152 H152        0.4583  -20.4039  -40.6830 H         1 UNK         0.0600 
    153 H153        0.5984  -22.1121  -41.0969 H         1 UNK         0.0600 
    154 H154        2.1586  -20.6752  -42.4960 H         1 UNK         0.3000 
    155 H155        3.7911  -20.9507  -44.4461 H         1 UNK         0.0600 
    156 H156        3.2316  -18.6447  -46.3791 H         1 UNK         0.0600 
    157 H157        3.2451  -20.3559  -46.7980 H         1 UNK         0.0600 
    158 H158        4.7272  -19.5734  -46.2771 H         1 UNK         0.0600 
    159 H159        4.2100  -18.1203  -44.2156 H         1 UNK         0.3000 
    160 H160        4.7528  -18.0099  -40.7263 H         1 UNK         0.0600 
    161 H161        6.7985  -18.0028  -43.0217 H         1 UNK         0.0600 
    162 H162        6.7445  -19.2758  -41.8100 H         1 UNK         0.0600 
    163 H163        7.0972  -17.6416  -41.3197 H         1 UNK         0.0600 
    164 H164        3.6293  -16.6877  -42.7806 H         1 UNK         0.3000 
    165 H165        4.9423  -13.3616  -42.3999 H         1 UNK         0.0600 
    166 H166        3.7466  -15.1396  -44.5911 H         1 UNK         0.0600 
    167 H167        3.8059  -13.3813  -44.6005 H         1 UNK         0.0600 
    168 H168        5.2945  -14.3132  -44.6558 H         1 UNK         0.0600 
    169 H169        2.2566  -14.3276  -42.7279 H         1 UNK         0.3000 
    170 H170        1.2876  -14.0378  -39.3190 H         1 UNK         0.0600 
    171 H171        0.6213  -12.1934  -41.6748 H         1 UNK         0.0600 
    172 H172       -0.4243  -12.5051  -40.2898 H         1 UNK         0.0600 
    173 H173        1.1160  -11.6909  -40.0667 H         1 UNK         0.0600 
    174 H174        0.0244  -14.6195  -41.8872 H         1 UNK         0.3000 
    175 H175        0.5132  -18.1018  -41.7156 H         1 UNK         0.0600 
    176 H176       -2.1154  -16.6330  -41.1270 H         1 UNK         0.0600 
    177 H177       -1.9591  -18.2894  -41.7104 H         1 UNK         0.0600 
    178 H178       -1.3947  -17.8706  -40.1046 H         1 UNK         0.0600 
    179 H179       -1.1357  -16.4487  -43.3888 H         1 UNK         0.3000 
    180 H180        1.4152  -15.4753  -45.6756 H         1 UNK         0.0600 
    181 H181       -0.2939  -16.5694  -47.2214 H         1 UNK         0.0600 
    182 H182       -0.7262  -17.6446  -45.9000 H         1 UNK         0.0600 
    183 H183        0.9136  -17.6531  -46.5440 H         1 UNK         0.0600 
    184 H184       -1.3809  -15.0752  -45.7446 H         1 UNK         0.3000 
    185 H185       -2.0843  -12.7465  -43.9066 H         1 UNK         0.0600 
    186 H186       -0.2237  -11.0675  -45.6678 H         1 UNK         0.0600 
    187 H187       -1.7240  -10.4887  -44.9439 H         1 UNK         0.0600 
    188 H188       -0.3827  -10.9725  -43.9205 H         1 UNK         0.0600 
    189 H189       -3.3085  -13.1409  -45.6965 H         1 UNK         0.3000 
    190 H190       -1.6456  -20.0820  -45.6771 H         1 UNK         0.3000 
    191 H191       -3.9949  -18.5763  -46.3310 H         1 UNK         0.0600 
    192 H192       -4.1889  -18.2591  -43.8724 H         1 UNK         0.0600 
    193 H193       -2.5524  -17.9543  -44.4227 H         1 UNK         0.0600 
    194 H194       -2.9410  -19.4641  -43.5969 H         1 UNK         0.0600 
    195 H195       -3.4935  -21.7349  -44.7208 H         1 UNK         0.3000 
    196 H196       -6.2023  -22.4732  -44.3760 H         1 UNK         0.0600 
    197 H197       -3.7085  -24.2165  -44.7564 H         1 UNK         0.0600 
    198 H198       -4.2937  -23.5740  -43.2232 H         1 UNK         0.0600 
    199 H199       -5.2457  -24.7646  -44.0980 H         1 UNK         0.0600 
    200 H200       -4.1276  -22.6505  -47.2221 H         1 UNK         0.3000 
    201 H201       -5.9565  -24.2602  -48.8207 H         1 UNK         0.0600 
    202 H202       -3.4283  -22.7166  -49.5856 H         1 UNK         0.0600 
    203 H203       -4.2600  -23.8922  -50.5850 H         1 UNK         0.0600 
    204 H204       -3.4897  -24.4123  -49.1033 H         1 UNK         0.0600 
    205 H205       -6.7049  -21.4632  -47.6767 H         1 UNK         0.3000 
    206 H206       -8.0927  -19.8173  -48.1531 H         1 UNK         0.0600 
    207 H207       -9.5227  -21.5970  -49.1553 H         1 UNK         0.0600 
    208 H208       -9.7334  -20.0624  -49.9839 H         1 UNK         0.0600 
    209 H209       -8.7776  -21.3329  -50.7306 H         1 UNK         0.0600 
    210 H210       -5.7205  -19.0075  -48.3770 H         1 UNK         0.3000 
    211 H211       -4.3360  -17.4250  -49.0969 H         1 UNK         0.0600 
    212 H212       -5.1600  -15.5431  -50.4616 H         1 UNK         0.0600 
    213 H213       -6.3701  -15.9663  -49.2615 H         1 UNK         0.0600 
    214 H214       -6.5831  -16.4450  -50.9433 H         1 UNK         0.0600 
    215 H215       -3.7801  -19.7536  -49.9352 H         1 UNK         0.3000 
    216 H216       -2.4878  -20.9667  -51.2010 H         1 UNK         0.0600 
    217 H217       -1.9318  -18.5285  -52.9635 H         1 UNK         0.0600 
    218 H218       -0.9045  -19.9271  -52.7127 H         1 UNK         0.0600 
    219 H219       -1.1713  -18.7956  -51.4021 H         1 UNK         0.0600 
    220 H220       -5.3983  -20.0837  -52.3255 H         1 UNK         0.3000 
    221 H221       -5.3546  -20.5247  -55.0975 H         1 UNK         0.0600 
    222 H222       -7.1984  -19.3696  -53.9191 H         1 UNK         0.0600 
    223 H223       -7.6492  -20.8606  -53.0955 H         1 UNK         0.0600 
    224 H224       -7.8336  -20.7247  -54.8410 H         1 UNK         0.0600 
    225 H225       -6.1121  -22.8438  -52.4460 H         1 UNK         0.3000 
    226 H226       -6.5737  -25.0550  -54.2813 H         1 UNK         0.0600 
    227 H227       -6.1960  -25.0468  -51.2419 H         1 UNK         0.0600 
    228 H228       -7.7339  -24.8676  -52.0811 H         1 UNK         0.0600 
    229 H229       -6.8309  -26.3697  -52.2073 H         1 UNK         0.0600 
    230 H230       -3.7684  -23.6952  -52.7557 H         1 UNK         0.3000 
    231 H231       -2.0799  -26.0975  -53.0232 H         1 UNK         0.0600 
    232 H232       -1.4742  -23.2336  -52.0962 H         1 UNK         0.0600 
    233 H233       -0.3393  -24.5752  -52.0519 H         1 UNK         0.0600 
    234 H234       -1.7796  -24.6242  -51.0542 H         1 UNK         0.0600 
    235 H235       -2.9488  -23.3079  -54.8870 H         1 UNK         0.3000 
    236 H236       -2.2940  -22.2919  -56.7236 H         1 UNK         0.0600 
    237 H237       -2.5532  -24.5383  -57.8050 H         1 UNK         0.0600 
    238 H238       -1.3086  -23.5785  -58.5880 H         1 UNK         0.0600 
    239 H239       -0.8510  -24.8843  -57.5027 H         1 UNK         0.0600 
    240 H240       -0.8695  -21.8337  -54.4083 H         1 UNK         0.3000 
    241 H241        0.9354  -20.9925  -53.4519 H         1 UNK         0.0600 
    242 H242        2.7813  -24.3370  -54.1157 H         1 UNK         0.3800 
    243 H243        1.1214  -24.0224  -54.5441 H         1 UNK         0.3800 
    244 H244        2.6671  -19.7335  -54.8005 H         1 UNK         0.0800 
    245 H245        1.9319  -20.3090  -56.2598 H         1 UNK         0.0800 
    246 H246        2.5690  -17.4608  -54.5861 H         1 UNK         0.0800 
    247 H247        1.2001  -16.4062  -54.7489 H         1 UNK         0.0800 
@<TRIPOS>BOND
     1    1    2 1    
     2    1  127 1    
     3    1  128 1    
     4    1  129 1    
     5    2    3 2    
     6    2    4 am   BACKBONE|DICT|INTERRES
     7    4    5 1    
     8    4  130 1    
     9    5    6 1    
    10    5   65 1    
    11    5  131 1    
    12    6    7 1    
    13    6  132 1    
    14    6  133 1    
    15    7    8 1    
    16    8    9 1    
    17    8  134 1    
    18    8  135 1    
    19    9   10 ar   
    20    9   14 ar   
    21   10   11 ar   
    22   10  136 1    
    23   11   12 ar   
    24   11  126 1    
    25   12   13 ar   
    26   12  137 1    
    27   13   14 ar   
    28   13   15 1    
    29   14  138 1    
    30   15   16 1    
    31   15  139 1    
    32   15  140 1    
    33   16   17 1    
    34   17   18 1    
    35   17  141 1    
    36   17  142 1    
    37   18   19 1    
    38   18   67 1    
    39   18  143 1    
    40   19   20 am   BACKBONE|DICT|INTERRES
    41   19  144 1    
    42   20   21 2    
    43   20   22 1    
    44   22   23 1    
    45   22   24 1    
    46   22  145 1    
    47   23  146 1    
    48   23  147 1    
    49   23  148 1    
    50   24   25 am   BACKBONE|DICT|INTERRES
    51   24  149 1    
    52   25   26 2    
    53   25   27 1    
    54   27   28 1    
    55   27   29 1    
    56   27  150 1    
    57   28  151 1    
    58   28  152 1    
    59   28  153 1    
    60   29   30 am   BACKBONE|DICT|INTERRES
    61   29  154 1    
    62   30   31 2    
    63   30   32 1    
    64   32   33 1    
    65   32   34 1    
    66   32  155 1    
    67   33  156 1    
    68   33  157 1    
    69   33  158 1    
    70   34   35 am   BACKBONE|DICT|INTERRES
    71   34  159 1    
    72   35   36 2    
    73   35   37 1    
    74   37   38 1    
    75   37   39 1    
    76   37  160 1    
    77   38  161 1    
    78   38  162 1    
    79   38  163 1    
    80   39   40 am   BACKBONE|DICT|INTERRES
    81   39  164 1    
    82   40   41 2    
    83   40   42 1    
    84   42   43 1    
    85   42   44 1    
    86   42  165 1    
    87   43  166 1    
    88   43  167 1    
    89   43  168 1    
    90   44   45 am   BACKBONE|DICT|INTERRES
    91   44  169 1    
    92   45   46 2    
    93   45   47 1    
    94   47   48 1    
    95   47   49 1    
    96   47  170 1    
    97   48  171 1    
    98   48  172 1    
    99   48  173 1    
   100   49   50 am   BACKBONE|DICT|INTERRES
   101   49  174 1    
   102   50   51 2    
   103   50   52 1    
   104   52   53 1    
   105   52   54 1    
   106   52  175 1    
   107   53  176 1    
   108   53  177 1    
   109   53  178 1    
   110   54   55 am   BACKBONE|DICT|INTERRES
   111   54  179 1    
   112   55   56 2    
   113   55   57 1    
   114   57   58 1    
   115   57   59 1    
   116   57  180 1    
   117   58  181 1    
   118   58  182 1    
   119   58  183 1    
   120   59   60 am   BACKBONE|DICT|INTERRES
   121   59  184 1    
   122   60   61 2    
   123   60   62 1    
   124   62   63 1    
   125   62   64 1    
   126   62  185 1    
   127   63  186 1    
   128   63  187 1    
   129   63  188 1    
   130   64   65 am   BACKBONE|DICT|INTERRES
   131   64  189 1    
   132   65   66 2    
   133   67   68 2    
   134   67   69 am   BACKBONE|DICT|INTERRES
   135   69   70 1    
   136   69  190 1    
   137   70   71 1    
   138   70   72 1    
   139   70  191 1    
   140   71  192 1    
   141   71  193 1    
   142   71  194 1    
   143   72   73 2    
   144   72   74 am   BACKBONE|DICT|INTERRES
   145   74   75 1    
   146   74  195 1    
   147   75   76 1    
   148   75   77 1    
   149   75  196 1    
   150   76  197 1    
   151   76  198 1    
   152   76  199 1    
   153   77   78 2    
   154   77   79 am   BACKBONE|DICT|INTERRES
   155   79   80 1    
   156   79  200 1    
   157   80   81 1    
   158   80   82 1    
   159   80  201 1    
   160   81  202 1    
   161   81  203 1    
   162   81  204 1    
   163   82   83 2    
   164   82   84 am   BACKBONE|DICT|INTERRES
   165   84   85 1    
   166   84  205 1    
   167   85   86 1    
   168   85   87 1    
   169   85  206 1    
   170   86  207 1    
   171   86  208 1    
   172   86  209 1    
   173   87   88 2    
   174   87   89 am   BACKBONE|DICT|INTERRES
   175   89   90 1    
   176   89  210 1    
   177   90   91 1    
   178   90   92 1    
   179   90  211 1    
   180   91  212 1    
   181   91  213 1    
   182   91  214 1    
   183   92   93 2    
   184   92   94 am   BACKBONE|DICT|INTERRES
   185   94   95 1    
   186   94  215 1    
   187   95   96 1    
   188   95   97 1    
   189   95  216 1    
   190   96  217 1    
   191   96  218 1    
   192   96  219 1    
   193   97   98 2    
   194   97   99 am   BACKBONE|DICT|INTERRES
   195   99  100 1    
   196   99  220 1    
   197  100  101 1    
   198  100  102 1    
   199  100  221 1    
   200  101  222 1    
   201  101  223 1    
   202  101  224 1    
   203  102  103 2    
   204  102  104 am   BACKBONE|DICT|INTERRES
   205  104  105 1    
   206  104  225 1    
   207  105  106 1    
   208  105  107 1    
   209  105  226 1    
   210  106  227 1    
   211  106  228 1    
   212  106  229 1    
   213  107  108 2    
   214  107  109 am   BACKBONE|DICT|INTERRES
   215  109  110 1    
   216  109  230 1    
   217  110  111 1    
   218  110  112 1    
   219  110  231 1    
   220  111  232 1    
   221  111  233 1    
   222  111  234 1    
   223  112  113 2    
   224  112  114 am   BACKBONE|DICT|INTERRES
   225  114  115 1    
   226  114  235 1    
   227  115  116 1    
   228  115  117 1    
   229  115  236 1    
   230  116  237 1    
   231  116  238 1    
   232  116  239 1    
   233  117  118 2    
   234  117  119 am   BACKBONE|DICT|INTERRES
   235  119  120 1    
   236  119  240 1    
   237  120  121 1    
   238  120  124 1    
   239  120  241 1    
   240  121  122 am   BACKBONE|DICT|INTERRES
   241  121  123 2    
   242  122  242 1    
   243  122  243 1    
   244  124  125 1    
   245  124  244 1    
   246  124  245 1    
   247  125  126 1    
   248  126  246 1    
   249  126  247 1    
@<TRIPOS>SUBSTRUCTURE
     1 UNK         1 GROUP             0       ****    0 ROOT    
