@<TRIPOS>MOLECULE
3R540
247   249    1
SMALL
USER_CHARGES


@<TRIPOS>ATOM
      1 CA         -0.5889  -11.4902  -46.9052 C.3       0 UNK        -0.1800 
      2 C           0.6066  -11.0383  -47.7320 C.2       0 UNK         0.5000 
      3 O           0.8045   -9.8388  -47.9243 O.2       0 UNK        -0.5000 
      4 N           1.4053  -11.9969  -48.2181 N.am      1 UNK        -0.5000 
      5 CA          2.6262  -11.7689  -49.0036 C.3       1 UNK         0.1400 
      6 C6          3.0192  -13.0304  -49.8232 C.3       23 UNK        -0.0398 
      7 S7          3.8282  -14.3889  -48.8953 S.3       23 UNK        -0.2404 
      8 C8          2.4400  -15.2568  -48.1031 C.3       23 UNK        -0.0205 
      9 C9          1.6244  -16.0905  -49.0790 C.ar      23 UNK        -0.0193 
     10 C10         0.4656  -15.5737  -49.6664 C.ar      23 UNK        -0.1150 
     11 C11        -0.2975  -16.3538  -50.5409 C.ar      23 UNK        -0.0193 
     12 C12         0.0939  -17.6718  -50.7955 C.ar      23 UNK        -0.1150 
     13 C13         1.2268  -18.2176  -50.1863 C.ar      23 UNK        -0.0193 
     14 C14         2.0091  -17.4037  -49.3581 C.ar      23 UNK        -0.1150 
     15 C15         1.5606  -19.6878  -50.4437 C.3       23 UNK        -0.0205 
     16 S16         2.4626  -20.5499  -49.1048 S.3       23 UNK        -0.2404 
     17 C17         1.4722  -20.1816  -47.6143 C.3       23 UNK        -0.0398 
     18 CA          0.4704  -21.2924  -47.2272 C.3       11 UNK         0.1400 
     19 N           0.1705  -21.2571  -45.7938 N.am      11 UNK        -0.5000 
     20 C          -0.5444  -22.1730  -45.1276 C.2       10 UNK         0.5000 
     21 O          -0.9992  -23.1936  -45.6429 O.2       10 UNK        -0.5000 
     22 CA         -0.8426  -21.8701  -43.6472 C.3       10 UNK         0.1400 
     23 CB          0.3617  -22.2165  -42.7593 C.3       10 UNK        -0.1800 
     24 N          -1.2336  -20.4756  -43.4300 N.am      10 UNK        -0.5000 
     25 C          -2.3470  -19.9218  -43.9321 C.2       9 UNK         0.5000 
     26 O          -3.1835  -20.5461  -44.5842 O.2       9 UNK        -0.5000 
     27 CA         -2.5423  -18.4117  -43.7071 C.3       9 UNK         0.1400 
     28 CB         -3.1064  -18.1388  -42.3050 C.3       9 UNK        -0.1800 
     29 N          -1.3139  -17.6413  -43.9059 N.am      9 UNK        -0.5000 
     30 C          -0.6481  -17.5534  -45.0665 C.2       8 UNK         0.5000 
     31 O          -1.0169  -18.0911  -46.1084 O.2       8 UNK        -0.5000 
     32 CA          0.6877  -16.7897  -45.0500 C.3       8 UNK         0.1400 
     33 CB          0.4570  -15.2714  -45.0832 C.3       8 UNK        -0.1800 
     34 N           1.5192  -17.1419  -43.8993 N.am      8 UNK        -0.5000 
     35 C           1.9808  -18.3748  -43.6440 C.2       7 UNK         0.5000 
     36 O           1.7987  -19.3417  -44.3822 O.2       7 UNK        -0.5000 
     37 CA          2.7181  -18.5749  -42.3110 C.3       7 UNK         0.1400 
     38 CB          4.1842  -18.1302  -42.4188 C.3       7 UNK        -0.1800 
     39 N           2.0551  -17.8599  -41.2213 N.am      7 UNK        -0.5000 
     40 C           0.8690  -18.2119  -40.7045 C.2       6 UNK         0.5000 
     41 O           0.2336  -19.2038  -41.0639 O.2       6 UNK        -0.5000 
     42 CA          0.2776  -17.2735  -39.6363 C.3       6 UNK         0.1400 
     43 CB          0.8765  -17.5774  -38.2550 C.3       6 UNK        -0.1800 
     44 N           0.4823  -15.8589  -39.9550 N.am      6 UNK        -0.5000 
     45 C          -0.0933  -15.2288  -40.9885 C.2       5 UNK         0.5000 
     46 O          -0.8849  -15.7689  -41.7593 O.2       5 UNK        -0.5000 
     47 CA          0.3125  -13.7629  -41.2297 C.3       5 UNK         0.1400 
     48 CB         -0.5856  -12.8148  -40.4221 C.3       5 UNK        -0.1800 
     49 N           1.7158  -13.4720  -40.9269 N.am      5 UNK        -0.5000 
     50 C           2.7751  -14.0659  -41.4905 C.2       4 UNK         0.5000 
     51 O           2.6850  -14.9842  -42.3074 O.2       4 UNK        -0.5000 
     52 CA          4.1572  -13.5178  -41.0808 C.3       4 UNK         0.1400 
     53 CB          5.3036  -14.4697  -41.4650 C.3       4 UNK        -0.1800 
     54 N           4.4047  -12.2142  -41.6943 N.am      4 UNK        -0.5000 
     55 C           3.8418  -11.0544  -41.3276 C.2       3 UNK         0.5000 
     56 O           3.0982  -10.9405  -40.3515 O.2       3 UNK        -0.5000 
     57 CA          4.1506   -9.8146  -42.1935 C.3       3 UNK         0.1400 
     58 CB          5.1640   -8.9040  -41.4828 C.3       3 UNK        -0.1800 
     59 N           4.6564  -10.1297  -43.5346 N.am      3 UNK        -0.5000 
     60 C           3.9411  -10.7063  -44.5091 C.2       2 UNK         0.5000 
     61 O           2.7605  -11.0461  -44.3855 O.2       2 UNK        -0.5000 
     62 CA          4.6819  -10.9685  -45.8292 C.3       2 UNK         0.1400 
     63 CB          5.7445  -12.0713  -45.6650 C.3       2 UNK        -0.1800 
     64 N           3.7090  -11.3840  -46.8289 N.am      2 UNK        -0.5000 
     65 C           3.7983  -11.2198  -48.1533 C.2       1 UNK         0.5000 
     66 O           4.7501  -10.6708  -48.7107 O.2       1 UNK        -0.5000 
     67 C          -0.8131  -21.2190  -48.0806 C.2       11 UNK         0.5000 
     68 O          -0.9673  -22.0067  -49.0127 O.2       11 UNK        -0.5000 
     69 N          -1.7292  -20.3093  -47.7202 N.am      12 UNK        -0.5000 
     70 CA         -3.0420  -20.1502  -48.3432 C.3       12 UNK         0.1400 
     71 CB         -3.7402  -18.9124  -47.7630 C.3       12 UNK        -0.1800 
     72 C          -3.9245  -21.4012  -48.1951 C.2       12 UNK         0.5000 
     73 O          -4.5355  -21.8260  -49.1738 O.2       12 UNK        -0.5000 
     74 N          -3.9399  -21.9993  -46.9954 N.am      13 UNK        -0.5000 
     75 CA         -4.6371  -23.2540  -46.7083 C.3       13 UNK         0.1400 
     76 CB         -4.6054  -23.5303  -45.1978 C.3       13 UNK        -0.1800 
     77 C          -4.0663  -24.4467  -47.4981 C.2       13 UNK         0.5000 
     78 O          -4.8378  -25.2444  -48.0318 O.2       13 UNK        -0.5000 
     79 N          -2.7309  -24.5284  -47.5881 N.am      14 UNK        -0.5000 
     80 CA         -2.0137  -25.5276  -48.3814 C.3       14 UNK         0.1400 
     81 CB         -0.5117  -25.4585  -48.0674 C.3       14 UNK        -0.1800 
     82 C          -2.2672  -25.3792  -49.8928 C.2       14 UNK         0.5000 
     83 O          -2.4275  -26.3883  -50.5795 O.2       14 UNK        -0.5000 
     84 N          -2.3311  -24.1311  -50.3780 N.am      15 UNK        -0.5000 
     85 CA         -2.6949  -23.7947  -51.7524 C.3       15 UNK         0.1400 
     86 CB         -2.4164  -22.3078  -52.0241 C.3       15 UNK        -0.1800 
     87 C          -4.1567  -24.1614  -52.0586 C.2       15 UNK         0.5000 
     88 O          -4.4083  -24.8812  -53.0241 O.2       15 UNK        -0.5000 
     89 N          -5.0899  -23.7277  -51.1989 N.am      16 UNK        -0.5000 
     90 CA         -6.5321  -23.9737  -51.3152 C.3       16 UNK         0.1400 
     91 CB         -7.2605  -23.2947  -50.1449 C.3       16 UNK        -0.1800 
     92 C          -6.9287  -25.4619  -51.3877 C.2       16 UNK         0.5000 
     93 O          -7.9635  -25.7844  -51.9719 O.2       16 UNK        -0.5000 
     94 N          -6.0986  -26.3365  -50.8068 N.am      17 UNK        -0.5000 
     95 CA         -6.2881  -27.7834  -50.7751 C.3       17 UNK         0.1400 
     96 CB         -5.3337  -28.3843  -49.7312 C.3       17 UNK        -0.1800 
     97 C          -6.1112  -28.4906  -52.1353 C.2       17 UNK         0.5000 
     98 O          -6.5987  -29.6149  -52.2678 O.2       17 UNK        -0.5000 
     99 N          -5.4261  -27.8696  -53.1104 N.am      18 UNK        -0.5000 
    100 CA        -5.1445  -28.5019  -54.4054 C.3       18 UNK         0.1400 
    101 CB        -3.9540  -29.4719  -54.2779 C.3       18 UNK        -0.1800 
    102 C         -4.9021  -27.5008  -55.5447 C.2       18 UNK         0.5000 
    103 O         -5.4762  -27.6617  -56.6224 O.2       18 UNK        -0.5000 
    104 N         -4.0392  -26.5060  -55.3091 N.am      19 UNK        -0.5000 
    105 CA        -3.6225  -25.5128  -56.3031 C.3       19 UNK         0.1400 
    106 CB        -2.2904  -24.8919  -55.8525 C.3       19 UNK        -0.1800 
    107 C         -4.6661  -24.4062  -56.5483 C.2       19 UNK         0.5000 
    108 O         -4.6174  -23.7627  -57.5974 O.2       19 UNK        -0.5000 
    109 N         -5.5649  -24.1973  -55.5755 N.am      20 UNK        -0.5000 
    110 CA        -6.5241  -23.0965  -55.4716 C.3       20 UNK         0.1400 
    111 CB        -7.5303  -23.0920  -56.6452 C.3       20 UNK        -0.1800 
    112 C         -5.7703  -21.7710  -55.2481 C.2       20 UNK         0.5000 
    113 O         -4.9957  -21.6934  -54.2920 O.2       20 UNK        -0.5000 
    114 N         -5.9944  -20.7671  -56.1090 N.am      21 UNK        -0.5000 
    115 CA        -5.3570  -19.4454  -56.1086 C.3       21 UNK         0.1400 
    116 CB        -3.8734  -19.5659  -56.5260 C.3       21 UNK        -0.1800 
    117 C         -5.5707  -18.7045  -54.7716 C.2       21 UNK         0.5000 
    118 O         -6.6656  -18.1893  -54.5400 O.2       21 UNK        -0.5000 
    119 N         -4.5394  -18.6835  -53.9178 N.am      22 UNK        -0.5000 
    120 CA        -4.5972  -18.1754  -52.5385 C.3       22 UNK         0.1400 
    121 C         -5.4599  -19.0481  -51.5781 C.2       22 UNK         0.5000 
    122 N         -5.6678  -20.3286  -51.8579 N.am      22 UNK        -0.7600 
    123 O         -5.9603  -18.5532  -50.5732 O.2       22 UNK        -0.5000 
    124 C124       -3.1687  -17.9650  -51.9684 C.3       23 UNK        -0.0398 
    125 S125       -3.0739  -16.6086  -50.7461 S.3       23 UNK        -0.2404 
    126 C126       -1.5286  -15.7618  -51.2196 C.3       23 UNK        -0.0205 
    127 H127       -0.6789  -12.5764  -46.8801 H         1 UNK         0.0600 
    128 H128       -1.5101  -11.0833  -47.3223 H         1 UNK         0.0600 
    129 H129       -0.4899  -11.1336  -45.8798 H         1 UNK         0.0600 
    130 H130        1.1854  -12.9615  -48.0275 H         1 UNK         0.3000 
    131 H131        2.3906  -10.9871  -49.7291 H         1 UNK         0.0600 
    132 H132        2.1545  -13.4193  -50.3605 H         1 UNK         0.0800 
    133 H133        3.7197  -12.7319  -50.6047 H         1 UNK         0.0800 
    134 H134        1.8034  -14.5506  -47.5752 H         1 UNK         0.0800 
    135 H135        2.8531  -15.9087  -47.3321 H         1 UNK         0.0800 
    136 H136        0.1606  -14.5600  -49.4504 H         1 UNK         0.1150 
    137 H137       -0.4916  -18.2847  -51.4633 H         1 UNK         0.1150 
    138 H138        2.9028  -17.7990  -48.8969 H         1 UNK         0.1150 
    139 H139        0.6422  -20.2444  -50.6377 H         1 UNK         0.0800 
    140 H140        2.1546  -19.7511  -51.3560 H         1 UNK         0.0800 
    141 H141        0.9746  -19.2148  -47.6854 H         1 UNK         0.0800 
    142 H142        2.2068  -20.0638  -46.8179 H         1 UNK         0.0800 
    143 H143        0.9389  -22.2598  -47.4200 H         1 UNK         0.0600 
    144 H144        0.5456  -20.4671  -45.2752 H         1 UNK         0.3000 
    145 H145       -1.6792  -22.5023  -43.3423 H         1 UNK         0.0600 
    146 H146        1.2314  -21.6048  -42.9990 H         1 UNK         0.0600 
    147 H147        0.1292  -22.0662  -41.7049 H         1 UNK         0.0600 
    148 H148        0.6502  -23.2609  -42.8840 H         1 UNK         0.0600 
    149 H149       -0.6114  -19.9065  -42.8668 H         1 UNK         0.3000 
    150 H150       -3.2731  -18.0609  -44.4384 H         1 UNK         0.0600 
    151 H151       -4.0268  -18.6997  -42.1376 H         1 UNK         0.0600 
    152 H152       -3.3416  -17.0824  -42.1746 H         1 UNK         0.0600 
    153 H153       -2.4008  -18.4228  -41.5240 H         1 UNK         0.0600 
    154 H154       -0.9720  -17.1202  -43.1028 H         1 UNK         0.3000 
    155 H155        1.2375  -17.0723  -45.9495 H         1 UNK         0.0600 
    156 H156        1.4007  -14.7254  -45.0817 H         1 UNK         0.0600 
    157 H157       -0.0913  -14.9833  -45.9808 H         1 UNK         0.0600 
    158 H158       -0.1243  -14.9333  -44.2265 H         1 UNK         0.0600 
    159 H159        1.7591  -16.3923  -43.2562 H         1 UNK         0.3000 
    160 H160        2.7057  -19.6414  -42.0762 H         1 UNK         0.0600 
    161 H161        4.7104  -18.7158  -43.1736 H         1 UNK         0.0600 
    162 H162        4.7107  -18.2684  -41.4745 H         1 UNK         0.0600 
    163 H163        4.2716  -17.0819  -42.7035 H         1 UNK         0.0600 
    164 H164        2.4794  -16.9942  -40.9222 H         1 UNK         0.3000 
    165 H165       -0.7977  -17.4592  -39.5899 H         1 UNK         0.0600 
    166 H166        0.4068  -16.9714  -37.4800 H         1 UNK         0.0600 
    167 H167        0.7234  -18.6233  -37.9855 H         1 UNK         0.0600 
    168 H168        1.9497  -17.3850  -38.2280 H         1 UNK         0.0600 
    169 H169        1.1207  -15.3412  -39.3690 H         1 UNK         0.3000 
    170 H170        0.1605  -13.5508  -42.2894 H         1 UNK         0.0600 
    171 H171       -1.6391  -12.9890  -40.6457 H         1 UNK         0.0600 
    172 H172       -0.4503  -12.9492  -39.3483 H         1 UNK         0.0600 
    173 H173       -0.3722  -11.7723  -40.6596 H         1 UNK         0.0600 
    174 H174        1.8945  -12.6763  -40.3248 H         1 UNK         0.3000 
    175 H175        4.1654  -13.4062  -39.9946 H         1 UNK         0.0600 
    176 H176        5.3637  -14.6181  -42.5441 H         1 UNK         0.0600 
    177 H177        6.2655  -14.0843  -41.1265 H         1 UNK         0.0600 
    178 H178        5.1679  -15.4486  -41.0038 H         1 UNK         0.0600 
    179 H179        4.9846  -12.2131  -42.5195 H         1 UNK         0.3000 
    180 H180        3.2162   -9.2611  -42.3073 H         1 UNK         0.0600 
    181 H181        6.1282   -9.3978  -41.3553 H         1 UNK         0.0600 
    182 H182        4.8075   -8.6197  -40.4918 H         1 UNK         0.0600 
    183 H183        5.3284   -7.9831  -42.0427 H         1 UNK         0.0600 
    184 H184        5.6191   -9.8835  -43.7160 H         1 UNK         0.3000 
    185 H185        5.1571  -10.0374  -46.1448 H         1 UNK         0.0600 
    186 H186        6.2565  -12.2685  -46.6070 H         1 UNK         0.0600 
    187 H187        6.5065  -11.7853  -44.9394 H         1 UNK         0.0600 
    188 H188        5.3001  -13.0084  -45.3265 H         1 UNK         0.0600 
    189 H189        2.8582  -11.7674  -46.4378 H         1 UNK         0.3000 
    190 H190       -1.5041  -19.6524  -46.9762 H         1 UNK         0.3000 
    191 H191       -2.8836  -19.9819  -49.4094 H         1 UNK         0.0600 
    192 H192       -3.8906  -18.9993  -46.6876 H         1 UNK         0.0600 
    193 H193       -4.7191  -18.7656  -48.2188 H         1 UNK         0.0600 
    194 H194       -3.1571  -18.0100  -47.9473 H         1 UNK         0.0600 
    195 H195       -3.4504  -21.5602  -46.2207 H         1 UNK         0.3000 
    196 H196       -5.6799  -23.1290  -47.0066 H         1 UNK         0.0600 
    197 H197       -5.1364  -24.4523  -44.9581 H         1 UNK         0.0600 
    198 H198       -5.0837  -22.7246  -44.6405 H         1 UNK         0.0600 
    199 H199       -3.5853  -23.6320  -44.8271 H         1 UNK         0.0600 
    200 H200       -2.1627  -23.8610  -47.0745 H         1 UNK         0.3000 
    201 H201       -2.3768  -26.5129  -48.0814 H         1 UNK         0.0600 
    202 H202       -0.3221  -25.6377  -47.0090 H         1 UNK         0.0600 
    203 H203       -0.0901  -24.4860  -48.3219 H         1 UNK         0.0600 
    204 H204        0.0398  -26.2131  -48.6296 H         1 UNK         0.0600 
    205 H205       -2.1116  -23.3540  -49.7606 H         1 UNK         0.3000 
    206 H206       -2.0582  -24.3809  -52.4177 H         1 UNK         0.0600 
    207 H207       -1.3698  -22.0635  -51.8420 H         1 UNK         0.0600 
    208 H208       -2.6320  -22.0557  -53.0626 H         1 UNK         0.0600 
    209 H209       -3.0238  -21.6576  -51.3951 H         1 UNK         0.0600 
    210 H210       -4.7977  -23.1355  -50.4233 H         1 UNK         0.3000 
    211 H211       -6.8655  -23.5031  -52.2406 H         1 UNK         0.0600 
    212 H212       -6.9300  -23.6934  -49.1853 H         1 UNK         0.0600 
    213 H213       -8.3384  -23.4486  -50.2107 H         1 UNK         0.0600 
    214 H214       -7.0898  -22.2192  -50.1352 H         1 UNK         0.0600 
    215 H215       -5.2868  -25.9738  -50.3242 H         1 UNK         0.3000 
    216 H216       -7.3106  -27.9756  -50.4437 H         1 UNK         0.0600 
    217 H217       -5.4924  -29.4584  -49.6275 H         1 UNK         0.0600 
    218 H218       -5.4889  -27.9375  -48.7490 H         1 UNK         0.0600 
    219 H219       -4.2902  -28.2333  -50.0077 H         1 UNK         0.0600 
    220 H220       -5.0887  -26.9253  -52.9605 H         1 UNK         0.3000 
    221 H221       -6.0198  -29.0831  -54.7043 H         1 UNK         0.0600 
    222 H222       -3.0616  -28.9648  -53.9095 H         1 UNK         0.0600 
    223 H223       -4.1784  -30.2904  -53.5940 H         1 UNK         0.0600 
    224 H224       -3.7054  -29.9180  -55.2418 H         1 UNK         0.0600 
    225 H225       -3.6599  -26.3860  -54.3794 H         1 UNK         0.3000 
    226 H226       -3.4537  -26.0229  -57.2539 H         1 UNK         0.0600 
    227 H227       -1.5261  -25.6553  -55.7067 H         1 UNK         0.0600 
    228 H228       -1.9131  -24.1935  -56.6006 H         1 UNK         0.0600 
    229 H229       -2.3995  -24.3402  -54.9183 H         1 UNK         0.0600 
    230 H230       -5.4055  -24.7079  -54.7130 H         1 UNK         0.3000 
    231 H231       -7.0949  -23.2775  -54.5611 H         1 UNK         0.0600 
    232 H232       -8.3164  -22.3539  -56.4821 H         1 UNK         0.0600 
    233 H233       -8.0189  -24.0619  -56.7389 H         1 UNK         0.0600 
    234 H234       -7.0599  -22.8678  -57.6027 H         1 UNK         0.0600 
    235 H235       -6.6667  -20.9233  -56.8463 H         1 UNK         0.3000 
    236 H236       -5.8643  -18.8532  -56.8716 H         1 UNK         0.0600 
    237 H237       -3.3892  -18.5886  -56.5427 H         1 UNK         0.0600 
    238 H238       -3.7880  -19.9826  -57.5296 H         1 UNK         0.0600 
    239 H239       -3.3015  -20.2103  -55.8576 H         1 UNK         0.0600 
    240 H240       -3.7001  -19.1780  -54.1808 H         1 UNK         0.3000 
    241 H241       -5.0860  -17.2007  -52.5943 H         1 UNK         0.0600 
    242 H242       -6.1922  -20.8841  -51.2044 H         1 UNK         0.3800 
    243 H243       -5.3001  -20.7532  -52.7056 H         1 UNK         0.3800 
    244 H244       -2.7811  -18.8829  -51.5241 H         1 UNK         0.0800 
    245 H245       -2.4856  -17.7262  -52.7840 H         1 UNK         0.0800 
    246 H246       -1.3956  -15.7785  -52.3018 H         1 UNK         0.0800 
    247 H247       -1.6324  -14.7094  -50.9517 H         1 UNK         0.0800 
@<TRIPOS>BOND
     1    1    2 1    
     2    1  127 1    
     3    1  128 1    
     4    1  129 1    
     5    2    3 2    
     6    2    4 am   BACKBONE|DICT|INTERRES
     7    4    5 1    
     8    4  130 1    
     9    5    6 1    
    10    5   65 1    
    11    5  131 1    
    12    6    7 1    
    13    6  132 1    
    14    6  133 1    
    15    7    8 1    
    16    8    9 1    
    17    8  134 1    
    18    8  135 1    
    19    9   10 ar   
    20    9   14 ar   
    21   10   11 ar   
    22   10  136 1    
    23   11   12 ar   
    24   11  126 1    
    25   12   13 ar   
    26   12  137 1    
    27   13   14 ar   
    28   13   15 1    
    29   14  138 1    
    30   15   16 1    
    31   15  139 1    
    32   15  140 1    
    33   16   17 1    
    34   17   18 1    
    35   17  141 1    
    36   17  142 1    
    37   18   19 1    
    38   18   67 1    
    39   18  143 1    
    40   19   20 am   BACKBONE|DICT|INTERRES
    41   19  144 1    
    42   20   21 2    
    43   20   22 1    
    44   22   23 1    
    45   22   24 1    
    46   22  145 1    
    47   23  146 1    
    48   23  147 1    
    49   23  148 1    
    50   24   25 am   BACKBONE|DICT|INTERRES
    51   24  149 1    
    52   25   26 2    
    53   25   27 1    
    54   27   28 1    
    55   27   29 1    
    56   27  150 1    
    57   28  151 1    
    58   28  152 1    
    59   28  153 1    
    60   29   30 am   BACKBONE|DICT|INTERRES
    61   29  154 1    
    62   30   31 2    
    63   30   32 1    
    64   32   33 1    
    65   32   34 1    
    66   32  155 1    
    67   33  156 1    
    68   33  157 1    
    69   33  158 1    
    70   34   35 am   BACKBONE|DICT|INTERRES
    71   34  159 1    
    72   35   36 2    
    73   35   37 1    
    74   37   38 1    
    75   37   39 1    
    76   37  160 1    
    77   38  161 1    
    78   38  162 1    
    79   38  163 1    
    80   39   40 am   BACKBONE|DICT|INTERRES
    81   39  164 1    
    82   40   41 2    
    83   40   42 1    
    84   42   43 1    
    85   42   44 1    
    86   42  165 1    
    87   43  166 1    
    88   43  167 1    
    89   43  168 1    
    90   44   45 am   BACKBONE|DICT|INTERRES
    91   44  169 1    
    92   45   46 2    
    93   45   47 1    
    94   47   48 1    
    95   47   49 1    
    96   47  170 1    
    97   48  171 1    
    98   48  172 1    
    99   48  173 1    
   100   49   50 am   BACKBONE|DICT|INTERRES
   101   49  174 1    
   102   50   51 2    
   103   50   52 1    
   104   52   53 1    
   105   52   54 1    
   106   52  175 1    
   107   53  176 1    
   108   53  177 1    
   109   53  178 1    
   110   54   55 am   BACKBONE|DICT|INTERRES
   111   54  179 1    
   112   55   56 2    
   113   55   57 1    
   114   57   58 1    
   115   57   59 1    
   116   57  180 1    
   117   58  181 1    
   118   58  182 1    
   119   58  183 1    
   120   59   60 am   BACKBONE|DICT|INTERRES
   121   59  184 1    
   122   60   61 2    
   123   60   62 1    
   124   62   63 1    
   125   62   64 1    
   126   62  185 1    
   127   63  186 1    
   128   63  187 1    
   129   63  188 1    
   130   64   65 am   BACKBONE|DICT|INTERRES
   131   64  189 1    
   132   65   66 2    
   133   67   68 2    
   134   67   69 am   BACKBONE|DICT|INTERRES
   135   69   70 1    
   136   69  190 1    
   137   70   71 1    
   138   70   72 1    
   139   70  191 1    
   140   71  192 1    
   141   71  193 1    
   142   71  194 1    
   143   72   73 2    
   144   72   74 am   BACKBONE|DICT|INTERRES
   145   74   75 1    
   146   74  195 1    
   147   75   76 1    
   148   75   77 1    
   149   75  196 1    
   150   76  197 1    
   151   76  198 1    
   152   76  199 1    
   153   77   78 2    
   154   77   79 am   BACKBONE|DICT|INTERRES
   155   79   80 1    
   156   79  200 1    
   157   80   81 1    
   158   80   82 1    
   159   80  201 1    
   160   81  202 1    
   161   81  203 1    
   162   81  204 1    
   163   82   83 2    
   164   82   84 am   BACKBONE|DICT|INTERRES
   165   84   85 1    
   166   84  205 1    
   167   85   86 1    
   168   85   87 1    
   169   85  206 1    
   170   86  207 1    
   171   86  208 1    
   172   86  209 1    
   173   87   88 2    
   174   87   89 am   BACKBONE|DICT|INTERRES
   175   89   90 1    
   176   89  210 1    
   177   90   91 1    
   178   90   92 1    
   179   90  211 1    
   180   91  212 1    
   181   91  213 1    
   182   91  214 1    
   183   92   93 2    
   184   92   94 am   BACKBONE|DICT|INTERRES
   185   94   95 1    
   186   94  215 1    
   187   95   96 1    
   188   95   97 1    
   189   95  216 1    
   190   96  217 1    
   191   96  218 1    
   192   96  219 1    
   193   97   98 2    
   194   97   99 am   BACKBONE|DICT|INTERRES
   195   99  100 1    
   196   99  220 1    
   197  100  101 1    
   198  100  102 1    
   199  100  221 1    
   200  101  222 1    
   201  101  223 1    
   202  101  224 1    
   203  102  103 2    
   204  102  104 am   BACKBONE|DICT|INTERRES
   205  104  105 1    
   206  104  225 1    
   207  105  106 1    
   208  105  107 1    
   209  105  226 1    
   210  106  227 1    
   211  106  228 1    
   212  106  229 1    
   213  107  108 2    
   214  107  109 am   BACKBONE|DICT|INTERRES
   215  109  110 1    
   216  109  230 1    
   217  110  111 1    
   218  110  112 1    
   219  110  231 1    
   220  111  232 1    
   221  111  233 1    
   222  111  234 1    
   223  112  113 2    
   224  112  114 am   BACKBONE|DICT|INTERRES
   225  114  115 1    
   226  114  235 1    
   227  115  116 1    
   228  115  117 1    
   229  115  236 1    
   230  116  237 1    
   231  116  238 1    
   232  116  239 1    
   233  117  118 2    
   234  117  119 am   BACKBONE|DICT|INTERRES
   235  119  120 1    
   236  119  240 1    
   237  120  121 1    
   238  120  124 1    
   239  120  241 1    
   240  121  122 am   BACKBONE|DICT|INTERRES
   241  121  123 2    
   242  122  242 1    
   243  122  243 1    
   244  124  125 1    
   245  124  244 1    
   246  124  245 1    
   247  125  126 1    
   248  126  246 1    
   249  126  247 1    
@<TRIPOS>SUBSTRUCTURE
     1 UNK         1 GROUP             0       ****    0 ROOT    
