@<TRIPOS>MOLECULE
3R540
247   249    1
SMALL
USER_CHARGES


@<TRIPOS>ATOM
      1 CA         -2.6186  -13.3556  -51.2633 C.3       0 UNK        -0.1800 
      2 C          -1.1499  -13.2479  -50.8787 C.2       0 UNK         0.5000 
      3 O          -0.7482  -12.2572  -50.2689 O.2       0 UNK        -0.5000 
      4 N          -0.3511  -14.2624  -51.2383 N.am      1 UNK        -0.5000 
      5 CA          1.0936  -14.3484  -50.9780 C.3       1 UNK         0.1400 
      6 C6          1.7479  -15.5780  -51.6611 C.3       23 UNK        -0.0398 
      7 S7          1.4181  -15.7185  -53.4533 S.3       23 UNK        -0.2404 
      8 C8         -0.0004  -16.8661  -53.5290 C.3       23 UNK        -0.0205 
      9 C9          0.3168  -18.2534  -52.9863 C.ar      23 UNK        -0.0193 
     10 C10         0.9799  -19.1890  -53.7831 C.ar      23 UNK        -0.1150 
     11 C11         1.2341  -20.4779  -53.3031 C.ar      23 UNK        -0.0193 
     12 C12         0.8255  -20.8265  -52.0120 C.ar      23 UNK        -0.1150 
     13 C13         0.1680  -19.8967  -51.2021 C.ar      23 UNK        -0.0193 
     14 C14        -0.0815  -18.6140  -51.6964 C.ar      23 UNK        -0.1150 
     15 C15        -0.2944  -20.2785  -49.8047 C.3       23 UNK        -0.0205 
     16 S16         1.0743  -20.2547  -48.6138 S.3       23 UNK        -0.2404 
     17 C17         0.1723  -20.3818  -47.0327 C.3       23 UNK        -0.0398 
     18 CA          0.1521  -21.8268  -46.4630 C.3       11 UNK         0.1400 
     19 N           0.6997  -21.8958  -45.1018 N.am      11 UNK        -0.5000 
     20 C           1.0636  -23.0166  -44.4603 C.2       10 UNK         0.5000 
     21 O           0.9326  -24.1455  -44.9358 O.2       10 UNK        -0.5000 
     22 CA          1.6119  -22.8437  -43.0341 C.3       10 UNK         0.1400 
     23 CB          3.0790  -22.3882  -43.0609 C.3       10 UNK        -0.1800 
     24 N           0.8118  -21.8784  -42.2792 N.am      10 UNK        -0.5000 
     25 C          -0.3110  -22.1861  -41.6148 C.2       9 UNK         0.5000 
     26 O          -0.7410  -23.3339  -41.5008 O.2       9 UNK        -0.5000 
     27 CA         -1.1031  -21.0207  -40.9864 C.3       9 UNK         0.1400 
     28 CB         -0.6216  -20.7550  -39.5523 C.3       9 UNK        -0.1800 
     29 N          -1.0273  -19.7771  -41.7540 N.am      9 UNK        -0.5000 
     30 C          -1.4781  -19.6182  -43.0060 C.2       8 UNK         0.5000 
     31 O          -2.0642  -20.4935  -43.6404 O.2       8 UNK        -0.5000 
     32 CA         -1.1671  -18.2766  -43.6915 C.3       8 UNK         0.1400 
     33 CB         -2.2763  -17.2536  -43.4140 C.3       8 UNK        -0.1800 
     34 N           0.1294  -17.7081  -43.3113 N.am      8 UNK        -0.5000 
     35 C           1.3178  -18.3051  -43.4860 C.2       7 UNK         0.5000 
     36 O           1.4527  -19.4333  -43.9554 O.2       7 UNK        -0.5000 
     37 CA          2.5584  -17.5304  -43.0206 C.3       7 UNK         0.1400 
     38 CB          2.9178  -16.4125  -44.0129 C.3       7 UNK        -0.1800 
     39 N           2.3521  -16.9766  -41.6847 N.am      7 UNK        -0.5000 
     40 C           2.3689  -17.7087  -40.5610 C.2       6 UNK         0.5000 
     41 O           2.6542  -18.9060  -40.5278 O.2       6 UNK        -0.5000 
     42 CA          1.9709  -16.9889  -39.2589 C.3       6 UNK         0.1400 
     43 CB          3.2015  -16.3511  -38.5969 C.3       6 UNK        -0.1800 
     44 N           0.9493  -15.9611  -39.4669 N.am      6 UNK        -0.5000 
     45 C          -0.3137  -16.2073  -39.8435 C.2       5 UNK         0.5000 
     46 O          -0.7655  -17.3374  -40.0285 O.2       5 UNK        -0.5000 
     47 CA         -1.2023  -14.9760  -40.1055 C.3       5 UNK         0.1400 
     48 CB         -1.8600  -14.4980  -38.8026 C.3       5 UNK        -0.1800 
     49 N          -0.4774  -13.8603  -40.7240 N.am      5 UNK        -0.5000 
     50 C           0.1007  -13.9103  -41.9310 C.2       4 UNK         0.5000 
     51 O           0.1119  -14.9183  -42.6406 O.2       4 UNK        -0.5000 
     52 CA          0.8542  -12.6529  -42.3914 C.3       4 UNK         0.1400 
     53 CB          2.3501  -12.7853  -42.0654 C.3       4 UNK        -0.1800 
     54 N           0.6981  -12.4571  -43.8311 N.am      4 UNK        -0.5000 
     55 C          -0.3710  -11.8938  -44.4091 C.2       3 UNK         0.5000 
     56 O          -1.3100  -11.4046  -43.7794 O.2       3 UNK        -0.5000 
     57 CA         -0.3959  -11.8668  -45.9504 C.3       3 UNK         0.1400 
     58 CB          0.2302  -10.5675  -46.4792 C.3       3 UNK        -0.1800 
     59 N           0.2888  -13.0086  -46.5604 N.am      3 UNK        -0.5000 
     60 C          -0.1778  -14.2631  -46.5476 C.2       2 UNK         0.5000 
     61 O          -1.2518  -14.5891  -46.0409 O.2       2 UNK        -0.5000 
     62 CA          0.6869  -15.3057  -47.2740 C.3       2 UNK         0.1400 
     63 CB          0.2758  -16.7500  -46.9525 C.3       2 UNK        -0.1800 
     64 N           0.5778  -15.1108  -48.7138 N.am      2 UNK        -0.5000 
     65 C           1.4112  -14.3842  -49.4677 C.2       1 UNK         0.5000 
     66 O           2.3815  -13.7695  -49.0230 O.2       1 UNK        -0.5000 
     67 C          -1.2387  -22.4906  -46.6062 C.2       11 UNK         0.5000 
     68 O          -1.6865  -22.7283  -47.7298 O.2       11 UNK        -0.5000 
     69 N          -1.8838  -22.8184  -45.4781 N.am      12 UNK        -0.5000 
     70 CA         -3.0548  -23.6878  -45.3612 C.3       12 UNK         0.1400 
     71 CB         -3.4419  -23.8135  -43.8812 C.3       12 UNK        -0.1800 
     72 C          -2.8349  -25.0782  -45.9844 C.2       12 UNK         0.5000 
     73 O          -3.7384  -25.5955  -46.6410 O.2       12 UNK        -0.5000 
     74 N          -1.6297  -25.6354  -45.8022 N.am      13 UNK        -0.5000 
     75 CA         -1.2252  -26.9129  -46.3872 C.3       13 UNK         0.1400 
     76 CB         -0.0864  -27.5095  -45.5460 C.3       13 UNK        -0.1800 
     77 C          -0.7917  -26.7763  -47.8586 C.2       13 UNK         0.5000 
     78 O          -0.9245  -27.7378  -48.6163 O.2       13 UNK        -0.5000 
     79 N          -0.2663  -25.6008  -48.2317 N.am      14 UNK        -0.5000 
     80 CA          0.2559  -25.3189  -49.5677 C.3       14 UNK         0.1400 
     81 CB          1.2314  -24.1333  -49.5080 C.3       14 UNK        -0.1800 
     82 C          -0.8605  -25.0564  -50.5908 C.2       14 UNK         0.5000 
     83 O          -0.8715  -25.6945  -51.6443 O.2       14 UNK        -0.5000 
     84 N          -1.7706  -24.1261  -50.2714 N.am      15 UNK        -0.5000 
     85 CA         -2.8390  -23.6848  -51.1679 C.3       15 UNK         0.1400 
     86 CB         -2.2781  -22.8073  -52.3056 C.3       15 UNK        -0.1800 
     87 C          -3.9544  -22.9807  -50.3827 C.2       15 UNK         0.5000 
     88 O          -4.3413  -21.8639  -50.7323 O.2       15 UNK        -0.5000 
     89 N          -4.4438  -23.6435  -49.3244 N.am      16 UNK        -0.5000 
     90 CA         -5.6391  -23.2911  -48.5447 C.3       16 UNK         0.1400 
     91 CB         -6.9062  -23.6375  -49.3525 C.3       16 UNK        -0.1800 
     92 C          -5.6511  -21.8437  -48.0031 C.2       16 UNK         0.5000 
     93 O          -6.6954  -21.1904  -48.0081 O.2       16 UNK        -0.5000 
     94 N          -4.4780  -21.3816  -47.5460 N.am      17 UNK        -0.5000 
     95 CA         -4.2112  -20.0560  -46.9805 C.3       17 UNK         0.1400 
     96 CB         -5.0306  -19.8061  -45.6972 C.3       17 UNK        -0.1800 
     97 C          -4.3409  -18.9423  -48.0375 C.2       17 UNK         0.5000 
     98 O          -4.9680  -17.9118  -47.7899 O.2       17 UNK        -0.5000 
     99 N          -3.7070  -19.1899  -49.1921 N.am      18 UNK        -0.5000 
    100 CA        -3.5820  -18.3108  -50.3568 C.3       18 UNK         0.1400 
    101 CB        -2.9477  -16.9518  -49.9840 C.3       18 UNK        -0.1800 
    102 C         -4.8930  -18.1856  -51.1504 C.2       18 UNK         0.5000 
    103 O         -5.2892  -17.0826  -51.5321 O.2       18 UNK        -0.5000 
    104 N         -5.5274  -19.3337  -51.4135 N.am      19 UNK        -0.5000 
    105 CA        -6.6299  -19.4563  -52.3614 C.3       19 UNK         0.1400 
    106 CB        -7.3698  -20.7755  -52.0977 C.3       19 UNK        -0.1800 
    107 C         -6.1012  -19.4130  -53.8076 C.2       19 UNK         0.5000 
    108 O         -5.0042  -19.9141  -54.0738 O.2       19 UNK        -0.5000 
    109 N         -6.9091  -18.8387  -54.7109 N.am      20 UNK        -0.5000 
    110 CA        -6.6598  -18.6899  -56.1488 C.3       20 UNK         0.1400 
    111 CB        -6.8072  -20.0576  -56.8548 C.3       20 UNK        -0.1800 
    112 C         -5.3238  -17.9674  -56.4349 C.2       20 UNK         0.5000 
    113 O         -5.1737  -16.8059  -56.0516 O.2       20 UNK        -0.5000 
    114 N         -4.3848  -18.6625  -57.0823 N.am      21 UNK        -0.5000 
    115 CA        -3.0221  -18.2198  -57.3533 C.3       21 UNK         0.1400 
    116 CB        -2.9578  -17.5375  -58.7328 C.3       21 UNK        -0.1800 
    117 C         -2.1135  -19.4515  -57.2299 C.2       21 UNK         0.5000 
    118 O         -1.4806  -19.8611  -58.2046 O.2       21 UNK        -0.5000 
    119 N         -2.1303  -20.0523  -56.0337 N.am      22 UNK        -0.5000 
    120 CA        -1.5997  -21.3881  -55.7213 C.3       22 UNK         0.1400 
    121 C         -2.5300  -22.5349  -56.2269 C.2       22 UNK         0.5000 
    122 N         -2.1495  -23.7887  -56.0248 N.am      22 UNK        -0.7600 
    123 O         -3.6029  -22.3093  -56.7842 O.2       22 UNK        -0.5000 
    124 C124       -0.1062  -21.5816  -56.1245 C.3       23 UNK        -0.0398 
    125 S125        0.8062  -22.6610  -54.9650 S.3       23 UNK        -0.2404 
    126 C126        1.9572  -21.4923  -54.1751 C.3       23 UNK        -0.0205 
    127 H127       -3.2255  -13.5397  -50.3767 H         1 UNK         0.0600 
    128 H128       -2.7945  -14.1644  -51.9729 H         1 UNK         0.0600 
    129 H129       -2.9565  -12.4266  -51.7225 H         1 UNK         0.0600 
    130 H130       -0.7377  -15.0206  -51.7777 H         1 UNK         0.3000 
    131 H131        1.5513  -13.4464  -51.3896 H         1 UNK         0.0600 
    132 H132        2.8319  -15.5215  -51.5459 H         1 UNK         0.0800 
    133 H133        1.4577  -16.5015  -51.1624 H         1 UNK         0.0800 
    134 H134       -0.3138  -16.9563  -54.5703 H         1 UNK         0.0800 
    135 H135       -0.8533  -16.4380  -53.0026 H         1 UNK         0.0800 
    136 H136        1.2937  -18.9111  -54.7792 H         1 UNK         0.1150 
    137 H137        1.0160  -21.8226  -51.6385 H         1 UNK         0.1150 
    138 H138       -0.5850  -17.8914  -51.0744 H         1 UNK         0.1150 
    139 H139       -1.0589  -19.5821  -49.4664 H         1 UNK         0.0800 
    140 H140       -0.7522  -21.2676  -49.8200 H         1 UNK         0.0800 
    141 H141       -0.8259  -19.9548  -47.1346 H         1 UNK         0.0800 
    142 H142        0.6886  -19.7082  -46.3514 H         1 UNK         0.0800 
    143 H143        0.8243  -22.4422  -47.0621 H         1 UNK         0.0600 
    144 H144        0.8771  -21.0046  -44.6424 H         1 UNK         0.3000 
    145 H145        1.5736  -23.8159  -42.5380 H         1 UNK         0.0600 
    146 H146        3.4800  -22.2971  -42.0513 H         1 UNK         0.0600 
    147 H147        3.7000  -23.1089  -43.5942 H         1 UNK         0.0600 
    148 H148        3.1994  -21.4237  -43.5549 H         1 UNK         0.0600 
    149 H149        1.0793  -20.9058  -42.3619 H         1 UNK         0.3000 
    150 H150       -2.1521  -21.3213  -40.9458 H         1 UNK         0.0600 
    151 H151       -0.6789  -21.6594  -38.9452 H         1 UNK         0.0600 
    152 H152       -1.2351  -19.9971  -39.0648 H         1 UNK         0.0600 
    153 H153        0.4130  -20.4101  -39.5338 H         1 UNK         0.0600 
    154 H154       -0.6201  -18.9755  -41.2839 H         1 UNK         0.3000 
    155 H155       -1.1418  -18.4629  -44.7665 H         1 UNK         0.0600 
    156 H156       -2.3588  -17.0326  -42.3504 H         1 UNK         0.0600 
    157 H157       -3.2451  -17.6262  -43.7469 H         1 UNK         0.0600 
    158 H158       -2.0896  -16.3164  -43.9391 H         1 UNK         0.0600 
    159 H159        0.1125  -16.7581  -42.9470 H         1 UNK         0.3000 
    160 H160        3.3975  -18.2287  -42.9844 H         1 UNK         0.0600 
    161 H161        2.1156  -15.6832  -44.1215 H         1 UNK         0.0600 
    162 H162        3.1172  -16.8244  -45.0030 H         1 UNK         0.0600 
    163 H163        3.8146  -15.8796  -43.6970 H         1 UNK         0.0600 
    164 H164        2.0549  -16.0138  -41.6317 H         1 UNK         0.3000 
    165 H165        1.5637  -17.7387  -38.5770 H         1 UNK         0.0600 
    166 H166        2.9452  -15.9033  -37.6366 H         1 UNK         0.0600 
    167 H167        3.9747  -17.0976  -38.4100 H         1 UNK         0.0600 
    168 H168        3.6401  -15.5740  -39.2243 H         1 UNK         0.0600 
    169 H169        1.2333  -15.0017  -39.3353 H         1 UNK         0.3000 
    170 H170       -1.9942  -15.2790  -40.7925 H         1 UNK         0.0600 
    171 H171       -2.4232  -15.3047  -38.3312 H         1 UNK         0.0600 
    172 H172       -1.1206  -14.1486  -38.0810 H         1 UNK         0.0600 
    173 H173       -2.5590  -13.6825  -38.9896 H         1 UNK         0.0600 
    174 H174       -0.4341  -13.0023  -40.1928 H         1 UNK         0.3000 
    175 H175        0.4584  -11.7824  -41.8638 H         1 UNK         0.0600 
    176 H176        2.8019  -13.6387  -42.5724 H         1 UNK         0.0600 
    177 H177        2.8978  -11.8914  -42.3644 H         1 UNK         0.0600 
    178 H178        2.5082  -12.9181  -40.9944 H         1 UNK         0.0600 
    179 H179        1.4001  -12.8728  -44.4239 H         1 UNK         0.3000 
    180 H180       -1.4419  -11.8899  -46.2636 H         1 UNK         0.0600 
    181 H181        1.2860  -10.4922  -46.2162 H         1 UNK         0.0600 
    182 H182       -0.2750   -9.6937  -46.0655 H         1 UNK         0.0600 
    183 H183        0.1486  -10.5053  -47.5649 H         1 UNK         0.0600 
    184 H184        1.1526  -12.8170  -47.0500 H         1 UNK         0.3000 
    185 H185        1.7214  -15.1743  -46.9492 H         1 UNK         0.0600 
    186 H186        0.3562  -16.9353  -45.8848 H         1 UNK         0.0600 
    187 H187       -0.7511  -16.9650  -47.2500 H         1 UNK         0.0600 
    188 H188        0.9304  -17.4600  -47.4565 H         1 UNK         0.0600 
    189 H189       -0.2316  -15.5173  -49.1570 H         1 UNK         0.3000 
    190 H190       -1.4982  -22.4792  -44.6065 H         1 UNK         0.3000 
    191 H191       -3.8893  -23.2220  -45.8776 H         1 UNK         0.0600 
    192 H192       -3.6626  -22.8379  -43.4473 H         1 UNK         0.0600 
    193 H193       -4.3323  -24.4318  -43.7607 H         1 UNK         0.0600 
    194 H194       -2.6436  -24.2682  -43.2935 H         1 UNK         0.0600 
    195 H195       -0.9220  -25.1311  -45.2794 H         1 UNK         0.3000 
    196 H196       -2.0696  -27.6048  -46.3507 H         1 UNK         0.0600 
    197 H197        0.2165  -28.4831  -45.9334 H         1 UNK         0.0600 
    198 H198       -0.3949  -27.6536  -44.5104 H         1 UNK         0.0600 
    199 H199        0.7951  -26.8672  -45.5470 H         1 UNK         0.0600 
    200 H200       -0.2113  -24.8616  -47.5486 H         1 UNK         0.3000 
    201 H201        0.8210  -26.1910  -49.9042 H         1 UNK         0.0600 
    202 H202        2.0186  -24.3011  -48.7729 H         1 UNK         0.0600 
    203 H203        0.7237  -23.2045  -49.2538 H         1 UNK         0.0600 
    204 H204        1.7151  -23.9826  -50.4738 H         1 UNK         0.0600 
    205 H205       -1.7170  -23.6580  -49.3692 H         1 UNK         0.3000 
    206 H206       -3.2977  -24.5672  -51.6186 H         1 UNK         0.0600 
    207 H207       -1.5117  -23.3266  -52.8799 H         1 UNK         0.0600 
    208 H208       -3.0699  -22.5312  -53.0032 H         1 UNK         0.0600 
    209 H209       -1.8449  -21.8838  -51.9250 H         1 UNK         0.0600 
    210 H210       -4.0178  -24.5276  -49.0805 H         1 UNK         0.3000 
    211 H211       -5.6335  -23.9349  -47.6647 H         1 UNK         0.0600 
    212 H212       -6.9878  -23.0286  -50.2519 H         1 UNK         0.0600 
    213 H213       -7.8091  -23.4769  -48.7622 H         1 UNK         0.0600 
    214 H214       -6.9037  -24.6839  -49.6574 H         1 UNK         0.0600 
    215 H215       -3.6706  -21.9866  -47.6434 H         1 UNK         0.3000 
    216 H216       -3.1634  -20.0611  -46.6805 H         1 UNK         0.0600 
    217 H217       -4.7339  -18.8695  -45.2252 H         1 UNK         0.0600 
    218 H218       -4.8679  -20.6000  -44.9678 H         1 UNK         0.0600 
    219 H219       -6.1002  -19.7425  -45.8964 H         1 UNK         0.0600 
    220 H220       -3.3414  -20.1227  -49.3215 H         1 UNK         0.3000 
    221 H221       -2.8899  -18.8161  -51.0309 H         1 UNK         0.0600 
    222 H222       -3.6325  -16.3226  -49.4150 H         1 UNK         0.0600 
    223 H223       -2.0451  -17.0834  -49.3887 H         1 UNK         0.0600 
    224 H224       -2.6730  -16.3989  -50.8818 H         1 UNK         0.0600 
    225 H225       -5.1084  -20.2091  -51.1064 H         1 UNK         0.3000 
    226 H226       -7.3259  -18.6294  -52.2049 H         1 UNK         0.0600 
    227 H227       -7.7387  -20.8208  -51.0727 H         1 UNK         0.0600 
    228 H228       -8.2297  -20.8816  -52.7600 H         1 UNK         0.0600 
    229 H229       -6.7209  -21.6370  -52.2611 H         1 UNK         0.0600 
    230 H230       -7.7745  -18.4327  -54.3839 H         1 UNK         0.3000 
    231 H231       -7.4438  -18.0365  -56.5343 H         1 UNK         0.0600 
    232 H232       -7.7979  -20.4780  -56.6811 H         1 UNK         0.0600 
    233 H233       -6.0770  -20.7865  -56.5007 H         1 UNK         0.0600 
    234 H234       -6.6883  -19.9607  -57.9347 H         1 UNK         0.0600 
    235 H235       -4.5765  -19.6299  -57.3098 H         1 UNK         0.3000 
    236 H236       -2.7007  -17.5043  -56.5932 H         1 UNK         0.0600 
    237 H237       -1.9419  -17.2130  -58.9607 H         1 UNK         0.0600 
    238 H238       -3.2776  -18.2100  -59.5297 H         1 UNK         0.0600 
    239 H239       -3.5959  -16.6543  -58.7648 H         1 UNK         0.0600 
    240 H240       -2.7484  -19.6719  -55.3289 H         1 UNK         0.3000 
    241 H241       -1.6588  -21.4230  -54.6346 H         1 UNK         0.0600 
    242 H242       -2.7422  -24.5408  -56.3394 H         1 UNK         0.3800 
    243 H243       -1.2710  -23.9970  -55.5738 H         1 UNK         0.3800 
    244 H244       -0.0234  -21.9947  -57.1312 H         1 UNK         0.0800 
    245 H245        0.4020  -20.6193  -56.1723 H         1 UNK         0.0800 
    246 H246        2.6641  -22.0551  -53.5637 H         1 UNK         0.0800 
    247 H247        2.5517  -20.9908  -54.9403 H         1 UNK         0.0800 
@<TRIPOS>BOND
     1    1    2 1    
     2    1  127 1    
     3    1  128 1    
     4    1  129 1    
     5    2    3 2    
     6    2    4 am   BACKBONE|DICT|INTERRES
     7    4    5 1    
     8    4  130 1    
     9    5    6 1    
    10    5   65 1    
    11    5  131 1    
    12    6    7 1    
    13    6  132 1    
    14    6  133 1    
    15    7    8 1    
    16    8    9 1    
    17    8  134 1    
    18    8  135 1    
    19    9   10 ar   
    20    9   14 ar   
    21   10   11 ar   
    22   10  136 1    
    23   11   12 ar   
    24   11  126 1    
    25   12   13 ar   
    26   12  137 1    
    27   13   14 ar   
    28   13   15 1    
    29   14  138 1    
    30   15   16 1    
    31   15  139 1    
    32   15  140 1    
    33   16   17 1    
    34   17   18 1    
    35   17  141 1    
    36   17  142 1    
    37   18   19 1    
    38   18   67 1    
    39   18  143 1    
    40   19   20 am   BACKBONE|DICT|INTERRES
    41   19  144 1    
    42   20   21 2    
    43   20   22 1    
    44   22   23 1    
    45   22   24 1    
    46   22  145 1    
    47   23  146 1    
    48   23  147 1    
    49   23  148 1    
    50   24   25 am   BACKBONE|DICT|INTERRES
    51   24  149 1    
    52   25   26 2    
    53   25   27 1    
    54   27   28 1    
    55   27   29 1    
    56   27  150 1    
    57   28  151 1    
    58   28  152 1    
    59   28  153 1    
    60   29   30 am   BACKBONE|DICT|INTERRES
    61   29  154 1    
    62   30   31 2    
    63   30   32 1    
    64   32   33 1    
    65   32   34 1    
    66   32  155 1    
    67   33  156 1    
    68   33  157 1    
    69   33  158 1    
    70   34   35 am   BACKBONE|DICT|INTERRES
    71   34  159 1    
    72   35   36 2    
    73   35   37 1    
    74   37   38 1    
    75   37   39 1    
    76   37  160 1    
    77   38  161 1    
    78   38  162 1    
    79   38  163 1    
    80   39   40 am   BACKBONE|DICT|INTERRES
    81   39  164 1    
    82   40   41 2    
    83   40   42 1    
    84   42   43 1    
    85   42   44 1    
    86   42  165 1    
    87   43  166 1    
    88   43  167 1    
    89   43  168 1    
    90   44   45 am   BACKBONE|DICT|INTERRES
    91   44  169 1    
    92   45   46 2    
    93   45   47 1    
    94   47   48 1    
    95   47   49 1    
    96   47  170 1    
    97   48  171 1    
    98   48  172 1    
    99   48  173 1    
   100   49   50 am   BACKBONE|DICT|INTERRES
   101   49  174 1    
   102   50   51 2    
   103   50   52 1    
   104   52   53 1    
   105   52   54 1    
   106   52  175 1    
   107   53  176 1    
   108   53  177 1    
   109   53  178 1    
   110   54   55 am   BACKBONE|DICT|INTERRES
   111   54  179 1    
   112   55   56 2    
   113   55   57 1    
   114   57   58 1    
   115   57   59 1    
   116   57  180 1    
   117   58  181 1    
   118   58  182 1    
   119   58  183 1    
   120   59   60 am   BACKBONE|DICT|INTERRES
   121   59  184 1    
   122   60   61 2    
   123   60   62 1    
   124   62   63 1    
   125   62   64 1    
   126   62  185 1    
   127   63  186 1    
   128   63  187 1    
   129   63  188 1    
   130   64   65 am   BACKBONE|DICT|INTERRES
   131   64  189 1    
   132   65   66 2    
   133   67   68 2    
   134   67   69 am   BACKBONE|DICT|INTERRES
   135   69   70 1    
   136   69  190 1    
   137   70   71 1    
   138   70   72 1    
   139   70  191 1    
   140   71  192 1    
   141   71  193 1    
   142   71  194 1    
   143   72   73 2    
   144   72   74 am   BACKBONE|DICT|INTERRES
   145   74   75 1    
   146   74  195 1    
   147   75   76 1    
   148   75   77 1    
   149   75  196 1    
   150   76  197 1    
   151   76  198 1    
   152   76  199 1    
   153   77   78 2    
   154   77   79 am   BACKBONE|DICT|INTERRES
   155   79   80 1    
   156   79  200 1    
   157   80   81 1    
   158   80   82 1    
   159   80  201 1    
   160   81  202 1    
   161   81  203 1    
   162   81  204 1    
   163   82   83 2    
   164   82   84 am   BACKBONE|DICT|INTERRES
   165   84   85 1    
   166   84  205 1    
   167   85   86 1    
   168   85   87 1    
   169   85  206 1    
   170   86  207 1    
   171   86  208 1    
   172   86  209 1    
   173   87   88 2    
   174   87   89 am   BACKBONE|DICT|INTERRES
   175   89   90 1    
   176   89  210 1    
   177   90   91 1    
   178   90   92 1    
   179   90  211 1    
   180   91  212 1    
   181   91  213 1    
   182   91  214 1    
   183   92   93 2    
   184   92   94 am   BACKBONE|DICT|INTERRES
   185   94   95 1    
   186   94  215 1    
   187   95   96 1    
   188   95   97 1    
   189   95  216 1    
   190   96  217 1    
   191   96  218 1    
   192   96  219 1    
   193   97   98 2    
   194   97   99 am   BACKBONE|DICT|INTERRES
   195   99  100 1    
   196   99  220 1    
   197  100  101 1    
   198  100  102 1    
   199  100  221 1    
   200  101  222 1    
   201  101  223 1    
   202  101  224 1    
   203  102  103 2    
   204  102  104 am   BACKBONE|DICT|INTERRES
   205  104  105 1    
   206  104  225 1    
   207  105  106 1    
   208  105  107 1    
   209  105  226 1    
   210  106  227 1    
   211  106  228 1    
   212  106  229 1    
   213  107  108 2    
   214  107  109 am   BACKBONE|DICT|INTERRES
   215  109  110 1    
   216  109  230 1    
   217  110  111 1    
   218  110  112 1    
   219  110  231 1    
   220  111  232 1    
   221  111  233 1    
   222  111  234 1    
   223  112  113 2    
   224  112  114 am   BACKBONE|DICT|INTERRES
   225  114  115 1    
   226  114  235 1    
   227  115  116 1    
   228  115  117 1    
   229  115  236 1    
   230  116  237 1    
   231  116  238 1    
   232  116  239 1    
   233  117  118 2    
   234  117  119 am   BACKBONE|DICT|INTERRES
   235  119  120 1    
   236  119  240 1    
   237  120  121 1    
   238  120  124 1    
   239  120  241 1    
   240  121  122 am   BACKBONE|DICT|INTERRES
   241  121  123 2    
   242  122  242 1    
   243  122  243 1    
   244  124  125 1    
   245  124  244 1    
   246  124  245 1    
   247  125  126 1    
   248  126  246 1    
   249  126  247 1    
@<TRIPOS>SUBSTRUCTURE
     1 UNK         1 GROUP             0       ****    0 ROOT    
