@<TRIPOS>MOLECULE
3R540
247   249    1
SMALL
USER_CHARGES


@<TRIPOS>ATOM
      1 CA         -1.6226  -11.9749  -47.3661 C.3       0 UNK        -0.1800 
      2 C          -1.0015  -13.0233  -46.4559 C.2       0 UNK         0.5000 
      3 O          -0.3478  -13.9440  -46.9454 O.2       0 UNK        -0.5000 
      4 N          -1.2120  -12.8963  -45.1390 N.am      1 UNK        -0.5000 
      5 CA         -0.7938  -13.8575  -44.1094 C.3       1 UNK         0.1400 
      6 C6         -1.3156  -13.4869  -42.7013 C.3       23 UNK        -0.0398 
      7 S7         -3.1220  -13.2349  -42.6403 S.3       23 UNK        -0.2404 
      8 C8         -3.7306  -14.7803  -41.8795 C.3       23 UNK        -0.0205 
      9 C9         -4.2764  -15.7964  -42.8802 C.ar      23 UNK        -0.0193 
     10 C10        -5.1257  -15.3971  -43.9174 C.ar      23 UNK        -0.1150 
     11 C11        -5.7078  -16.3397  -44.7684 C.ar      23 UNK        -0.0193 
     12 C12        -5.4502  -17.6981  -44.5661 C.ar      23 UNK        -0.1150 
     13 C13        -4.5812  -18.1184  -43.5524 C.ar      23 UNK        -0.0193 
     14 C14        -4.0015  -17.1579  -42.7145 C.ar      23 UNK        -0.1150 
     15 C15        -4.2836  -19.5973  -43.3055 C.3       23 UNK        -0.0205 
     16 S16        -4.2962  -20.6474  -44.8031 S.3       23 UNK        -0.2404 
     17 C17        -3.5220  -22.1622  -44.1434 C.3       23 UNK        -0.0398 
     18 CA         -2.7399  -22.9581  -45.2168 C.3       11 UNK         0.1400 
     19 N          -1.5263  -22.2671  -45.6901 N.am      11 UNK        -0.5000 
     20 C          -0.7204  -22.7157  -46.6668 C.2       10 UNK         0.5000 
     21 O          -0.9152  -23.7743  -47.2655 O.2       10 UNK        -0.5000 
     22 CA          0.5055  -21.8719  -47.0570 C.3       10 UNK         0.1400 
     23 CB          0.1347  -20.8805  -48.1686 C.3       10 UNK        -0.1800 
     24 N           1.1351  -21.1611  -45.9439 N.am      10 UNK        -0.5000 
     25 C           1.7345  -21.7557  -44.9013 C.2       9 UNK         0.5000 
     26 O           1.7239  -22.9716  -44.7088 O.2       9 UNK        -0.5000 
     27 CA          2.4710  -20.8388  -43.9100 C.3       9 UNK         0.1400 
     28 CB          3.8317  -20.4033  -44.4764 C.3       9 UNK        -0.1800 
     29 N           1.6714  -19.6565  -43.6040 N.am      9 UNK        -0.5000 
     30 C           0.7635  -19.5993  -42.6203 C.2       8 UNK         0.5000 
     31 O           0.6074  -20.4851  -41.7790 O.2       8 UNK        -0.5000 
     32 CA         -0.1516  -18.3587  -42.5837 C.3       8 UNK         0.1400 
     33 CB          0.3961  -17.3090  -41.6068 C.3       8 UNK        -0.1800 
     34 N          -0.3695  -17.7480  -43.8996 N.am      8 UNK        -0.5000 
     35 C          -0.9795  -18.3753  -44.9172 C.2       7 UNK         0.5000 
     36 O          -1.3702  -19.5375  -44.8515 O.2       7 UNK        -0.5000 
     37 CA         -1.0976  -17.6346  -46.2596 C.3       7 UNK         0.1400 
     38 CB         -2.4113  -16.8515  -46.3633 C.3       7 UNK        -0.1800 
     39 N           0.0328  -16.7658  -46.5710 N.am      7 UNK        -0.5000 
     40 C           1.3076  -17.1671  -46.6727 C.2       6 UNK         0.5000 
     41 O           1.6987  -18.2980  -46.3725 O.2       6 UNK        -0.5000 
     42 CA          2.2860  -16.1160  -47.2302 C.3       6 UNK         0.1400 
     43 CB          3.6812  -16.6871  -47.5538 C.3       6 UNK        -0.1800 
     44 N           1.7182  -15.4047  -48.3835 N.am      6 UNK        -0.5000 
     45 C           1.3375  -15.9352  -49.5574 C.2       5 UNK         0.5000 
     46 O           1.4992  -17.1131  -49.8752 O.2       5 UNK        -0.5000 
     47 CA          0.6461  -14.9791  -50.5480 C.3       5 UNK         0.1400 
     48 CB         -0.8766  -14.9771  -50.3354 C.3       5 UNK        -0.1800 
     49 N           1.1493  -13.6052  -50.4649 N.am      5 UNK        -0.5000 
     50 C           2.3418  -13.2134  -50.9365 C.2       4 UNK         0.5000 
     51 O           3.1418  -13.9712  -51.4842 O.2       4 UNK        -0.5000 
     52 CA          2.7194  -11.7306  -50.7563 C.3       4 UNK         0.1400 
     53 CB          2.3832  -10.9429  -52.0315 C.3       4 UNK        -0.1800 
     54 N           2.0419  -11.0956  -49.6206 N.am      4 UNK        -0.5000 
     55 C           2.3371  -11.1977  -48.3157 C.2       3 UNK         0.5000 
     56 O           1.6281  -10.6447  -47.4762 O.2       3 UNK        -0.5000 
     57 CA          3.5810  -12.0037  -47.8621 C.3       3 UNK         0.1400 
     58 CB          4.8669  -11.1517  -47.9212 C.3       3 UNK        -0.1800 
     59 N           3.3952  -12.6166  -46.5400 N.am      3 UNK        -0.5000 
     60 C           3.3894  -12.0359  -45.3313 C.2       2 UNK         0.5000 
     61 O           3.6470  -10.8514  -45.1109 O.2       2 UNK        -0.5000 
     62 CA          2.9472  -12.9487  -44.1812 C.3       2 UNK         0.1400 
     63 CB          3.4365  -12.4694  -42.8024 C.3       2 UNK        -0.1800 
     64 N           1.4902  -12.9773  -44.1937 N.am      2 UNK        -0.5000 
     65 C           0.7316  -14.0699  -44.0648 C.2       1 UNK         0.5000 
     66 O           1.1776  -15.2099  -43.9404 O.2       1 UNK        -0.5000 
     67 C          -2.4677  -24.3934  -44.7133 C.2       11 UNK         0.5000 
     68 O          -3.3246  -25.2611  -44.8853 O.2       11 UNK        -0.5000 
     69 N          -1.2683  -24.6389  -44.1649 N.am      12 UNK        -0.5000 
     70 CA         -0.8011  -25.9617  -43.7375 C.3       12 UNK         0.1400 
     71 CB          0.4782  -25.7926  -42.9041 C.3       12 UNK        -0.1800 
     72 C          -0.5596  -26.9415  -44.9066 C.2       12 UNK         0.5000 
     73 O          -0.5232  -28.1514  -44.6812 O.2       12 UNK        -0.5000 
     74 N          -0.4162  -26.4082  -46.1262 N.am      13 UNK        -0.5000 
     75 CA         -0.2380  -27.1406  -47.3773 C.3       13 UNK         0.1400 
     76 CB          1.0657  -26.6577  -48.0387 C.3       13 UNK        -0.1800 
     77 C          -1.4601  -26.9564  -48.3006 C.2       13 UNK         0.5000 
     78 O          -1.3107  -27.0082  -49.5219 O.2       13 UNK        -0.5000 
     79 N          -2.6444  -26.7195  -47.7120 N.am      14 UNK        -0.5000 
     80 CA         -3.9345  -26.5005  -48.3803 C.3       14 UNK         0.1400 
     81 CB         -4.4098  -27.7873  -49.0871 C.3       14 UNK        -0.1800 
     82 C          -3.9057  -25.2752  -49.3167 C.2       14 UNK         0.5000 
     83 O          -4.2494  -25.3771  -50.4961 O.2       14 UNK        -0.5000 
     84 N          -3.4339  -24.1460  -48.7694 N.am      15 UNK        -0.5000 
     85 CA         -3.1769  -22.8732  -49.4531 C.3       15 UNK         0.1400 
     86 CB         -4.4898  -22.2335  -49.9487 C.3       15 UNK        -0.1800 
     87 C          -2.1035  -23.0227  -50.5506 C.2       15 UNK         0.5000 
     88 O          -2.2459  -22.4619  -51.6367 O.2       15 UNK        -0.5000 
     89 N          -1.0610  -23.8109  -50.2442 N.am      16 UNK        -0.5000 
     90 CA          0.0206  -24.2408  -51.1380 C.3       16 UNK         0.1400 
     91 CB          0.9581  -23.0583  -51.4600 C.3       16 UNK        -0.1800 
     92 C          -0.5211  -24.9528  -52.3959 C.2       16 UNK         0.5000 
     93 O          -0.1576  -24.5960  -53.5158 O.2       16 UNK        -0.5000 
     94 N          -1.4296  -25.9143  -52.1756 N.am      17 UNK        -0.5000 
     95 CA         -2.2389  -26.6158  -53.1786 C.3       17 UNK         0.1400 
     96 CB         -1.3600  -27.5515  -54.0340 C.3       17 UNK        -0.1800 
     97 C          -3.0976  -25.6437  -54.0194 C.2       17 UNK         0.5000 
     98 O          -3.1295  -25.7394  -55.2478 O.2       17 UNK        -0.5000 
     99 N          -3.7612  -24.7109  -53.3212 N.am      18 UNK        -0.5000 
    100 CA        -4.6072  -23.6288  -53.8376 C.3       18 UNK         0.1400 
    101 CB        -5.8815  -24.2028  -54.4910 C.3       18 UNK        -0.1800 
    102 C         -3.8753  -22.6092  -54.7415 C.2       18 UNK         0.5000 
    103 O         -4.5174  -21.9647  -55.5734 O.2       18 UNK        -0.5000 
    104 N         -2.5557  -22.4615  -54.5637 N.am      19 UNK        -0.5000 
    105 CA        -1.7367  -21.4684  -55.2594 C.3       19 UNK         0.1400 
    106 CB        -0.2962  -21.9839  -55.3853 C.3       19 UNK        -0.1800 
    107 C         -1.7527  -20.1006  -54.5535 C.2       19 UNK         0.5000 
    108 O         -1.6231  -19.0776  -55.2281 O.2       19 UNK        -0.5000 
    109 N         -1.9006  -20.0935  -53.2209 N.am      20 UNK        -0.5000 
    110 CA        -2.0132  -18.8793  -52.4137 C.3       20 UNK         0.1400 
    111 CB        -1.7081  -19.2135  -50.9445 C.3       20 UNK        -0.1800 
    112 C         -3.4111  -18.2509  -52.5548 C.2       20 UNK         0.5000 
    113 O         -4.3921  -18.9688  -52.7662 O.2       20 UNK        -0.5000 
    114 N         -3.4799  -16.9216  -52.3973 N.am      21 UNK        -0.5000 
    115 CA        -4.6864  -16.0996  -52.5622 C.3       21 UNK         0.1400 
    116 CB        -4.3139  -14.6244  -52.3465 C.3       21 UNK        -0.1800 
    117 C         -5.8676  -16.4897  -51.6501 C.2       21 UNK         0.5000 
    118 O         -7.0210  -16.2895  -52.0329 O.2       21 UNK        -0.5000 
    119 N         -5.5565  -17.0530  -50.4776 N.am      22 UNK        -0.5000 
    120 CA        -6.5269  -17.6160  -49.5265 C.3       22 UNK         0.1400 
    121 C         -7.0484  -19.0352  -49.9068 C.2       22 UNK         0.5000 
    122 N         -6.5738  -19.6724  -50.9709 N.am      22 UNK        -0.7600 
    123 O         -7.9231  -19.5661  -49.2281 O.2       22 UNK        -0.5000 
    124 C124       -5.9763  -17.5780  -48.0784 C.3       23 UNK        -0.0398 
    125 S125       -5.7466  -15.8611  -47.4933 S.3       23 UNK        -0.2404 
    126 C126       -6.6221  -15.8848  -45.8961 C.3       23 UNK        -0.0205 
    127 H127       -2.4258  -12.4212  -47.9522 H         1 UNK         0.0600 
    128 H128       -0.8760  -11.5828  -48.0554 H         1 UNK         0.0600 
    129 H129       -2.0340  -11.1396  -46.7992 H         1 UNK         0.0600 
    130 H130       -1.7715  -12.1249  -44.8040 H         1 UNK         0.3000 
    131 H131       -1.2335  -14.8181  -44.3730 H         1 UNK         0.0600 
    132 H132       -1.0297  -14.2456  -41.9722 H         1 UNK         0.0800 
    133 H133       -0.8503  -12.5605  -42.3593 H         1 UNK         0.0800 
    134 H134       -2.9536  -15.2251  -41.2568 H         1 UNK         0.0800 
    135 H135       -4.5428  -14.5206  -41.1995 H         1 UNK         0.0800 
    136 H136       -5.3496  -14.3486  -44.0535 H         1 UNK         0.1150 
    137 H137       -5.9211  -18.4269  -45.2083 H         1 UNK         0.1150 
    138 H138       -3.3556  -17.4755  -41.9082 H         1 UNK         0.1150 
    139 H139       -3.3052  -19.6868  -42.8321 H         1 UNK         0.0800 
    140 H140       -5.0118  -19.9875  -42.5937 H         1 UNK         0.0800 
    141 H141       -4.3277  -22.7647  -43.7188 H         1 UNK         0.0800 
    142 H142       -2.8584  -21.9115  -43.3142 H         1 UNK         0.0800 
    143 H143       -3.3953  -23.0620  -46.0832 H         1 UNK         0.0600 
    144 H144       -1.3471  -21.3479  -45.2883 H         1 UNK         0.3000 
    145 H145        1.2561  -22.5553  -47.4594 H         1 UNK         0.0600 
    146 H146       -0.7711  -20.3282  -47.9283 H         1 UNK         0.0600 
    147 H147        0.9341  -20.1640  -48.3601 H         1 UNK         0.0600 
    148 H148       -0.0554  -21.4044  -49.1034 H         1 UNK         0.0600 
    149 H149        1.2133  -20.1529  -46.0374 H         1 UNK         0.3000 
    150 H150        2.6569  -21.4080  -42.9965 H         1 UNK         0.0600 
    151 H151        4.4554  -21.2699  -44.6994 H         1 UNK         0.0600 
    152 H152        4.3757  -19.7868  -43.7607 H         1 UNK         0.0600 
    153 H153        3.7258  -19.8300  -45.3980 H         1 UNK         0.0600 
    154 H154        1.7002  -18.9045  -44.2816 H         1 UNK         0.3000 
    155 H155       -1.1234  -18.6873  -42.2109 H         1 UNK         0.0600 
    156 H156        0.5073  -17.7287  -40.6063 H         1 UNK         0.0600 
    157 H157       -0.2766  -16.4563  -41.5266 H         1 UNK         0.0600 
    158 H158        1.3750  -16.9422  -41.9172 H         1 UNK         0.0600 
    159 H159        0.0370  -16.8305  -44.0491 H         1 UNK         0.3000 
    160 H160       -1.1229  -18.3879  -47.0438 H         1 UNK         0.0600 
    161 H161       -2.4832  -16.3119  -47.3078 H         1 UNK         0.0600 
    162 H162       -2.5354  -16.1339  -45.5550 H         1 UNK         0.0600 
    163 H163       -3.2588  -17.5348  -46.3173 H         1 UNK         0.0600 
    164 H164       -0.1836  -15.8000  -46.8059 H         1 UNK         0.3000 
    165 H165        2.4099  -15.3775  -46.4390 H         1 UNK         0.0600 
    166 H166        3.6320  -17.4854  -48.2948 H         1 UNK         0.0600 
    167 H167        4.3453  -15.9129  -47.9380 H         1 UNK         0.0600 
    168 H168        4.1477  -17.1028  -46.6599 H         1 UNK         0.0600 
    169 H169        1.3986  -14.4635  -48.1971 H         1 UNK         0.3000 
    170 H170        0.8412  -15.3564  -51.5544 H         1 UNK         0.0600 
    171 H171       -1.1526  -14.5643  -49.3657 H         1 UNK         0.0600 
    172 H172       -1.3783  -14.3880  -51.1030 H         1 UNK         0.0600 
    173 H173       -1.2799  -15.9880  -50.3831 H         1 UNK         0.0600 
    174 H174        0.5474  -12.9207  -50.0312 H         1 UNK         0.3000 
    175 H175        3.7992  -11.6775  -50.6167 H         1 UNK         0.0600 
    176 H176        1.3124  -10.9481  -52.2396 H         1 UNK         0.0600 
    177 H177        2.7043   -9.9043  -51.9495 H         1 UNK         0.0600 
    178 H178        2.8880  -11.3691  -52.8997 H         1 UNK         0.0600 
    179 H179        1.2438  -10.5298  -49.8683 H         1 UNK         0.3000 
    180 H180        3.7168  -12.8528  -48.5298 H         1 UNK         0.0600 
    181 H181        4.7735  -10.2293  -47.3479 H         1 UNK         0.0600 
    182 H182        5.1067  -10.8618  -48.9435 H         1 UNK         0.0600 
    183 H183        5.7241  -11.7025  -47.5339 H         1 UNK         0.0600 
    184 H184        3.1399  -13.5908  -46.5683 H         1 UNK         0.3000 
    185 H185        3.3587  -13.9443  -44.3621 H         1 UNK         0.0600 
    186 H186        3.1419  -13.1675  -42.0187 H         1 UNK         0.0600 
    187 H187        4.5242  -12.3937  -42.7796 H         1 UNK         0.0600 
    188 H188        3.0312  -11.4900  -42.5454 H         1 UNK         0.0600 
    189 H189        1.0380  -12.0901  -44.3697 H         1 UNK         0.3000 
    190 H190       -0.5985  -23.8836  -44.1035 H         1 UNK         0.3000 
    191 H191       -1.5694  -26.4005  -43.0975 H         1 UNK         0.0600 
    192 H192        1.2915  -25.3738  -43.4975 H         1 UNK         0.0600 
    193 H193        0.3113  -25.1352  -42.0506 H         1 UNK         0.0600 
    194 H194        0.8192  -26.7520  -42.5129 H         1 UNK         0.0600 
    195 H195       -0.4965  -25.4019  -46.2302 H         1 UNK         0.3000 
    196 H196       -0.1475  -28.2116  -47.1874 H         1 UNK         0.0600 
    197 H197        1.9211  -26.8266  -47.3846 H         1 UNK         0.0600 
    198 H198        1.0283  -25.5921  -48.2669 H         1 UNK         0.0600 
    199 H199        1.2621  -27.1915  -48.9693 H         1 UNK         0.0600 
    200 H200       -2.6627  -26.6586  -46.7022 H         1 UNK         0.3000 
    201 H201       -4.6556  -26.2705  -47.5946 H         1 UNK         0.0600 
    202 H202       -5.4138  -27.6596  -49.4935 H         1 UNK         0.0600 
    203 H203       -4.4451  -28.6273  -48.3936 H         1 UNK         0.0600 
    204 H204       -3.7568  -28.0639  -49.9155 H         1 UNK         0.0600 
    205 H205       -3.0771  -24.2054  -47.8262 H         1 UNK         0.3000 
    206 H206       -2.7548  -22.1940  -48.7127 H         1 UNK         0.0600 
    207 H207       -5.1680  -22.0411  -49.1174 H         1 UNK         0.0600 
    208 H208       -5.0135  -22.8673  -50.6621 H         1 UNK         0.0600 
    209 H209       -4.3050  -21.2784  -50.4392 H         1 UNK         0.0600 
    210 H210       -1.0395  -24.2021  -49.3096 H         1 UNK         0.3000 
    211 H211        0.6030  -24.9862  -50.5959 H         1 UNK         0.0600 
    212 H212        1.4049  -22.6542  -50.5522 H         1 UNK         0.0600 
    213 H213        1.7776  -23.3723  -52.1074 H         1 UNK         0.0600 
    214 H214        0.4335  -22.2471  -51.9651 H         1 UNK         0.0600 
    215 H215       -1.6172  -26.1695  -51.2087 H         1 UNK         0.3000 
    216 H216       -2.9398  -27.2392  -52.6214 H         1 UNK         0.0600 
    217 H217       -1.9726  -28.1604  -54.6998 H         1 UNK         0.0600 
    218 H218       -0.6574  -26.9948  -54.6548 H         1 UNK         0.0600 
    219 H219       -0.7861  -28.2337  -53.4069 H         1 UNK         0.0600 
    220 H220       -3.6963  -24.7576  -52.3083 H         1 UNK         0.3000 
    221 H221       -4.9224  -23.0593  -52.9639 H         1 UNK         0.0600 
    222 H222       -5.6575  -24.7338  -55.4164 H         1 UNK         0.0600 
    223 H223       -6.3899  -24.8955  -53.8202 H         1 UNK         0.0600 
    224 H224       -6.5906  -23.4102  -54.7324 H         1 UNK         0.0600 
    225 H225       -2.1054  -22.9961  -53.8308 H         1 UNK         0.3000 
    226 H226       -2.1263  -21.3276  -56.2698 H         1 UNK         0.0600 
    227 H227       -0.2654  -22.9548  -55.8802 H         1 UNK         0.0600 
    228 H228        0.3129  -21.2975  -55.9746 H         1 UNK         0.0600 
    229 H229        0.1804  -22.0880  -54.4106 H         1 UNK         0.0600 
    230 H230       -2.0481  -20.9755  -52.7355 H         1 UNK         0.3000 
    231 H231       -1.2678  -18.1610  -52.7621 H         1 UNK         0.0600 
    232 H232       -1.7190  -18.3186  -50.3227 H         1 UNK         0.0600 
    233 H233       -0.7206  -19.6639  -50.8431 H         1 UNK         0.0600 
    234 H234       -2.4369  -19.9061  -50.5268 H         1 UNK         0.0600 
    235 H235       -2.6265  -16.4129  -52.2230 H         1 UNK         0.3000 
    236 H236       -5.0223  -16.2207  -53.5940 H         1 UNK         0.0600 
    237 H237       -3.5379  -14.3047  -53.0424 H         1 UNK         0.0600 
    238 H238       -5.1769  -13.9764  -52.5054 H         1 UNK         0.0600 
    239 H239       -3.9533  -14.4456  -51.3327 H         1 UNK         0.0600 
    240 H240       -4.5825  -17.1727  -50.2473 H         1 UNK         0.3000 
    241 H241       -7.4151  -16.9814  -49.5465 H         1 UNK         0.0600 
    242 H242       -5.8524  -19.2691  -51.5618 H         1 UNK         0.3800 
    243 H243       -6.9450  -20.5800  -51.1973 H         1 UNK         0.3800 
    244 H244       -6.6571  -18.0955  -47.4017 H         1 UNK         0.0800 
    245 H245       -5.0249  -18.1077  -48.0119 H         1 UNK         0.0800 
    246 H246       -7.5074  -16.5199  -45.9489 H         1 UNK         0.0800 
    247 H247       -6.9906  -14.8782  -45.6928 H         1 UNK         0.0800 
@<TRIPOS>BOND
     1    1    2 1    
     2    1  127 1    
     3    1  128 1    
     4    1  129 1    
     5    2    3 2    
     6    2    4 am   BACKBONE|DICT|INTERRES
     7    4    5 1    
     8    4  130 1    
     9    5    6 1    
    10    5   65 1    
    11    5  131 1    
    12    6    7 1    
    13    6  132 1    
    14    6  133 1    
    15    7    8 1    
    16    8    9 1    
    17    8  134 1    
    18    8  135 1    
    19    9   10 ar   
    20    9   14 ar   
    21   10   11 ar   
    22   10  136 1    
    23   11   12 ar   
    24   11  126 1    
    25   12   13 ar   
    26   12  137 1    
    27   13   14 ar   
    28   13   15 1    
    29   14  138 1    
    30   15   16 1    
    31   15  139 1    
    32   15  140 1    
    33   16   17 1    
    34   17   18 1    
    35   17  141 1    
    36   17  142 1    
    37   18   19 1    
    38   18   67 1    
    39   18  143 1    
    40   19   20 am   BACKBONE|DICT|INTERRES
    41   19  144 1    
    42   20   21 2    
    43   20   22 1    
    44   22   23 1    
    45   22   24 1    
    46   22  145 1    
    47   23  146 1    
    48   23  147 1    
    49   23  148 1    
    50   24   25 am   BACKBONE|DICT|INTERRES
    51   24  149 1    
    52   25   26 2    
    53   25   27 1    
    54   27   28 1    
    55   27   29 1    
    56   27  150 1    
    57   28  151 1    
    58   28  152 1    
    59   28  153 1    
    60   29   30 am   BACKBONE|DICT|INTERRES
    61   29  154 1    
    62   30   31 2    
    63   30   32 1    
    64   32   33 1    
    65   32   34 1    
    66   32  155 1    
    67   33  156 1    
    68   33  157 1    
    69   33  158 1    
    70   34   35 am   BACKBONE|DICT|INTERRES
    71   34  159 1    
    72   35   36 2    
    73   35   37 1    
    74   37   38 1    
    75   37   39 1    
    76   37  160 1    
    77   38  161 1    
    78   38  162 1    
    79   38  163 1    
    80   39   40 am   BACKBONE|DICT|INTERRES
    81   39  164 1    
    82   40   41 2    
    83   40   42 1    
    84   42   43 1    
    85   42   44 1    
    86   42  165 1    
    87   43  166 1    
    88   43  167 1    
    89   43  168 1    
    90   44   45 am   BACKBONE|DICT|INTERRES
    91   44  169 1    
    92   45   46 2    
    93   45   47 1    
    94   47   48 1    
    95   47   49 1    
    96   47  170 1    
    97   48  171 1    
    98   48  172 1    
    99   48  173 1    
   100   49   50 am   BACKBONE|DICT|INTERRES
   101   49  174 1    
   102   50   51 2    
   103   50   52 1    
   104   52   53 1    
   105   52   54 1    
   106   52  175 1    
   107   53  176 1    
   108   53  177 1    
   109   53  178 1    
   110   54   55 am   BACKBONE|DICT|INTERRES
   111   54  179 1    
   112   55   56 2    
   113   55   57 1    
   114   57   58 1    
   115   57   59 1    
   116   57  180 1    
   117   58  181 1    
   118   58  182 1    
   119   58  183 1    
   120   59   60 am   BACKBONE|DICT|INTERRES
   121   59  184 1    
   122   60   61 2    
   123   60   62 1    
   124   62   63 1    
   125   62   64 1    
   126   62  185 1    
   127   63  186 1    
   128   63  187 1    
   129   63  188 1    
   130   64   65 am   BACKBONE|DICT|INTERRES
   131   64  189 1    
   132   65   66 2    
   133   67   68 2    
   134   67   69 am   BACKBONE|DICT|INTERRES
   135   69   70 1    
   136   69  190 1    
   137   70   71 1    
   138   70   72 1    
   139   70  191 1    
   140   71  192 1    
   141   71  193 1    
   142   71  194 1    
   143   72   73 2    
   144   72   74 am   BACKBONE|DICT|INTERRES
   145   74   75 1    
   146   74  195 1    
   147   75   76 1    
   148   75   77 1    
   149   75  196 1    
   150   76  197 1    
   151   76  198 1    
   152   76  199 1    
   153   77   78 2    
   154   77   79 am   BACKBONE|DICT|INTERRES
   155   79   80 1    
   156   79  200 1    
   157   80   81 1    
   158   80   82 1    
   159   80  201 1    
   160   81  202 1    
   161   81  203 1    
   162   81  204 1    
   163   82   83 2    
   164   82   84 am   BACKBONE|DICT|INTERRES
   165   84   85 1    
   166   84  205 1    
   167   85   86 1    
   168   85   87 1    
   169   85  206 1    
   170   86  207 1    
   171   86  208 1    
   172   86  209 1    
   173   87   88 2    
   174   87   89 am   BACKBONE|DICT|INTERRES
   175   89   90 1    
   176   89  210 1    
   177   90   91 1    
   178   90   92 1    
   179   90  211 1    
   180   91  212 1    
   181   91  213 1    
   182   91  214 1    
   183   92   93 2    
   184   92   94 am   BACKBONE|DICT|INTERRES
   185   94   95 1    
   186   94  215 1    
   187   95   96 1    
   188   95   97 1    
   189   95  216 1    
   190   96  217 1    
   191   96  218 1    
   192   96  219 1    
   193   97   98 2    
   194   97   99 am   BACKBONE|DICT|INTERRES
   195   99  100 1    
   196   99  220 1    
   197  100  101 1    
   198  100  102 1    
   199  100  221 1    
   200  101  222 1    
   201  101  223 1    
   202  101  224 1    
   203  102  103 2    
   204  102  104 am   BACKBONE|DICT|INTERRES
   205  104  105 1    
   206  104  225 1    
   207  105  106 1    
   208  105  107 1    
   209  105  226 1    
   210  106  227 1    
   211  106  228 1    
   212  106  229 1    
   213  107  108 2    
   214  107  109 am   BACKBONE|DICT|INTERRES
   215  109  110 1    
   216  109  230 1    
   217  110  111 1    
   218  110  112 1    
   219  110  231 1    
   220  111  232 1    
   221  111  233 1    
   222  111  234 1    
   223  112  113 2    
   224  112  114 am   BACKBONE|DICT|INTERRES
   225  114  115 1    
   226  114  235 1    
   227  115  116 1    
   228  115  117 1    
   229  115  236 1    
   230  116  237 1    
   231  116  238 1    
   232  116  239 1    
   233  117  118 2    
   234  117  119 am   BACKBONE|DICT|INTERRES
   235  119  120 1    
   236  119  240 1    
   237  120  121 1    
   238  120  124 1    
   239  120  241 1    
   240  121  122 am   BACKBONE|DICT|INTERRES
   241  121  123 2    
   242  122  242 1    
   243  122  243 1    
   244  124  125 1    
   245  124  244 1    
   246  124  245 1    
   247  125  126 1    
   248  126  246 1    
   249  126  247 1    
@<TRIPOS>SUBSTRUCTURE
     1 UNK         1 GROUP             0       ****    0 ROOT    
