@<TRIPOS>MOLECULE
3R540
247   249    1
SMALL
USER_CHARGES


@<TRIPOS>ATOM
      1 CA          1.2505  -17.4835  -48.9872 C.3       0 UNK        -0.1800 
      2 C           0.7982  -16.4143  -48.0068 C.2       0 UNK         0.5000 
      3 O           1.6332  -15.7432  -47.4029 O.2       0 UNK        -0.5000 
      4 N          -0.5214  -16.2381  -47.8550 N.am      1 UNK        -0.5000 
      5 CA         -1.1553  -15.3479  -46.8704 C.3       1 UNK         0.1400 
      6 C6         -2.6800  -15.5959  -46.7650 C.3       23 UNK        -0.0398 
      7 S7         -3.6333  -15.1413  -48.2550 S.3       23 UNK        -0.2404 
      8 C8         -4.2064  -16.7630  -48.8549 C.3       23 UNK        -0.0205 
      9 C9         -3.1344  -17.5316  -49.6166 C.ar      23 UNK        -0.0193 
     10 C10        -2.4894  -16.9388  -50.7072 C.ar      23 UNK        -0.1150 
     11 C11        -1.5605  -17.6557  -51.4643 C.ar      23 UNK        -0.0193 
     12 C12        -1.2873  -18.9832  -51.1259 C.ar      23 UNK        -0.1150 
     13 C13        -1.9227  -19.5923  -50.0406 C.ar      23 UNK        -0.0193 
     14 C14        -2.8356  -18.8565  -49.2782 C.ar      23 UNK        -0.1150 
     15 C15        -1.6543  -21.0597  -49.7410 C.3       23 UNK        -0.0205 
     16 S16         0.0931  -21.3734  -49.3481 S.3       23 UNK        -0.2404 
     17 C17         0.1383  -21.0342  -47.5584 C.3       23 UNK        -0.0398 
     18 CA          0.3768  -22.3277  -46.7440 C.3       11 UNK         0.1400 
     19 N           0.9695  -22.0549  -45.4336 N.am      11 UNK        -0.5000 
     20 C           1.5103  -22.9871  -44.6373 C.2       10 UNK         0.5000 
     21 O           1.5686  -24.1800  -44.9299 O.2       10 UNK        -0.5000 
     22 CA          2.0280  -22.5211  -43.2651 C.3       10 UNK         0.1400 
     23 CB          3.3889  -21.8225  -43.3984 C.3       10 UNK        -0.1800 
     24 N           1.0796  -21.6417  -42.5818 N.am      10 UNK        -0.5000 
     25 C          -0.1462  -22.0195  -42.1903 C.2       9 UNK         0.5000 
     26 O          -0.5852  -23.1625  -42.3223 O.2       9 UNK        -0.5000 
     27 CA         -1.0507  -20.9268  -41.5947 C.3       9 UNK         0.1400 
     28 CB         -0.7048  -20.6758  -40.1196 C.3       9 UNK        -0.1800 
     29 N          -0.9778  -19.6673  -42.3346 N.am      9 UNK        -0.5000 
     30 C          -1.3356  -19.5089  -43.6173 C.2       8 UNK         0.5000 
     31 O          -1.7889  -20.4076  -44.3237 O.2       8 UNK        -0.5000 
     32 CA         -1.0905  -18.1203  -44.2301 C.3       8 UNK         0.1400 
     33 CB         -2.1271  -17.1143  -43.7012 C.3       8 UNK        -0.1800 
     34 N           0.2678  -17.6405  -43.9667 N.am      8 UNK        -0.5000 
     35 C           1.3859  -18.2709  -44.3596 C.2       7 UNK         0.5000 
     36 O           1.3876  -19.2840  -45.0561 O.2       7 UNK        -0.5000 
     37 CA          2.7258  -17.7198  -43.8477 C.3       7 UNK         0.1400 
     38 CB          3.2764  -16.6530  -44.7938 C.3       7 UNK        -0.1800 
     39 N           2.6116  -17.1663  -42.5024 N.am      7 UNK        -0.5000 
     40 C           2.4886  -17.9106  -41.3959 C.2       6 UNK         0.5000 
     41 O           2.4941  -19.1424  -41.3934 O.2       6 UNK        -0.5000 
     42 CA          2.2705  -17.1400  -40.0816 C.3       6 UNK         0.1400 
     43 CB          3.5971  -16.5770  -39.5500 C.3       6 UNK        -0.1800 
     44 N           1.3039  -16.0508  -40.2353 N.am      6 UNK        -0.5000 
     45 C           0.0073  -16.2367  -40.5163 C.2       5 UNK         0.5000 
     46 O          -0.5107  -17.3468  -40.6358 O.2       5 UNK        -0.5000 
     47 CA         -0.8544  -14.9792  -40.7265 C.3       5 UNK         0.1400 
     48 CB         -1.4715  -14.5287  -39.3942 C.3       5 UNK        -0.1800 
     49 N          -0.1573  -13.8450  -41.3393 N.am      5 UNK        -0.5000 
     50 C           0.4398  -13.8341  -42.5400 C.2       4 UNK         0.5000 
     51 O           0.5796  -14.8380  -43.2424 O.2       4 UNK        -0.5000 
     52 CA          0.9007  -12.4477  -43.0346 C.3       4 UNK         0.1400 
     53 CB          1.7184  -11.6761  -41.9742 C.3       4 UNK        -0.1800 
     54 N           1.5914  -12.4737  -44.3280 N.am      4 UNK        -0.5000 
     55 C           2.8335  -12.8957  -44.6070 C.2       3 UNK         0.5000 
     56 O           3.5963  -13.3812  -43.7701 O.2       3 UNK        -0.5000 
     57 CA          3.3092  -12.7062  -46.0666 C.3       3 UNK         0.1400 
     58 CB          4.4281  -13.6791  -46.4786 C.3       3 UNK        -0.1800 
     59 N           2.2065  -12.8197  -47.0231 N.am      3 UNK        -0.5000 
     60 C           1.5168  -11.7932  -47.5429 C.2       2 UNK         0.5000 
     61 O           1.7765  -10.6125  -47.3109 O.2       2 UNK        -0.5000 
     62 CA          0.3082  -12.1339  -48.4420 C.3       2 UNK         0.1400 
     63 CB          0.6994  -12.0512  -49.9251 C.3       2 UNK        -0.1800 
     64 N          -0.2586  -13.4568  -48.1775 N.am      2 UNK        -0.5000 
     65 C          -0.8175  -13.8458  -47.0227 C.2       1 UNK         0.5000 
     66 O          -1.0292  -13.0790  -46.0819 O.2       1 UNK        -0.5000 
     67 C          -0.8959  -23.1950  -46.6409 C.2       11 UNK         0.5000 
     68 O          -1.0828  -24.0954  -47.4622 O.2       11 UNK        -0.5000 
     69 N          -1.7276  -22.9436  -45.6195 N.am      12 UNK        -0.5000 
     70 CA         -2.9161  -23.7348  -45.2973 C.3       12 UNK         0.1400 
     71 CB         -3.7223  -23.0431  -44.1888 C.3       12 UNK        -0.1800 
     72 C          -2.5833  -25.1866  -44.9099 C.2       12 UNK         0.5000 
     73 O          -3.2987  -26.1013  -45.3173 O.2       12 UNK        -0.5000 
     74 N          -1.4907  -25.3772  -44.1590 N.am      13 UNK        -0.5000 
     75 CA         -0.9554  -26.6948  -43.8207 C.3       13 UNK         0.1400 
     76 CB          0.0676  -26.5550  -42.6828 C.3       13 UNK        -0.1800 
     77 C          -0.3318  -27.4049  -45.0380 C.2       13 UNK         0.5000 
     78 O          -0.5076  -28.6147  -45.1882 O.2       13 UNK        -0.5000 
     79 N           0.3876  -26.6456  -45.8757 N.am      14 UNK        -0.5000 
     80 CA          1.1027  -27.1475  -47.0469 C.3       14 UNK         0.1400 
     81 CB          2.1023  -26.0885  -47.5368 C.3       14 UNK        -0.1800 
     82 C           0.1832  -27.5865  -48.1993 C.2       14 UNK         0.5000 
     83 O           0.4208  -28.6508  -48.7736 O.2       14 UNK        -0.5000 
     84 N          -0.8202  -26.7656  -48.5417 N.am      15 UNK        -0.5000 
     85 CA         -1.6619  -26.9874  -49.7216 C.3       15 UNK         0.1400 
     86 CB         -0.9400  -26.4708  -50.9812 C.3       15 UNK        -0.1800 
     87 C          -3.0611  -26.3621  -49.6259 C.2       15 UNK         0.5000 
     88 O          -4.0052  -26.9544  -50.1499 O.2       15 UNK        -0.5000 
     89 N          -3.1749  -25.1761  -49.0069 N.am      16 UNK        -0.5000 
     90 CA         -4.3882  -24.3469  -48.9331 C.3       16 UNK         0.1400 
     91 CB         -5.4757  -25.0256  -48.0721 C.3       16 UNK        -0.1800 
     92 C          -4.9144  -23.9179  -50.3222 C.2       16 UNK         0.5000 
     93 O          -6.1258  -23.8912  -50.5452 O.2       16 UNK        -0.5000 
     94 N          -3.9851  -23.5986  -51.2363 N.am      17 UNK        -0.5000 
     95 CA         -4.2615  -23.2335  -52.6309 C.3       17 UNK         0.1400 
     96 CB         -2.9302  -23.1395  -53.3929 C.3       17 UNK        -0.1800 
     97 C          -5.0723  -21.9314  -52.7983 C.2       17 UNK         0.5000 
     98 O          -5.8354  -21.8202  -53.7584 O.2       17 UNK        -0.5000 
     99 N          -4.9011  -21.0005  -51.8471 N.am      18 UNK        -0.5000 
    100 CA        -5.5180  -19.6738  -51.7467 C.3       18 UNK         0.1400 
    101 CB        -7.0579  -19.7729  -51.7299 C.3       18 UNK        -0.1800 
    102 C         -5.0277  -18.6757  -52.8144 C.2       18 UNK         0.5000 
    103 O         -4.4062  -19.0512  -53.8108 O.2       18 UNK        -0.5000 
    104 N         -5.3444  -17.3931  -52.5883 N.am      19 UNK        -0.5000 
    105 CA        -4.9454  -16.2657  -53.4365 C.3       19 UNK         0.1400 
    106 CB        -5.3525  -14.9537  -52.7506 C.3       19 UNK        -0.1800 
    107 C         -5.5072  -16.3299  -54.8707 C.2       19 UNK         0.5000 
    108 O         -4.9091  -15.7568  -55.7815 O.2       19 UNK        -0.5000 
    109 N         -6.6160  -17.0604  -55.0534 N.am      20 UNK        -0.5000 
    110 CA        -7.2269  -17.3612  -56.3478 C.3       20 UNK         0.1400 
    111 CB        -8.5671  -18.0746  -56.1129 C.3       20 UNK        -0.1800 
    112 C         -6.3230  -18.2009  -57.2732 C.2       20 UNK         0.5000 
    113 O         -6.4060  -18.0437  -58.4920 O.2       20 UNK        -0.5000 
    114 N         -5.4711  -19.0586  -56.6915 N.am      21 UNK        -0.5000 
    115 CA        -4.4581  -19.8188  -57.4238 C.3       21 UNK         0.1400 
    116 CB        -4.0918  -21.0836  -56.6333 C.3       21 UNK        -0.1800 
    117 C         -3.2039  -18.9703  -57.6959 C.2       21 UNK         0.5000 
    118 O         -2.5941  -19.1127  -58.7567 O.2       21 UNK        -0.5000 
    119 N         -2.8421  -18.1121  -56.7340 N.am      22 UNK        -0.5000 
    120 CA        -1.6806  -17.2114  -56.8048 C.3       22 UNK         0.1400 
    121 C         -1.8540  -16.0530  -57.8253 C.2       22 UNK         0.5000 
    122 N         -3.0341  -15.4558  -57.9331 N.am      22 UNK        -0.7600 
    123 O         -0.9105  -15.6953  -58.5251 O.2       22 UNK        -0.5000 
    124 C124       -1.2928  -16.6474  -55.4151 C.3       23 UNK        -0.0398 
    125 S125       -1.0430  -17.9615  -54.1764 S.3       23 UNK        -0.2404 
    126 C126       -0.8569  -16.9955  -52.6430 C.3       23 UNK        -0.0205 
    127 H127        1.4299  -17.0472  -49.9695 H         1 UNK         0.0600 
    128 H128        0.5014  -18.2671  -49.0849 H         1 UNK         0.0600 
    129 H129        2.1739  -17.9480  -48.6412 H         1 UNK         0.0600 
    130 H130       -1.1590  -16.7794  -48.4234 H         1 UNK         0.3000 
    131 H131       -0.7196  -15.6268  -45.9098 H         1 UNK         0.0600 
    132 H132       -3.0919  -15.0353  -45.9240 H         1 UNK         0.0800 
    133 H133       -2.8621  -16.6445  -46.5292 H         1 UNK         0.0800 
    134 H134       -4.5962  -17.3464  -48.0193 H         1 UNK         0.0800 
    135 H135       -5.0493  -16.5984  -49.5265 H         1 UNK         0.0800 
    136 H136       -2.7244  -15.9181  -50.9740 H         1 UNK         0.1150 
    137 H137       -0.5808  -19.5497  -51.7164 H         1 UNK         0.1150 
    138 H138       -3.3421  -19.3266  -48.4468 H         1 UNK         0.1150 
    139 H139       -2.2914  -21.4283  -48.9357 H         1 UNK         0.0800 
    140 H140       -1.9091  -21.6411  -50.6265 H         1 UNK         0.0800 
    141 H141       -0.7572  -20.5037  -47.2289 H         1 UNK         0.0800 
    142 H142        0.9667  -20.3420  -47.4055 H         1 UNK         0.0800 
    143 H143        1.1184  -22.9207  -47.2827 H         1 UNK         0.0600 
    144 H144        0.9917  -21.0802  -45.1407 H         1 UNK         0.3000 
    145 H145        2.1641  -23.4083  -42.6431 H         1 UNK         0.0600 
    146 H146        4.1243  -22.4882  -43.8518 H         1 UNK         0.0600 
    147 H147        3.3265  -20.9317  -44.0225 H         1 UNK         0.0600 
    148 H148        3.7767  -21.5235  -42.4245 H         1 UNK         0.0600 
    149 H149        1.3810  -20.6909  -42.4027 H         1 UNK         0.3000 
    150 H150       -2.0812  -21.2835  -41.6470 H         1 UNK         0.0600 
    151 H151       -0.7608  -21.5991  -39.5416 H         1 UNK         0.0600 
    152 H152       -1.3988  -19.9663  -39.6685 H         1 UNK         0.0600 
    153 H153        0.3028  -20.2745  -40.0046 H         1 UNK         0.0600 
    154 H154       -0.6437  -18.8583  -41.8172 H         1 UNK         0.3000 
    155 H155       -1.2028  -18.1986  -45.3134 H         1 UNK         0.0600 
    156 H156       -2.2284  -17.1645  -42.6183 H         1 UNK         0.0600 
    157 H157       -1.8721  -16.0873  -43.9576 H         1 UNK         0.0600 
    158 H158       -3.1122  -17.3248  -44.1183 H         1 UNK         0.0600 
    159 H159        0.3621  -16.7676  -43.4564 H         1 UNK         0.3000 
    160 H160        3.4419  -18.5433  -43.8212 H         1 UNK         0.0600 
    161 H161        2.5828  -15.8182  -44.8911 H         1 UNK         0.0600 
    162 H162        3.4393  -17.0648  -45.7904 H         1 UNK         0.0600 
    163 H163        4.2301  -16.2604  -44.4409 H         1 UNK         0.0600 
    164 H164        2.5346  -16.1610  -42.4320 H         1 UNK         0.3000 
    165 H165        1.8772  -17.8433  -39.3443 H         1 UNK         0.0600 
    166 H166        3.4609  -16.0973  -38.5806 H         1 UNK         0.0600 
    167 H167        4.3325  -17.3717  -39.4179 H         1 UNK         0.0600 
    168 H168        4.0268  -15.8415  -40.2313 H         1 UNK         0.0600 
    169 H169        1.6526  -15.1068  -40.1584 H         1 UNK         0.3000 
    170 H170       -1.6707  -15.2515  -41.3965 H         1 UNK         0.0600 
    171 H171       -2.0213  -15.3443  -38.9221 H         1 UNK         0.0600 
    172 H172       -0.7086  -14.1959  -38.6892 H         1 UNK         0.0600 
    173 H173       -2.1748  -13.7088  -39.5411 H         1 UNK         0.0600 
    174 H174       -0.2195  -12.9729  -40.8345 H         1 UNK         0.3000 
    175 H175       -0.0132  -11.8807  -43.2172 H         1 UNK         0.0600 
    176 H176        2.5735  -12.2525  -41.6199 H         1 UNK         0.0600 
    177 H177        2.0936  -10.7342  -42.3748 H         1 UNK         0.0600 
    178 H178        1.1107  -11.4287  -41.1036 H         1 UNK         0.0600 
    179 H179        1.0271  -12.1693  -45.1093 H         1 UNK         0.3000 
    180 H180        3.7326  -11.7010  -46.1119 H         1 UNK         0.0600 
    181 H181        4.0695  -14.7049  -46.5391 H         1 UNK         0.0600 
    182 H182        5.2607  -13.6564  -45.7747 H         1 UNK         0.0600 
    183 H183        4.8289  -13.4154  -47.4574 H         1 UNK         0.0600 
    184 H184        1.9114  -13.7685  -47.2379 H         1 UNK         0.3000 
    185 H185       -0.4679  -11.3911  -48.2472 H         1 UNK         0.0600 
    186 H186        1.1007  -11.0666  -50.1690 H         1 UNK         0.0600 
    187 H187        1.4606  -12.7891  -50.1817 H         1 UNK         0.0600 
    188 H188       -0.1629  -12.2183  -50.5710 H         1 UNK         0.0600 
    189 H189       -0.1197  -14.1590  -48.8889 H         1 UNK         0.3000 
    190 H190       -1.5448  -22.1418  -45.0207 H         1 UNK         0.3000 
    191 H191       -3.5403  -23.7664  -46.1889 H         1 UNK         0.0600 
    192 H192       -3.1428  -22.9431  -43.2712 H         1 UNK         0.0600 
    193 H193       -4.6228  -23.6099  -43.9490 H         1 UNK         0.0600 
    194 H194       -4.0387  -22.0461  -44.4956 H         1 UNK         0.0600 
    195 H195       -0.9849  -24.5703  -43.8097 H         1 UNK         0.3000 
    196 H196       -1.7778  -27.3151  -43.4581 H         1 UNK         0.0600 
    197 H197        0.4634  -27.5288  -42.3920 H         1 UNK         0.0600 
    198 H198       -0.3874  -26.1102  -41.7976 H         1 UNK         0.0600 
    199 H199        0.9126  -25.9298  -42.9720 H         1 UNK         0.0600 
    200 H200        0.5433  -25.6714  -45.6345 H         1 UNK         0.3000 
    201 H201        1.6768  -28.0222  -46.7336 H         1 UNK         0.0600 
    202 H202        2.8204  -25.8321  -46.7578 H         1 UNK         0.0600 
    203 H203        1.5983  -25.1728  -47.8451 H         1 UNK         0.0600 
    204 H204        2.6702  -26.4538  -48.3933 H         1 UNK         0.0600 
    205 H205       -0.9552  -25.9035  -48.0208 H         1 UNK         0.3000 
    206 H206       -1.8246  -28.0612  -49.8388 H         1 UNK         0.0600 
    207 H207       -1.5613  -26.5924  -51.8697 H         1 UNK         0.0600 
    208 H208       -0.6930  -25.4119  -50.8942 H         1 UNK         0.0600 
    209 H209       -0.0133  -27.0162  -51.1602 H         1 UNK         0.0600 
    210 H210       -2.3467  -24.7683  -48.5792 H         1 UNK         0.3000 
    211 H211       -4.0960  -23.4243  -48.4309 H         1 UNK         0.0600 
    212 H212       -5.8954  -25.9026  -48.5655 H         1 UNK         0.0600 
    213 H213       -6.2997  -24.3395  -47.8730 H         1 UNK         0.0600 
    214 H214       -5.0842  -25.3466  -47.1089 H         1 UNK         0.0600 
    215 H215       -3.0141  -23.6882  -50.9785 H         1 UNK         0.3000 
    216 H216       -4.8483  -24.0425  -53.0710 H         1 UNK         0.0600 
    217 H217       -2.3046  -22.3293  -53.0162 H         1 UNK         0.0600 
    218 H218       -3.1027  -22.9527  -54.4532 H         1 UNK         0.0600 
    219 H219       -2.3631  -24.0676  -53.3178 H         1 UNK         0.0600 
    220 H220       -4.2285  -21.2110  -51.1268 H         1 UNK         0.3000 
    221 H221       -5.2053  -19.2805  -50.7797 H         1 UNK         0.0600 
    222 H222       -7.4610  -20.0475  -52.7051 H         1 UNK         0.0600 
    223 H223       -7.3965  -20.5156  -51.0072 H         1 UNK         0.0600 
    224 H224       -7.5120  -18.8222  -51.4494 H         1 UNK         0.0600 
    225 H225       -5.8742  -17.1593  -51.7620 H         1 UNK         0.3000 
    226 H226       -3.8573  -16.2857  -53.5132 H         1 UNK         0.0600 
    227 H227       -4.8910  -14.8606  -51.7673 H         1 UNK         0.0600 
    228 H228       -5.0360  -14.0913  -53.3389 H         1 UNK         0.0600 
    229 H229       -6.4335  -14.8855  -52.6229 H         1 UNK         0.0600 
    230 H230       -7.0350  -17.4938  -54.2446 H         1 UNK         0.3000 
    231 H231       -7.4254  -16.4131  -56.8521 H         1 UNK         0.0600 
    232 H232       -9.0637  -18.2942  -57.0590 H         1 UNK         0.0600 
    233 H233       -9.2468  -17.4559  -55.5267 H         1 UNK         0.0600 
    234 H234       -8.4323  -19.0200  -55.5856 H         1 UNK         0.0600 
    235 H235       -5.4338  -19.1185  -55.6801 H         1 UNK         0.3000 
    236 H236       -4.8692  -20.1332  -58.3856 H         1 UNK         0.0600 
    237 H237       -4.9681  -21.7082  -56.4600 H         1 UNK         0.0600 
    238 H238       -3.3636  -21.6867  -57.1767 H         1 UNK         0.0600 
    239 H239       -3.6568  -20.8404  -55.6635 H         1 UNK         0.0600 
    240 H240       -3.3779  -18.0882  -55.8780 H         1 UNK         0.3000 
    241 H241       -0.8365  -17.8099  -57.1537 H         1 UNK         0.0600 
    242 H242       -3.7885  -15.6859  -57.2906 H         1 UNK         0.3800 
    243 H243       -3.1550  -14.7074  -58.5964 H         1 UNK         0.3800 
    244 H244       -0.3724  -16.0647  -55.4834 H         1 UNK         0.0800 
    245 H245       -2.0651  -15.9656  -55.0566 H         1 UNK         0.0800 
    246 H246       -1.2393  -15.9850  -52.7929 H         1 UNK         0.0800 
    247 H247        0.2044  -16.8926  -52.4141 H         1 UNK         0.0800 
@<TRIPOS>BOND
     1    1    2 1    
     2    1  127 1    
     3    1  128 1    
     4    1  129 1    
     5    2    3 2    
     6    2    4 am   BACKBONE|DICT|INTERRES
     7    4    5 1    
     8    4  130 1    
     9    5    6 1    
    10    5   65 1    
    11    5  131 1    
    12    6    7 1    
    13    6  132 1    
    14    6  133 1    
    15    7    8 1    
    16    8    9 1    
    17    8  134 1    
    18    8  135 1    
    19    9   10 ar   
    20    9   14 ar   
    21   10   11 ar   
    22   10  136 1    
    23   11   12 ar   
    24   11  126 1    
    25   12   13 ar   
    26   12  137 1    
    27   13   14 ar   
    28   13   15 1    
    29   14  138 1    
    30   15   16 1    
    31   15  139 1    
    32   15  140 1    
    33   16   17 1    
    34   17   18 1    
    35   17  141 1    
    36   17  142 1    
    37   18   19 1    
    38   18   67 1    
    39   18  143 1    
    40   19   20 am   BACKBONE|DICT|INTERRES
    41   19  144 1    
    42   20   21 2    
    43   20   22 1    
    44   22   23 1    
    45   22   24 1    
    46   22  145 1    
    47   23  146 1    
    48   23  147 1    
    49   23  148 1    
    50   24   25 am   BACKBONE|DICT|INTERRES
    51   24  149 1    
    52   25   26 2    
    53   25   27 1    
    54   27   28 1    
    55   27   29 1    
    56   27  150 1    
    57   28  151 1    
    58   28  152 1    
    59   28  153 1    
    60   29   30 am   BACKBONE|DICT|INTERRES
    61   29  154 1    
    62   30   31 2    
    63   30   32 1    
    64   32   33 1    
    65   32   34 1    
    66   32  155 1    
    67   33  156 1    
    68   33  157 1    
    69   33  158 1    
    70   34   35 am   BACKBONE|DICT|INTERRES
    71   34  159 1    
    72   35   36 2    
    73   35   37 1    
    74   37   38 1    
    75   37   39 1    
    76   37  160 1    
    77   38  161 1    
    78   38  162 1    
    79   38  163 1    
    80   39   40 am   BACKBONE|DICT|INTERRES
    81   39  164 1    
    82   40   41 2    
    83   40   42 1    
    84   42   43 1    
    85   42   44 1    
    86   42  165 1    
    87   43  166 1    
    88   43  167 1    
    89   43  168 1    
    90   44   45 am   BACKBONE|DICT|INTERRES
    91   44  169 1    
    92   45   46 2    
    93   45   47 1    
    94   47   48 1    
    95   47   49 1    
    96   47  170 1    
    97   48  171 1    
    98   48  172 1    
    99   48  173 1    
   100   49   50 am   BACKBONE|DICT|INTERRES
   101   49  174 1    
   102   50   51 2    
   103   50   52 1    
   104   52   53 1    
   105   52   54 1    
   106   52  175 1    
   107   53  176 1    
   108   53  177 1    
   109   53  178 1    
   110   54   55 am   BACKBONE|DICT|INTERRES
   111   54  179 1    
   112   55   56 2    
   113   55   57 1    
   114   57   58 1    
   115   57   59 1    
   116   57  180 1    
   117   58  181 1    
   118   58  182 1    
   119   58  183 1    
   120   59   60 am   BACKBONE|DICT|INTERRES
   121   59  184 1    
   122   60   61 2    
   123   60   62 1    
   124   62   63 1    
   125   62   64 1    
   126   62  185 1    
   127   63  186 1    
   128   63  187 1    
   129   63  188 1    
   130   64   65 am   BACKBONE|DICT|INTERRES
   131   64  189 1    
   132   65   66 2    
   133   67   68 2    
   134   67   69 am   BACKBONE|DICT|INTERRES
   135   69   70 1    
   136   69  190 1    
   137   70   71 1    
   138   70   72 1    
   139   70  191 1    
   140   71  192 1    
   141   71  193 1    
   142   71  194 1    
   143   72   73 2    
   144   72   74 am   BACKBONE|DICT|INTERRES
   145   74   75 1    
   146   74  195 1    
   147   75   76 1    
   148   75   77 1    
   149   75  196 1    
   150   76  197 1    
   151   76  198 1    
   152   76  199 1    
   153   77   78 2    
   154   77   79 am   BACKBONE|DICT|INTERRES
   155   79   80 1    
   156   79  200 1    
   157   80   81 1    
   158   80   82 1    
   159   80  201 1    
   160   81  202 1    
   161   81  203 1    
   162   81  204 1    
   163   82   83 2    
   164   82   84 am   BACKBONE|DICT|INTERRES
   165   84   85 1    
   166   84  205 1    
   167   85   86 1    
   168   85   87 1    
   169   85  206 1    
   170   86  207 1    
   171   86  208 1    
   172   86  209 1    
   173   87   88 2    
   174   87   89 am   BACKBONE|DICT|INTERRES
   175   89   90 1    
   176   89  210 1    
   177   90   91 1    
   178   90   92 1    
   179   90  211 1    
   180   91  212 1    
   181   91  213 1    
   182   91  214 1    
   183   92   93 2    
   184   92   94 am   BACKBONE|DICT|INTERRES
   185   94   95 1    
   186   94  215 1    
   187   95   96 1    
   188   95   97 1    
   189   95  216 1    
   190   96  217 1    
   191   96  218 1    
   192   96  219 1    
   193   97   98 2    
   194   97   99 am   BACKBONE|DICT|INTERRES
   195   99  100 1    
   196   99  220 1    
   197  100  101 1    
   198  100  102 1    
   199  100  221 1    
   200  101  222 1    
   201  101  223 1    
   202  101  224 1    
   203  102  103 2    
   204  102  104 am   BACKBONE|DICT|INTERRES
   205  104  105 1    
   206  104  225 1    
   207  105  106 1    
   208  105  107 1    
   209  105  226 1    
   210  106  227 1    
   211  106  228 1    
   212  106  229 1    
   213  107  108 2    
   214  107  109 am   BACKBONE|DICT|INTERRES
   215  109  110 1    
   216  109  230 1    
   217  110  111 1    
   218  110  112 1    
   219  110  231 1    
   220  111  232 1    
   221  111  233 1    
   222  111  234 1    
   223  112  113 2    
   224  112  114 am   BACKBONE|DICT|INTERRES
   225  114  115 1    
   226  114  235 1    
   227  115  116 1    
   228  115  117 1    
   229  115  236 1    
   230  116  237 1    
   231  116  238 1    
   232  116  239 1    
   233  117  118 2    
   234  117  119 am   BACKBONE|DICT|INTERRES
   235  119  120 1    
   236  119  240 1    
   237  120  121 1    
   238  120  124 1    
   239  120  241 1    
   240  121  122 am   BACKBONE|DICT|INTERRES
   241  121  123 2    
   242  122  242 1    
   243  122  243 1    
   244  124  125 1    
   245  124  244 1    
   246  124  245 1    
   247  125  126 1    
   248  126  246 1    
   249  126  247 1    
@<TRIPOS>SUBSTRUCTURE
     1 UNK         1 GROUP             0       ****    0 ROOT    
