@<TRIPOS>MOLECULE
3R540
247   249    1
SMALL
USER_CHARGES


@<TRIPOS>ATOM
      1 CA          1.6082   -9.6990  -50.8596 C.3       0 UNK        -0.1800 
      2 C           2.7322  -10.4202  -50.1288 C.2       0 UNK         0.5000 
      3 O           3.8893  -10.0098  -50.2270 O.2       0 UNK        -0.5000 
      4 N           2.3978  -11.4962  -49.4066 N.am      1 UNK        -0.5000 
      5 CA          3.3275  -12.2924  -48.5985 C.3       1 UNK         0.1400 
      6 C6          2.6875  -13.6178  -48.1224 C.3       23 UNK        -0.0398 
      7 S7          2.1796  -14.6881  -49.5071 S.3       23 UNK        -0.2404 
      8 C8          0.6920  -15.4711  -48.8044 C.3       23 UNK        -0.0205 
      9 C9          0.3477  -16.7827  -49.4959 C.ar      23 UNK        -0.0193 
     10 C10        -0.9487  -17.0187  -49.9667 C.ar      23 UNK        -0.1150 
     11 C11        -1.2837  -18.2553  -50.5284 C.ar      23 UNK        -0.0193 
     12 C12        -0.3015  -19.2386  -50.6639 C.ar      23 UNK        -0.1150 
     13 C13         0.9946  -19.0180  -50.1918 C.ar      23 UNK        -0.0193 
     14 C14         1.3103  -17.7922  -49.6035 C.ar      23 UNK        -0.1150 
     15 C15         2.0419  -20.1178  -50.2817 C.3       23 UNK        -0.0205 
     16 S16         2.1378  -21.0840  -48.7403 S.3       23 UNK        -0.2404 
     17 C17         0.4439  -21.7504  -48.6625 C.3       23 UNK        -0.0398 
     18 CA          0.2690  -22.8446  -47.5921 C.3       11 UNK         0.1400 
     19 N           0.4177  -22.3236  -46.2301 N.am      11 UNK        -0.5000 
     20 C           0.4996  -23.0891  -45.1342 C.2       10 UNK         0.5000 
     21 O           0.4682  -24.3188  -45.1580 O.2       10 UNK        -0.5000 
     22 CA          0.5755  -22.3667  -43.7785 C.3       10 UNK         0.1400 
     23 CB          1.9780  -21.7900  -43.5353 C.3       10 UNK        -0.1800 
     24 N          -0.4323  -21.3145  -43.6494 N.am      10 UNK        -0.5000 
     25 C          -1.7554  -21.5354  -43.6627 C.2       9 UNK         0.5000 
     26 O          -2.2615  -22.6542  -43.7467 O.2       9 UNK        -0.5000 
     27 CA         -2.6717  -20.3007  -43.6112 C.3       9 UNK         0.1400 
     28 CB         -2.8299  -19.8056  -42.1661 C.3       9 UNK        -0.1800 
     29 N          -2.2061  -19.2047  -44.4611 N.am      9 UNK        -0.5000 
     30 C          -2.0603  -19.2804  -45.7920 C.2       8 UNK         0.5000 
     31 O          -2.3187  -20.2863  -46.4506 O.2       8 UNK        -0.5000 
     32 CA         -1.4599  -18.0500  -46.4949 C.3       8 UNK         0.1400 
     33 CB         -2.4864  -16.9134  -46.6116 C.3       8 UNK        -0.1800 
     34 N          -0.2564  -17.5550  -45.8271 N.am      8 UNK        -0.5000 
     35 C           0.8591  -18.2779  -45.6517 C.2       7 UNK         0.5000 
     36 O           1.0003  -19.4350  -46.0443 O.2       7 UNK        -0.5000 
     37 CA          1.9843  -17.6127  -44.8445 C.3       7 UNK         0.1400 
     38 CB          2.7933  -16.6392  -45.7169 C.3       7 UNK        -0.1800 
     39 N           1.4643  -16.9254  -43.6612 N.am      7 UNK        -0.5000 
     40 C           0.9284  -17.5580  -42.6063 C.2       6 UNK         0.5000 
     41 O           0.8887  -18.7830  -42.4896 O.2       6 UNK        -0.5000 
     42 CA          0.2776  -16.6756  -41.5271 C.3       6 UNK         0.1400 
     43 CB          1.3209  -16.1756  -40.5185 C.3       6 UNK        -0.1800 
     44 N          -0.4476  -15.5408  -42.1025 N.am      6 UNK        -0.5000 
     45 C          -1.5911  -15.6712  -42.7919 C.2       5 UNK         0.5000 
     46 O          -2.1374  -16.7535  -42.9970 O.2       5 UNK        -0.5000 
     47 CA         -2.2315  -14.3988  -43.3740 C.3       5 UNK         0.1400 
     48 CB         -3.2756  -13.8332  -42.4001 C.3       5 UNK        -0.1800 
     49 N          -1.2763  -13.3472  -43.7127 N.am      5 UNK        -0.5000 
     50 C          -0.2857  -13.4448  -44.6086 C.2       4 UNK         0.5000 
     51 O          -0.0333  -14.4713  -45.2451 O.2       4 UNK        -0.5000 
     52 CA          0.5852  -12.1869  -44.8145 C.3       4 UNK         0.1400 
     53 CB          0.0501  -10.9214  -44.1077 C.3       4 UNK        -0.1800 
     54 N           1.9847  -12.3997  -44.4400 N.am      4 UNK        -0.5000 
     55 C           2.4643  -12.8898  -43.2853 C.2       3 UNK         0.5000 
     56 O           1.7500  -13.2943  -42.3665 O.2       3 UNK        -0.5000 
     57 CA          3.9989  -12.9456  -43.1248 C.3       3 UNK         0.1400 
     58 CB          4.4711  -14.3648  -42.7718 C.3       3 UNK        -0.1800 
     59 N           4.7053  -12.4971  -44.3294 N.am      3 UNK        -0.5000 
     60 C           5.1563  -11.2514  -44.5307 C.2       2 UNK         0.5000 
     61 O           5.0808  -10.3495  -43.6959 O.2       2 UNK        -0.5000 
     62 CA          5.7664  -10.9552  -45.9153 C.3       2 UNK         0.1400 
     63 CB          7.2658  -11.2901  -45.9253 C.3       2 UNK        -0.1800 
     64 N           5.1062  -11.6601  -47.0213 N.am      2 UNK        -0.5000 
     65 C           3.8269  -11.4865  -47.3821 C.2       1 UNK         0.5000 
     66 O           3.0378  -10.7652  -46.7680 O.2       1 UNK        -0.5000 
     67 C          -1.0753  -23.5713  -47.7974 C.2       11 UNK         0.5000 
     68 O          -1.0973  -24.6273  -48.4301 O.2       11 UNK        -0.5000 
     69 N          -2.1694  -23.0211  -47.2552 N.am      12 UNK        -0.5000 
     70 CA         -3.4997  -23.6296  -47.3068 C.3       12 UNK         0.1400 
     71 CB         -4.5416  -22.6361  -46.7728 C.3       12 UNK        -0.1800 
     72 C          -3.5776  -24.9655  -46.5427 C.2       12 UNK         0.5000 
     73 O          -4.3001  -25.8643  -46.9721 O.2       12 UNK        -0.5000 
     74 N          -2.8267  -25.0791  -45.4397 N.am      13 UNK        -0.5000 
     75 CA         -2.7293  -26.2889  -44.6303 C.3       13 UNK         0.1400 
     76 CB         -2.2931  -25.9168  -43.2036 C.3       13 UNK        -0.1800 
     77 C          -1.7758  -27.3301  -45.2426 C.2       13 UNK         0.5000 
     78 O          -2.1865  -28.4695  -45.4654 O.2       13 UNK        -0.5000 
     79 N          -0.5130  -26.9398  -45.4623 N.am      14 UNK        -0.5000 
     80 CA          0.5772  -27.8600  -45.7878 C.3       14 UNK         0.1400 
     81 CB          1.9099  -27.2644  -45.3064 C.3       14 UNK        -0.1800 
     82 C           0.6550  -28.2075  -47.2813 C.2       14 UNK         0.5000 
     83 O           0.8262  -29.3796  -47.6193 O.2       14 UNK        -0.5000 
     84 N           0.5502  -27.1908  -48.1464 N.am      15 UNK        -0.5000 
     85 CA          0.6794  -27.3400  -49.5993 C.3       15 UNK         0.1400 
     86 CB          1.3862  -26.0994  -50.1732 C.3       15 UNK        -0.1800 
     87 C          -0.6752  -27.5688  -50.2938 C.2       15 UNK         0.5000 
     88 O          -0.6886  -27.9376  -51.4687 O.2       15 UNK        -0.5000 
     89 N          -1.7785  -27.3316  -49.5670 N.am      16 UNK        -0.5000 
     90 CA         -3.1700  -27.3466  -50.0299 C.3       16 UNK         0.1400 
     91 CB         -3.6026  -28.7691  -50.4433 C.3       16 UNK        -0.1800 
     92 C          -3.4351  -26.2838  -51.1178 C.2       16 UNK         0.5000 
     93 O          -4.1780  -26.5405  -52.0676 O.2       16 UNK        -0.5000 
     94 N          -2.7932  -25.1154  -50.9720 N.am      17 UNK        -0.5000 
     95 CA         -2.8752  -23.9964  -51.9092 C.3       17 UNK         0.1400 
     96 CB         -1.8338  -22.9383  -51.5160 C.3       17 UNK        -0.1800 
     97 C          -4.2786  -23.3661  -51.9538 C.2       17 UNK         0.5000 
     98 O          -4.9015  -23.1917  -50.9053 O.2       17 UNK        -0.5000 
     99 N          -4.7170  -22.9989  -53.1616 N.am      18 UNK        -0.5000 
    100 CA        -5.9563  -22.2856  -53.4504 C.3       18 UNK         0.1400 
    101 CB        -7.1852  -23.1887  -53.2328 C.3       18 UNK        -0.1800 
    102 C         -5.8831  -21.7944  -54.9014 C.2       18 UNK         0.5000 
    103 O         -5.6261  -22.5994  -55.7999 O.2       18 UNK        -0.5000 
    104 N         -6.0985  -20.4939  -55.1051 N.am      19 UNK        -0.5000 
    105 CA        -6.1269  -19.8273  -56.4031 C.3       19 UNK         0.1400 
    106 CB        -4.6860  -19.5539  -56.8898 C.3       19 UNK        -0.1800 
    107 C         -7.0037  -18.5705  -56.2616 C.2       19 UNK         0.5000 
    108 O         -8.1245  -18.6742  -55.7587 O.2       19 UNK        -0.5000 
    109 N         -6.4827  -17.4017  -56.6622 N.am      20 UNK        -0.5000 
    110 CA        -7.1018  -16.0894  -56.4367 C.3       20 UNK         0.1400 
    111 CB        -6.3759  -15.0410  -57.2938 C.3       20 UNK        -0.1800 
    112 C         -7.0972  -15.6714  -54.9499 C.2       20 UNK         0.5000 
    113 O         -7.9266  -14.8581  -54.5407 O.2       20 UNK        -0.5000 
    114 N         -6.1770  -16.2554  -54.1755 N.am      21 UNK        -0.5000 
    115 CA        -6.1061  -16.2101  -52.7210 C.3       21 UNK         0.1400 
    116 CB        -4.8354  -15.4491  -52.3088 C.3       21 UNK        -0.1800 
    117 C         -6.0856  -17.6570  -52.1989 C.2       21 UNK         0.5000 
    118 O         -5.8401  -18.5872  -52.9730 O.2       21 UNK        -0.5000 
    119 N         -6.3490  -17.8224  -50.8981 N.am      22 UNK        -0.5000 
    120 CA        -6.4272  -19.1134  -50.1836 C.3       22 UNK         0.1400 
    121 C         -7.6611  -19.9977  -50.5511 C.2       22 UNK         0.5000 
    122 N         -8.6069  -19.5303  -51.3567 N.am      22 UNK        -0.7600 
    123 O         -7.7905  -21.1162  -50.0637 O.2       22 UNK        -0.5000 
    124 C124       -5.1017  -19.9277  -50.2206 C.3       23 UNK        -0.0398 
    125 S125       -3.6869  -19.0547  -49.4773 S.3       23 UNK        -0.2404 
    126 C126       -2.7155  -18.5601  -50.9346 C.3       23 UNK        -0.0205 
    127 H127        1.5387   -8.6672  -50.5152 H         1 UNK         0.0600 
    128 H128        0.6432  -10.1786  -50.6935 H         1 UNK         0.0600 
    129 H129        1.8029   -9.6896  -51.9320 H         1 UNK         0.0600 
    130 H130        1.4305  -11.7813  -49.3644 H         1 UNK         0.3000 
    131 H131        4.1890  -12.5331  -49.2255 H         1 UNK         0.0600 
    132 H132        3.3928  -14.1869  -47.5145 H         1 UNK         0.0800 
    133 H133        1.8237  -13.4180  -47.4858 H         1 UNK         0.0800 
    134 H134        0.8471  -15.6780  -47.7462 H         1 UNK         0.0800 
    135 H135       -0.1395  -14.7672  -48.8625 H         1 UNK         0.0800 
    136 H136       -1.7113  -16.2609  -49.8541 H         1 UNK         0.1150 
    137 H137       -0.5578  -20.1947  -51.0969 H         1 UNK         0.1150 
    138 H138        2.3058  -17.6288  -49.2156 H         1 UNK         0.1150 
    139 H139        1.8250  -20.7847  -51.1176 H         1 UNK         0.0800 
    140 H140        3.0196  -19.6795  -50.4869 H         1 UNK         0.0800 
    141 H141       -0.2526  -20.9313  -48.4731 H         1 UNK         0.0800 
    142 H142        0.2107  -22.1440  -49.6519 H         1 UNK         0.0800 
    143 H143        1.0536  -23.5894  -47.7431 H         1 UNK         0.0600 
    144 H144        0.4801  -21.3126  -46.1356 H         1 UNK         0.3000 
    145 H145        0.3796  -23.1076  -43.0005 H         1 UNK         0.0600 
    146 H146        2.7383  -22.5680  -43.6136 H         1 UNK         0.0600 
    147 H147        2.2285  -21.0129  -44.2572 H         1 UNK         0.0600 
    148 H148        2.0575  -21.3571  -42.5380 H         1 UNK         0.0600 
    149 H149       -0.0907  -20.3649  -43.5541 H         1 UNK         0.3000 
    150 H150       -3.6551  -20.6043  -43.9755 H         1 UNK         0.0600 
    151 H151       -3.1763  -20.6074  -41.5128 H         1 UNK         0.0600 
    152 H152       -3.5598  -18.9983  -42.1044 H         1 UNK         0.0600 
    153 H153       -1.8865  -19.4353  -41.7627 H         1 UNK         0.0600 
    154 H154       -2.0022  -18.3261  -43.9908 H         1 UNK         0.3000 
    155 H155       -1.1728  -18.3602  -47.5007 H         1 UNK         0.0600 
    156 H156       -2.0667  -16.0525  -47.1321 H         1 UNK         0.0600 
    157 H157       -3.3646  -17.2361  -47.1702 H         1 UNK         0.0600 
    158 H158       -2.8317  -16.5813  -45.6341 H         1 UNK         0.0600 
    159 H159       -0.2809  -16.6042  -45.4781 H         1 UNK         0.3000 
    160 H160        2.6587  -18.4061  -44.5150 H         1 UNK         0.0600 
    161 H161        2.2785  -15.6886  -45.8494 H         1 UNK         0.0600 
    162 H162        2.9788  -17.0558  -46.7082 H         1 UNK         0.0600 
    163 H163        3.7674  -16.4362  -45.2756 H         1 UNK         0.0600 
    164 H164        1.3972  -15.9185  -43.7048 H         1 UNK         0.3000 
    165 H165       -0.4393  -17.2949  -40.9834 H         1 UNK         0.0600 
    166 H166        0.8550  -15.5890  -39.7267 H         1 UNK         0.0600 
    167 H167        1.8360  -17.0121  -40.0447 H         1 UNK         0.0600 
    168 H168        2.0770  -15.5541  -40.9951 H         1 UNK         0.0600 
    169 H169       -0.0193  -14.6266  -42.0155 H         1 UNK         0.3000 
    170 H170       -2.7456  -14.6797  -44.2943 H         1 UNK         0.0600 
    171 H171       -4.0228  -14.5869  -42.1474 H         1 UNK         0.0600 
    172 H172       -2.8172  -13.5000  -41.4681 H         1 UNK         0.0600 
    173 H173       -3.8058  -12.9865  -42.8364 H         1 UNK         0.0600 
    174 H174       -1.3826  -12.4726  -43.2199 H         1 UNK         0.3000 
    175 H175        0.5765  -11.9892  -45.8869 H         1 UNK         0.0600 
    176 H176        0.0640  -11.0188  -43.0214 H         1 UNK         0.0600 
    177 H177        0.6570  -10.0528  -44.3646 H         1 UNK         0.0600 
    178 H178       -0.9717  -10.6951  -44.4154 H         1 UNK         0.0600 
    179 H179        2.6549  -12.0510  -45.1128 H         1 UNK         0.3000 
    180 H180        4.2539  -12.2962  -42.2849 H         1 UNK         0.0600 
    181 H181        4.1379  -15.0963  -43.5050 H         1 UNK         0.0600 
    182 H182        4.0849  -14.6737  -41.8008 H         1 UNK         0.0600 
    183 H183        5.5584  -14.4171  -42.7135 H         1 UNK         0.0600 
    184 H184        4.8234  -13.1771  -45.0662 H         1 UNK         0.3000 
    185 H185        5.6575   -9.8837  -46.0963 H         1 UNK         0.0600 
    186 H186        7.7893  -10.7626  -45.1267 H         1 UNK         0.0600 
    187 H187        7.4419  -12.3572  -45.7841 H         1 UNK         0.0600 
    188 H188        7.7303  -10.9939  -46.8660 H         1 UNK         0.0600 
    189 H189        5.6922  -12.2736  -47.5698 H         1 UNK         0.3000 
    190 H190       -2.1019  -22.1131  -46.7997 H         1 UNK         0.3000 
    191 H191       -3.7338  -23.8329  -48.3539 H         1 UNK         0.0600 
    192 H192       -4.5438  -21.7167  -47.3586 H         1 UNK         0.0600 
    193 H193       -4.3469  -22.3706  -45.7333 H         1 UNK         0.0600 
    194 H194       -5.5463  -23.0569  -46.8251 H         1 UNK         0.0600 
    195 H195       -2.3027  -24.2722  -45.1198 H         1 UNK         0.3000 
    196 H196       -3.7195  -26.7447  -44.5615 H         1 UNK         0.0600 
    197 H197       -2.1983  -26.8052  -42.5781 H         1 UNK         0.0600 
    198 H198       -3.0243  -25.2618  -42.7294 H         1 UNK         0.0600 
    199 H199       -1.3319  -25.4015  -43.1931 H         1 UNK         0.0600 
    200 H200       -0.2487  -25.9717  -45.2851 H         1 UNK         0.3000 
    201 H201        0.4208  -28.7918  -45.2394 H         1 UNK         0.0600 
    202 H202        1.8830  -27.0506  -44.2378 H         1 UNK         0.0600 
    203 H203        2.1512  -26.3367  -45.8266 H         1 UNK         0.0600 
    204 H204        2.7325  -27.9594  -45.4789 H         1 UNK         0.0600 
    205 H205        0.3544  -26.2604  -47.8012 H         1 UNK         0.3000 
    206 H206        1.3068  -28.2051  -49.8243 H         1 UNK         0.0600 
    207 H207        2.3464  -25.9310  -49.6856 H         1 UNK         0.0600 
    208 H208        1.5824  -26.2242  -51.2388 H         1 UNK         0.0600 
    209 H209        0.7899  -25.1950  -50.0604 H         1 UNK         0.0600 
    210 H210       -1.6360  -26.9855  -48.6283 H         1 UNK         0.3000 
    211 H211       -3.7818  -27.0609  -49.1759 H         1 UNK         0.0600 
    212 H212       -3.0882  -29.1071  -51.3431 H         1 UNK         0.0600 
    213 H213       -4.6733  -28.8063  -50.6472 H         1 UNK         0.0600 
    214 H214       -3.3995  -29.4882  -49.6497 H         1 UNK         0.0600 
    215 H215       -2.2096  -24.9841  -50.1534 H         1 UNK         0.3000 
    216 H216       -2.6235  -24.3767  -52.9015 H         1 UNK         0.0600 
    217 H217       -2.0537  -22.5074  -50.5382 H         1 UNK         0.0600 
    218 H218       -1.8183  -22.1201  -52.2370 H         1 UNK         0.0600 
    219 H219       -0.8309  -23.3644  -51.4846 H         1 UNK         0.0600 
    220 H220       -4.1477  -23.1839  -53.9775 H         1 UNK         0.3000 
    221 H221       -6.0330  -21.4238  -52.7871 H         1 UNK         0.0600 
    222 H222       -7.1241  -24.1010  -53.8274 H         1 UNK         0.0600 
    223 H223       -7.2891  -23.4758  -52.1865 H         1 UNK         0.0600 
    224 H224       -8.1023  -22.6701  -53.5148 H         1 UNK         0.0600 
    225 H225       -6.2682  -19.8836  -54.3077 H         1 UNK         0.3000 
    226 H226       -6.6246  -20.4753  -57.1274 H         1 UNK         0.0600 
    227 H227       -4.1239  -20.4823  -56.9911 H         1 UNK         0.0600 
    228 H228       -4.6802  -19.0763  -57.8703 H         1 UNK         0.0600 
    229 H229       -4.1386  -18.9146  -56.1958 H         1 UNK         0.0600 
    230 H230       -5.5622  -17.4002  -57.0775 H         1 UNK         0.3000 
    231 H231       -8.1428  -16.1390  -56.7629 H         1 UNK         0.0600 
    232 H232       -6.8290  -14.0561  -57.1725 H         1 UNK         0.0600 
    233 H233       -6.4276  -15.2926  -58.3533 H         1 UNK         0.0600 
    234 H234       -5.3239  -14.9542  -57.0188 H         1 UNK         0.0600 
    235 H235       -5.5939  -16.9659  -54.5949 H         1 UNK         0.3000 
    236 H236       -6.9828  -15.7091  -52.3054 H         1 UNK         0.0600 
    237 H237       -4.8821  -14.4098  -52.6345 H         1 UNK         0.0600 
    238 H238       -4.7077  -15.4439  -51.2256 H         1 UNK         0.0600 
    239 H239       -3.9404  -15.8920  -52.7467 H         1 UNK         0.0600 
    240 H240       -6.5434  -17.0076  -50.3340 H         1 UNK         0.3000 
    241 H241       -6.6002  -18.8440  -49.1411 H         1 UNK         0.0600 
    242 H242       -8.5358  -18.6095  -51.7568 H         1 UNK         0.3800 
    243 H243       -9.4065  -20.1070  -51.5651 H         1 UNK         0.3800 
    244 H244       -5.2150  -20.8526  -49.6535 H         1 UNK         0.0800 
    245 H245       -4.8526  -20.2358  -51.2344 H         1 UNK         0.0800 
    246 H246       -2.7327  -19.3530  -51.6838 H         1 UNK         0.0800 
    247 H247       -3.1683  -17.6841  -51.3957 H         1 UNK         0.0800 
@<TRIPOS>BOND
     1    1    2 1    
     2    1  127 1    
     3    1  128 1    
     4    1  129 1    
     5    2    3 2    
     6    2    4 am   BACKBONE|DICT|INTERRES
     7    4    5 1    
     8    4  130 1    
     9    5    6 1    
    10    5   65 1    
    11    5  131 1    
    12    6    7 1    
    13    6  132 1    
    14    6  133 1    
    15    7    8 1    
    16    8    9 1    
    17    8  134 1    
    18    8  135 1    
    19    9   10 ar   
    20    9   14 ar   
    21   10   11 ar   
    22   10  136 1    
    23   11   12 ar   
    24   11  126 1    
    25   12   13 ar   
    26   12  137 1    
    27   13   14 ar   
    28   13   15 1    
    29   14  138 1    
    30   15   16 1    
    31   15  139 1    
    32   15  140 1    
    33   16   17 1    
    34   17   18 1    
    35   17  141 1    
    36   17  142 1    
    37   18   19 1    
    38   18   67 1    
    39   18  143 1    
    40   19   20 am   BACKBONE|DICT|INTERRES
    41   19  144 1    
    42   20   21 2    
    43   20   22 1    
    44   22   23 1    
    45   22   24 1    
    46   22  145 1    
    47   23  146 1    
    48   23  147 1    
    49   23  148 1    
    50   24   25 am   BACKBONE|DICT|INTERRES
    51   24  149 1    
    52   25   26 2    
    53   25   27 1    
    54   27   28 1    
    55   27   29 1    
    56   27  150 1    
    57   28  151 1    
    58   28  152 1    
    59   28  153 1    
    60   29   30 am   BACKBONE|DICT|INTERRES
    61   29  154 1    
    62   30   31 2    
    63   30   32 1    
    64   32   33 1    
    65   32   34 1    
    66   32  155 1    
    67   33  156 1    
    68   33  157 1    
    69   33  158 1    
    70   34   35 am   BACKBONE|DICT|INTERRES
    71   34  159 1    
    72   35   36 2    
    73   35   37 1    
    74   37   38 1    
    75   37   39 1    
    76   37  160 1    
    77   38  161 1    
    78   38  162 1    
    79   38  163 1    
    80   39   40 am   BACKBONE|DICT|INTERRES
    81   39  164 1    
    82   40   41 2    
    83   40   42 1    
    84   42   43 1    
    85   42   44 1    
    86   42  165 1    
    87   43  166 1    
    88   43  167 1    
    89   43  168 1    
    90   44   45 am   BACKBONE|DICT|INTERRES
    91   44  169 1    
    92   45   46 2    
    93   45   47 1    
    94   47   48 1    
    95   47   49 1    
    96   47  170 1    
    97   48  171 1    
    98   48  172 1    
    99   48  173 1    
   100   49   50 am   BACKBONE|DICT|INTERRES
   101   49  174 1    
   102   50   51 2    
   103   50   52 1    
   104   52   53 1    
   105   52   54 1    
   106   52  175 1    
   107   53  176 1    
   108   53  177 1    
   109   53  178 1    
   110   54   55 am   BACKBONE|DICT|INTERRES
   111   54  179 1    
   112   55   56 2    
   113   55   57 1    
   114   57   58 1    
   115   57   59 1    
   116   57  180 1    
   117   58  181 1    
   118   58  182 1    
   119   58  183 1    
   120   59   60 am   BACKBONE|DICT|INTERRES
   121   59  184 1    
   122   60   61 2    
   123   60   62 1    
   124   62   63 1    
   125   62   64 1    
   126   62  185 1    
   127   63  186 1    
   128   63  187 1    
   129   63  188 1    
   130   64   65 am   BACKBONE|DICT|INTERRES
   131   64  189 1    
   132   65   66 2    
   133   67   68 2    
   134   67   69 am   BACKBONE|DICT|INTERRES
   135   69   70 1    
   136   69  190 1    
   137   70   71 1    
   138   70   72 1    
   139   70  191 1    
   140   71  192 1    
   141   71  193 1    
   142   71  194 1    
   143   72   73 2    
   144   72   74 am   BACKBONE|DICT|INTERRES
   145   74   75 1    
   146   74  195 1    
   147   75   76 1    
   148   75   77 1    
   149   75  196 1    
   150   76  197 1    
   151   76  198 1    
   152   76  199 1    
   153   77   78 2    
   154   77   79 am   BACKBONE|DICT|INTERRES
   155   79   80 1    
   156   79  200 1    
   157   80   81 1    
   158   80   82 1    
   159   80  201 1    
   160   81  202 1    
   161   81  203 1    
   162   81  204 1    
   163   82   83 2    
   164   82   84 am   BACKBONE|DICT|INTERRES
   165   84   85 1    
   166   84  205 1    
   167   85   86 1    
   168   85   87 1    
   169   85  206 1    
   170   86  207 1    
   171   86  208 1    
   172   86  209 1    
   173   87   88 2    
   174   87   89 am   BACKBONE|DICT|INTERRES
   175   89   90 1    
   176   89  210 1    
   177   90   91 1    
   178   90   92 1    
   179   90  211 1    
   180   91  212 1    
   181   91  213 1    
   182   91  214 1    
   183   92   93 2    
   184   92   94 am   BACKBONE|DICT|INTERRES
   185   94   95 1    
   186   94  215 1    
   187   95   96 1    
   188   95   97 1    
   189   95  216 1    
   190   96  217 1    
   191   96  218 1    
   192   96  219 1    
   193   97   98 2    
   194   97   99 am   BACKBONE|DICT|INTERRES
   195   99  100 1    
   196   99  220 1    
   197  100  101 1    
   198  100  102 1    
   199  100  221 1    
   200  101  222 1    
   201  101  223 1    
   202  101  224 1    
   203  102  103 2    
   204  102  104 am   BACKBONE|DICT|INTERRES
   205  104  105 1    
   206  104  225 1    
   207  105  106 1    
   208  105  107 1    
   209  105  226 1    
   210  106  227 1    
   211  106  228 1    
   212  106  229 1    
   213  107  108 2    
   214  107  109 am   BACKBONE|DICT|INTERRES
   215  109  110 1    
   216  109  230 1    
   217  110  111 1    
   218  110  112 1    
   219  110  231 1    
   220  111  232 1    
   221  111  233 1    
   222  111  234 1    
   223  112  113 2    
   224  112  114 am   BACKBONE|DICT|INTERRES
   225  114  115 1    
   226  114  235 1    
   227  115  116 1    
   228  115  117 1    
   229  115  236 1    
   230  116  237 1    
   231  116  238 1    
   232  116  239 1    
   233  117  118 2    
   234  117  119 am   BACKBONE|DICT|INTERRES
   235  119  120 1    
   236  119  240 1    
   237  120  121 1    
   238  120  124 1    
   239  120  241 1    
   240  121  122 am   BACKBONE|DICT|INTERRES
   241  121  123 2    
   242  122  242 1    
   243  122  243 1    
   244  124  125 1    
   245  124  244 1    
   246  124  245 1    
   247  125  126 1    
   248  126  246 1    
   249  126  247 1    
@<TRIPOS>SUBSTRUCTURE
     1 UNK         1 GROUP             0       ****    0 ROOT    
