@<TRIPOS>MOLECULE
3R540
247   249    1
SMALL
USER_CHARGES


@<TRIPOS>ATOM
      1 CA          0.9907  -15.5842  -47.6278 C.3       0 UNK        -0.1800 
      2 C           0.4927  -14.3826  -48.4163 C.2       0 UNK         0.5000 
      3 O          -0.4794  -13.7433  -48.0167 O.2       0 UNK        -0.5000 
      4 N           1.1595  -14.0756  -49.5361 N.am      1 UNK        -0.5000 
      5 CA          0.8065  -12.9853  -50.4582 C.3       1 UNK         0.1400 
      6 C6          1.5252  -13.1232  -51.8230 C.3       23 UNK        -0.0398 
      7 S7          1.1194  -14.6922  -52.6596 S.3       23 UNK        -0.2404 
      8 C8          2.6348  -15.6751  -52.4205 C.3       23 UNK        -0.0205 
      9 C9          2.3214  -17.1303  -52.0987 C.ar      23 UNK        -0.0193 
     10 C10         1.5854  -17.9107  -52.9967 C.ar      23 UNK        -0.1150 
     11 C11         1.3109  -19.2517  -52.7154 C.ar      23 UNK        -0.0193 
     12 C12         1.7969  -19.8187  -51.5347 C.ar      23 UNK        -0.1150 
     13 C13         2.5258  -19.0498  -50.6241 C.ar      23 UNK        -0.0193 
     14 C14         2.7854  -17.7063  -50.9112 C.ar      23 UNK        -0.1150 
     15 C15         3.0450  -19.6772  -49.3388 C.3       23 UNK        -0.0205 
     16 S16         2.0817  -19.1715  -47.8791 S.3       23 UNK        -0.2404 
     17 C17         0.4679  -19.9667  -48.1812 C.3       23 UNK        -0.0398 
     18 CA          0.3715  -21.3868  -47.5736 C.3       11 UNK         0.1400 
     19 N           0.4421  -21.3945  -46.1074 N.am      11 UNK        -0.5000 
     20 C           0.5077  -22.5002  -45.3507 C.2       10 UNK         0.5000 
     21 O           0.5788  -23.6386  -45.8123 O.2       10 UNK        -0.5000 
     22 CA          0.4196  -22.3165  -43.8241 C.3       10 UNK         0.1400 
     23 CB          1.7792  -21.9245  -43.2265 C.3       10 UNK        -0.1800 
     24 N          -0.6040  -21.3438  -43.4384 N.am      10 UNK        -0.5000 
     25 C          -1.9188  -21.5274  -43.6281 C.2       9 UNK         0.5000 
     26 O          -2.4003  -22.5617  -44.0893 O.2       9 UNK        -0.5000 
     27 CA         -2.8525  -20.3504  -43.2893 C.3       9 UNK         0.1400 
     28 CB         -3.1931  -20.3395  -41.7920 C.3       9 UNK        -0.1800 
     29 N          -2.3020  -19.0527  -43.6816 N.am      9 UNK        -0.5000 
     30 C          -2.0213  -18.6952  -44.9429 C.2       8 UNK         0.5000 
     31 O          -2.2490  -19.4066  -45.9209 O.2       8 UNK        -0.5000 
     32 CA         -1.2979  -17.3500  -45.1408 C.3       8 UNK         0.1400 
     33 CB         -2.2792  -16.1711  -45.0832 C.3       8 UNK        -0.1800 
     34 N          -0.2200  -17.1429  -44.1724 N.am      8 UNK        -0.5000 
     35 C           0.8443  -17.9474  -44.0411 C.2       7 UNK         0.5000 
     36 O           1.0517  -18.9239  -44.7567 O.2       7 UNK        -0.5000 
     37 CA          1.7978  -17.6570  -42.8723 C.3       7 UNK         0.1400 
     38 CB          2.7762  -16.5266  -43.2197 C.3       7 UNK        -0.1800 
     39 N           1.0592  -17.3232  -41.6558 N.am      7 UNK        -0.5000 
     40 C           0.3716  -18.2142  -40.9277 C.2       6 UNK         0.5000 
     41 O           0.3399  -19.4194  -41.1770 O.2       6 UNK        -0.5000 
     42 CA         -0.4447  -17.6596  -39.7447 C.3       6 UNK         0.1400 
     43 CB          0.4368  -17.5292  -38.4937 C.3       6 UNK        -0.1800 
     44 N          -1.0604  -16.3640  -40.0395 N.am      6 UNK        -0.5000 
     45 C          -2.0398  -16.1787  -40.9359 C.2       5 UNK         0.5000 
     46 O          -2.5575  -17.0917  -41.5770 O.2       5 UNK        -0.5000 
     47 CA         -2.4822  -14.7252  -41.1968 C.3       5 UNK         0.1400 
     48 CB         -3.5985  -14.3207  -40.2227 C.3       5 UNK        -0.1800 
     49 N          -1.3912  -13.7479  -41.1180 N.am      5 UNK        -0.5000 
     50 C          -0.2835  -13.7700  -41.8715 C.2       4 UNK         0.5000 
     51 O          -0.0416  -14.6518  -42.6987 O.2       4 UNK        -0.5000 
     52 CA          0.7456  -12.6562  -41.5955 C.3       4 UNK         0.1400 
     53 CB          1.4891  -12.9405  -40.2796 C.3       4 UNK        -0.1800 
     54 N           1.7405  -12.5078  -42.6595 N.am      4 UNK        -0.5000 
     55 C           1.4897  -12.1119  -43.9135 C.2       3 UNK         0.5000 
     56 O           0.3716  -11.7899  -44.3261 O.2       3 UNK        -0.5000 
     57 CA          2.7079  -12.0452  -44.8497 C.3       3 UNK         0.1400 
     58 CB          3.3438  -13.4294  -45.0715 C.3       3 UNK        -0.1800 
     59 N           2.3111  -11.4943  -46.1414 N.am      3 UNK        -0.5000 
     60 C           3.0571  -10.6775  -46.8963 C.2       2 UNK         0.5000 
     61 O           4.1885  -10.2914  -46.5828 O.2       2 UNK        -0.5000 
     62 CA          2.4439  -10.2781  -48.2475 C.3       2 UNK         0.1400 
     63 CB          3.3921   -9.4419  -49.1305 C.3       2 UNK        -0.1800 
     64 N           2.0441  -11.4942  -48.9498 N.am      2 UNK        -0.5000 
     65 C           1.0689  -11.5863  -49.8603 C.2       1 UNK         0.5000 
     66 O           0.3899  -10.6288  -50.2339 O.2       1 UNK        -0.5000 
     67 C          -0.8922  -22.1058  -48.0875 C.2       11 UNK         0.5000 
     68 O          -0.7871  -22.9343  -48.9915 O.2       11 UNK        -0.5000 
     69 N          -2.0496  -21.8124  -47.4767 N.am      12 UNK        -0.5000 
     70 CA         -3.3300  -22.4646  -47.7553 C.3       12 UNK         0.1400 
     71 CB         -4.4388  -21.7949  -46.9294 C.3       12 UNK        -0.1800 
     72 C          -3.2966  -23.9806  -47.4915 C.2       12 UNK         0.5000 
     73 O          -3.7388  -24.7554  -48.3400 O.2       12 UNK        -0.5000 
     74 N          -2.7349  -24.3792  -46.3414 N.am      13 UNK        -0.5000 
     75 CA         -2.5491  -25.7763  -45.9481 C.3       13 UNK         0.1400 
     76 CB         -2.0603  -25.8423  -44.4935 C.3       13 UNK        -0.1800 
     77 C          -1.5941  -26.5438  -46.8806 C.2       13 UNK         0.5000 
     78 O          -1.8793  -27.6923  -47.2205 O.2       13 UNK        -0.5000 
     79 N          -0.4973  -25.8936  -47.2949 N.am      14 UNK        -0.5000 
     80 CA          0.4807  -26.4326  -48.2407 C.3       14 UNK         0.1400 
     81 CB          1.7242  -25.5305  -48.2676 C.3       14 UNK        -0.1800 
     82 C          -0.0967  -26.6081  -49.6569 C.2       14 UNK         0.5000 
     83 O           0.1592  -27.6310  -50.2936 O.2       14 UNK        -0.5000 
     84 N          -0.8734  -25.6183  -50.1175 N.am      15 UNK        -0.5000 
     85 CA         -1.5587  -25.6393  -51.4101 C.3       15 UNK         0.1400 
     86 CB         -2.0258  -24.2166  -51.7518 C.3       15 UNK        -0.1800 
     87 C          -2.7571  -26.6056  -51.4499 C.2       15 UNK         0.5000 
     88 O          -3.0875  -27.1061  -52.5253 O.2       15 UNK        -0.5000 
     89 N          -3.3950  -26.8167  -50.2884 N.am      16 UNK        -0.5000 
     90 CA         -4.6843  -27.4858  -50.0858 C.3       16 UNK         0.1400 
     91 CB         -4.6051  -28.9838  -50.4462 C.3       16 UNK        -0.1800 
     92 C          -5.8175  -26.7301  -50.8124 C.2       16 UNK         0.5000 
     93 O          -6.6431  -27.3379  -51.4969 O.2       16 UNK        -0.5000 
     94 N          -5.8012  -25.4001  -50.6728 N.am      17 UNK        -0.5000 
     95 CA         -6.6509  -24.4427  -51.3739 C.3       17 UNK         0.1400 
     96 CB         -6.1441  -24.2729  -52.8206 C.3       17 UNK        -0.1800 
     97 C          -6.6439  -23.1131  -50.6000 C.2       17 UNK         0.5000 
     98 O          -6.1142  -23.0555  -49.4895 O.2       17 UNK        -0.5000 
     99 N          -7.2306  -22.0620  -51.1856 N.am      18 UNK        -0.5000 
    100 CA        -7.2022  -20.7005  -50.6472 C.3       18 UNK         0.1400 
    101 CB        -8.1613  -19.8216  -51.4642 C.3       18 UNK        -0.1800 
    102 C         -5.7806  -20.1057  -50.6688 C.2       18 UNK         0.5000 
    103 O         -5.0313  -20.3547  -51.6168 O.2       18 UNK        -0.5000 
    104 N         -5.4509  -19.3098  -49.6426 N.am      19 UNK        -0.5000 
    105 CA        -4.1703  -18.6128  -49.4980 C.3       19 UNK         0.1400 
    106 CB        -4.1609  -17.8426  -48.1686 C.3       19 UNK        -0.1800 
    107 C         -3.9065  -17.6345  -50.6561 C.2       19 UNK         0.5000 
    108 O         -4.8463  -16.9949  -51.1355 O.2       19 UNK        -0.5000 
    109 N         -2.6377  -17.5368  -51.0746 N.am      20 UNK        -0.5000 
    110 CA        -2.0894  -16.6961  -52.1497 C.3       20 UNK         0.1400 
    111 CB        -2.3405  -15.2000  -51.8753 C.3       20 UNK        -0.1800 
    112 C         -2.5432  -17.0883  -53.5719 C.2       20 UNK         0.5000 
    113 O         -1.7226  -17.0765  -54.4898 O.2       20 UNK        -0.5000 
    114 N         -3.8259  -17.4362  -53.7334 N.am      21 UNK        -0.5000 
    115 CA        -4.4172  -17.9607  -54.9621 C.3       21 UNK         0.1400 
    116 CB        -5.9481  -17.9637  -54.8280 C.3       21 UNK        -0.1800 
    117 C         -3.8869  -19.3673  -55.2878 C.2       21 UNK         0.5000 
    118 O         -3.4368  -19.6023  -56.4097 O.2       21 UNK        -0.5000 
    119 N         -3.9236  -20.2568  -54.2857 N.am      22 UNK        -0.5000 
    120 CA        -3.3356  -21.6067  -54.2913 C.3       22 UNK         0.1400 
    121 C         -3.9559  -22.6025  -55.3194 C.2       22 UNK         0.5000 
    122 N         -5.1589  -22.3612  -55.8262 N.am      22 UNK        -0.7600 
    123 O         -3.3586  -23.6260  -55.6404 O.2       22 UNK        -0.5000 
    124 C124       -1.7832  -21.5756  -54.3368 C.3       23 UNK        -0.0398 
    125 S125       -1.0766  -20.6208  -52.9502 S.3       23 UNK        -0.2404 
    126 C126        0.4993  -20.0933  -53.6867 C.3       23 UNK        -0.0205 
    127 H127        2.0550  -15.7560  -47.7880 H         1 UNK         0.0600 
    128 H128        0.4506  -16.4786  -47.9362 H         1 UNK         0.0600 
    129 H129        0.8289  -15.4360  -46.5600 H         1 UNK         0.0600 
    130 H130        1.9321  -14.6572  -49.8236 H         1 UNK         0.3000 
    131 H131       -0.2682  -13.0477  -50.6413 H         1 UNK         0.0600 
    132 H132        1.2191  -12.3165  -52.4918 H         1 UNK         0.0800 
    133 H133        2.6060  -13.0237  -51.7112 H         1 UNK         0.0800 
    134 H134        3.2472  -15.2400  -51.6302 H         1 UNK         0.0800 
    135 H135        3.2339  -15.6299  -53.3307 H         1 UNK         0.0800 
    136 H136        1.2188  -17.4673  -53.9123 H         1 UNK         0.1150 
    137 H137        1.5912  -20.8584  -51.3203 H         1 UNK         0.1150 
    138 H138        3.3555  -17.1153  -50.2083 H         1 UNK         0.1150 
    139 H139        3.0470  -20.7659  -49.4109 H         1 UNK         0.0800 
    140 H140        4.0846  -19.3817  -49.1912 H         1 UNK         0.0800 
    141 H141        0.2782  -19.9893  -49.2544 H         1 UNK         0.0800 
    142 H142       -0.3043  -19.3218  -47.7608 H         1 UNK         0.0800 
    143 H143        1.2263  -21.9618  -47.9358 H         1 UNK         0.0600 
    144 H144        0.4567  -20.4869  -45.6478 H         1 UNK         0.3000 
    145 H145        0.1362  -23.2792  -43.3934 H         1 UNK         0.0600 
    146 H146        1.7195  -21.8251  -42.1426 H         1 UNK         0.0600 
    147 H147        2.5303  -22.6849  -43.4434 H         1 UNK         0.0600 
    148 H148        2.1469  -20.9815  -43.6287 H         1 UNK         0.0600 
    149 H149       -0.2815  -20.4755  -43.0291 H         1 UNK         0.3000 
    150 H150       -3.7811  -20.4948  -43.8445 H         1 UNK         0.0600 
    151 H151       -3.6201  -21.2939  -41.4815 H         1 UNK         0.0600 
    152 H152       -3.9247  -19.5653  -41.5604 H         1 UNK         0.0600 
    153 H153       -2.3100  -20.1591  -41.1789 H         1 UNK         0.0600 
    154 H154       -2.1407  -18.3832  -42.9342 H         1 UNK         0.3000 
    155 H155       -0.8483  -17.3678  -46.1343 H         1 UNK         0.0600 
    156 H156       -2.7716  -16.1050  -44.1141 H         1 UNK         0.0600 
    157 H157       -1.7693  -15.2248  -45.2671 H         1 UNK         0.0600 
    158 H158       -3.0594  -16.2726  -45.8373 H         1 UNK         0.0600 
    159 H159       -0.2919  -16.3309  -43.5649 H         1 UNK         0.3000 
    160 H160        2.3825  -18.5602  -42.6846 H         1 UNK         0.0600 
    161 H161        2.2561  -15.5891  -43.4088 H         1 UNK         0.0600 
    162 H162        3.3491  -16.7691  -44.1157 H         1 UNK         0.0600 
    163 H163        3.4885  -16.3582  -42.4120 H         1 UNK         0.0600 
    164 H164        0.9716  -16.3418  -41.4355 H         1 UNK         0.3000 
    165 H165       -1.2421  -18.3737  -39.5279 H         1 UNK         0.0600 
    166 H166       -0.1484  -17.2120  -37.6305 H         1 UNK         0.0600 
    167 H167        0.8967  -18.4852  -38.2396 H         1 UNK         0.0600 
    168 H168        1.2406  -16.8064  -38.6394 H         1 UNK         0.0600 
    169 H169       -0.6927  -15.5596  -39.5537 H         1 UNK         0.3000 
    170 H170       -2.8856  -14.6819  -42.2098 H         1 UNK         0.0600 
    171 H171       -4.4346  -15.0194  -40.2754 H         1 UNK         0.0600 
    172 H172       -3.2472  -14.3063  -39.1902 H         1 UNK         0.0600 
    173 H173       -3.9895  -13.3310  -40.4592 H         1 UNK         0.0600 
    174 H174       -1.5104  -13.0007  -40.4492 H         1 UNK         0.3000 
    175 H175        0.2074  -11.7108  -41.5022 H         1 UNK         0.0600 
    176 H176        2.0435  -13.8790  -40.3255 H         1 UNK         0.0600 
    177 H177        2.1971  -12.1447  -40.0470 H         1 UNK         0.0600 
    178 H178        0.7982  -13.0086  -39.4385 H         1 UNK         0.0600 
    179 H179        2.6850  -12.7660  -42.4162 H         1 UNK         0.3000 
    180 H180        3.4398  -11.3865  -44.3775 H         1 UNK         0.0600 
    181 H181        3.7546  -13.8284  -44.1442 H         1 UNK         0.0600 
    182 H182        4.1656  -13.3769  -45.7854 H         1 UNK         0.0600 
    183 H183        2.6177  -14.1481  -45.4512 H         1 UNK         0.0600 
    184 H184        1.3614  -11.7136  -46.4233 H         1 UNK         0.3000 
    185 H185        1.5575   -9.6797  -48.0262 H         1 UNK         0.0600 
    186 H186        3.7007   -8.5295  -48.6187 H         1 UNK         0.0600 
    187 H187        4.2940   -9.9984  -49.3886 H         1 UNK         0.0600 
    188 H188        2.9070   -9.1418  -50.0595 H         1 UNK         0.0600 
    189 H189        2.5320  -12.3367  -48.6785 H         1 UNK         0.3000 
    190 H190       -2.0573  -21.0850  -46.7656 H         1 UNK         0.3000 
    191 H191       -3.5540  -22.3163  -48.8137 H         1 UNK         0.0600 
    192 H192       -4.2260  -21.8262  -45.8622 H         1 UNK         0.0600 
    193 H193       -5.3986  -22.2886  -47.0818 H         1 UNK         0.0600 
    194 H194       -4.5636  -20.7531  -47.2147 H         1 UNK         0.0600 
    195 H195       -2.4339  -23.6755  -45.6727 H         1 UNK         0.3000 
    196 H196       -3.5239  -26.2656  -45.9995 H         1 UNK         0.0600 
    197 H197       -1.9311  -26.8759  -44.1705 H         1 UNK         0.0600 
    198 H198       -2.7764  -25.3768  -43.8161 H         1 UNK         0.0600 
    199 H199       -1.1032  -25.3357  -44.3671 H         1 UNK         0.0600 
    200 H200       -0.3043  -24.9690  -46.9195 H         1 UNK         0.3000 
    201 H201        0.7861  -27.4177  -47.8821 H         1 UNK         0.0600 
    202 H202        2.1887  -25.4715  -47.2831 H         1 UNK         0.0600 
    203 H203        1.4795  -24.5156  -48.5823 H         1 UNK         0.0600 
    204 H204        2.4739  -25.9179  -48.9585 H         1 UNK         0.0600 
    205 H205       -0.9834  -24.7765  -49.5579 H         1 UNK         0.3000 
    206 H206       -0.8462  -25.9579  -52.1739 H         1 UNK         0.0600 
    207 H207       -1.1839  -23.5259  -51.7973 H         1 UNK         0.0600 
    208 H208       -2.5211  -24.1956  -52.7228 H         1 UNK         0.0600 
    209 H209       -2.7321  -23.8342  -51.0132 H         1 UNK         0.0600 
    210 H210       -3.0702  -26.2872  -49.4864 H         1 UNK         0.3000 
    211 H211       -4.9002  -27.4143  -49.0188 H         1 UNK         0.0600 
    212 H212       -4.4552  -29.1410  -51.5144 H         1 UNK         0.0600 
    213 H213       -5.5254  -29.4984  -50.1679 H         1 UNK         0.0600 
    214 H214       -3.7868  -29.4718  -49.9165 H         1 UNK         0.0600 
    215 H215       -5.1509  -24.9801  -50.0140 H         1 UNK         0.3000 
    216 H216       -7.6772  -24.8146  -51.3849 H         1 UNK         0.0600 
    217 H217       -6.7693  -23.5877  -53.3931 H         1 UNK         0.0600 
    218 H218       -6.1429  -25.2217  -53.3572 H         1 UNK         0.0600 
    219 H219       -5.1256  -23.8857  -52.8358 H         1 UNK         0.0600 
    220 H220       -7.6279  -22.1719  -52.1063 H         1 UNK         0.3000 
    221 H221       -7.5545  -20.7344  -49.6140 H         1 UNK         0.0600 
    222 H222       -7.8777  -19.7874  -52.5166 H         1 UNK         0.0600 
    223 H223       -9.1846  -20.1926  -51.4042 H         1 UNK         0.0600 
    224 H224       -8.1655  -18.7959  -51.0927 H         1 UNK         0.0600 
    225 H225       -6.1400  -19.1236  -48.9295 H         1 UNK         0.3000 
    226 H226       -3.3817  -19.3683  -49.4757 H         1 UNK         0.0600 
    227 H227       -3.1847  -17.3882  -47.9953 H         1 UNK         0.0600 
    228 H228       -4.9016  -17.0418  -48.1618 H         1 UNK         0.0600 
    229 H229       -4.3696  -18.4918  -47.3201 H         1 UNK         0.0600 
    230 H230       -1.9557  -18.1412  -50.6395 H         1 UNK         0.3000 
    231 H231       -1.0109  -16.8560  -52.1173 H         1 UNK         0.0600 
    232 H232       -1.8638  -14.5800  -52.6348 H         1 UNK         0.0600 
    233 H233       -1.9316  -14.9050  -50.9090 H         1 UNK         0.0600 
    234 H234       -3.4014  -14.9507  -51.8825 H         1 UNK         0.0600 
    235 H235       -4.4249  -17.3831  -52.9140 H         1 UNK         0.3000 
    236 H236       -4.1453  -17.2960  -55.7847 H         1 UNK         0.0600 
    237 H237       -6.3309  -16.9543  -54.6767 H         1 UNK         0.0600 
    238 H238       -6.4190  -18.3588  -55.7290 H         1 UNK         0.0600 
    239 H239       -6.2785  -18.5745  -53.9871 H         1 UNK         0.0600 
    240 H240       -4.3254  -19.9852  -53.3931 H         1 UNK         0.3000 
    241 H241       -3.6090  -22.0280  -53.3240 H         1 UNK         0.0600 
    242 H242       -5.6600  -21.5244  -55.5766 H         1 UNK         0.3800 
    243 H243       -5.5590  -23.0109  -56.4842 H         1 UNK         0.3800 
    244 H244       -1.3696  -22.5835  -54.2838 H         1 UNK         0.0800 
    245 H245       -1.4432  -21.1558  -55.2845 H         1 UNK         0.0800 
    246 H246        0.2953  -19.5340  -54.6014 H         1 UNK         0.0800 
    247 H247        1.0788  -20.9712  -53.9755 H         1 UNK         0.0800 
@<TRIPOS>BOND
     1    1    2 1    
     2    1  127 1    
     3    1  128 1    
     4    1  129 1    
     5    2    3 2    
     6    2    4 am   BACKBONE|DICT|INTERRES
     7    4    5 1    
     8    4  130 1    
     9    5    6 1    
    10    5   65 1    
    11    5  131 1    
    12    6    7 1    
    13    6  132 1    
    14    6  133 1    
    15    7    8 1    
    16    8    9 1    
    17    8  134 1    
    18    8  135 1    
    19    9   10 ar   
    20    9   14 ar   
    21   10   11 ar   
    22   10  136 1    
    23   11   12 ar   
    24   11  126 1    
    25   12   13 ar   
    26   12  137 1    
    27   13   14 ar   
    28   13   15 1    
    29   14  138 1    
    30   15   16 1    
    31   15  139 1    
    32   15  140 1    
    33   16   17 1    
    34   17   18 1    
    35   17  141 1    
    36   17  142 1    
    37   18   19 1    
    38   18   67 1    
    39   18  143 1    
    40   19   20 am   BACKBONE|DICT|INTERRES
    41   19  144 1    
    42   20   21 2    
    43   20   22 1    
    44   22   23 1    
    45   22   24 1    
    46   22  145 1    
    47   23  146 1    
    48   23  147 1    
    49   23  148 1    
    50   24   25 am   BACKBONE|DICT|INTERRES
    51   24  149 1    
    52   25   26 2    
    53   25   27 1    
    54   27   28 1    
    55   27   29 1    
    56   27  150 1    
    57   28  151 1    
    58   28  152 1    
    59   28  153 1    
    60   29   30 am   BACKBONE|DICT|INTERRES
    61   29  154 1    
    62   30   31 2    
    63   30   32 1    
    64   32   33 1    
    65   32   34 1    
    66   32  155 1    
    67   33  156 1    
    68   33  157 1    
    69   33  158 1    
    70   34   35 am   BACKBONE|DICT|INTERRES
    71   34  159 1    
    72   35   36 2    
    73   35   37 1    
    74   37   38 1    
    75   37   39 1    
    76   37  160 1    
    77   38  161 1    
    78   38  162 1    
    79   38  163 1    
    80   39   40 am   BACKBONE|DICT|INTERRES
    81   39  164 1    
    82   40   41 2    
    83   40   42 1    
    84   42   43 1    
    85   42   44 1    
    86   42  165 1    
    87   43  166 1    
    88   43  167 1    
    89   43  168 1    
    90   44   45 am   BACKBONE|DICT|INTERRES
    91   44  169 1    
    92   45   46 2    
    93   45   47 1    
    94   47   48 1    
    95   47   49 1    
    96   47  170 1    
    97   48  171 1    
    98   48  172 1    
    99   48  173 1    
   100   49   50 am   BACKBONE|DICT|INTERRES
   101   49  174 1    
   102   50   51 2    
   103   50   52 1    
   104   52   53 1    
   105   52   54 1    
   106   52  175 1    
   107   53  176 1    
   108   53  177 1    
   109   53  178 1    
   110   54   55 am   BACKBONE|DICT|INTERRES
   111   54  179 1    
   112   55   56 2    
   113   55   57 1    
   114   57   58 1    
   115   57   59 1    
   116   57  180 1    
   117   58  181 1    
   118   58  182 1    
   119   58  183 1    
   120   59   60 am   BACKBONE|DICT|INTERRES
   121   59  184 1    
   122   60   61 2    
   123   60   62 1    
   124   62   63 1    
   125   62   64 1    
   126   62  185 1    
   127   63  186 1    
   128   63  187 1    
   129   63  188 1    
   130   64   65 am   BACKBONE|DICT|INTERRES
   131   64  189 1    
   132   65   66 2    
   133   67   68 2    
   134   67   69 am   BACKBONE|DICT|INTERRES
   135   69   70 1    
   136   69  190 1    
   137   70   71 1    
   138   70   72 1    
   139   70  191 1    
   140   71  192 1    
   141   71  193 1    
   142   71  194 1    
   143   72   73 2    
   144   72   74 am   BACKBONE|DICT|INTERRES
   145   74   75 1    
   146   74  195 1    
   147   75   76 1    
   148   75   77 1    
   149   75  196 1    
   150   76  197 1    
   151   76  198 1    
   152   76  199 1    
   153   77   78 2    
   154   77   79 am   BACKBONE|DICT|INTERRES
   155   79   80 1    
   156   79  200 1    
   157   80   81 1    
   158   80   82 1    
   159   80  201 1    
   160   81  202 1    
   161   81  203 1    
   162   81  204 1    
   163   82   83 2    
   164   82   84 am   BACKBONE|DICT|INTERRES
   165   84   85 1    
   166   84  205 1    
   167   85   86 1    
   168   85   87 1    
   169   85  206 1    
   170   86  207 1    
   171   86  208 1    
   172   86  209 1    
   173   87   88 2    
   174   87   89 am   BACKBONE|DICT|INTERRES
   175   89   90 1    
   176   89  210 1    
   177   90   91 1    
   178   90   92 1    
   179   90  211 1    
   180   91  212 1    
   181   91  213 1    
   182   91  214 1    
   183   92   93 2    
   184   92   94 am   BACKBONE|DICT|INTERRES
   185   94   95 1    
   186   94  215 1    
   187   95   96 1    
   188   95   97 1    
   189   95  216 1    
   190   96  217 1    
   191   96  218 1    
   192   96  219 1    
   193   97   98 2    
   194   97   99 am   BACKBONE|DICT|INTERRES
   195   99  100 1    
   196   99  220 1    
   197  100  101 1    
   198  100  102 1    
   199  100  221 1    
   200  101  222 1    
   201  101  223 1    
   202  101  224 1    
   203  102  103 2    
   204  102  104 am   BACKBONE|DICT|INTERRES
   205  104  105 1    
   206  104  225 1    
   207  105  106 1    
   208  105  107 1    
   209  105  226 1    
   210  106  227 1    
   211  106  228 1    
   212  106  229 1    
   213  107  108 2    
   214  107  109 am   BACKBONE|DICT|INTERRES
   215  109  110 1    
   216  109  230 1    
   217  110  111 1    
   218  110  112 1    
   219  110  231 1    
   220  111  232 1    
   221  111  233 1    
   222  111  234 1    
   223  112  113 2    
   224  112  114 am   BACKBONE|DICT|INTERRES
   225  114  115 1    
   226  114  235 1    
   227  115  116 1    
   228  115  117 1    
   229  115  236 1    
   230  116  237 1    
   231  116  238 1    
   232  116  239 1    
   233  117  118 2    
   234  117  119 am   BACKBONE|DICT|INTERRES
   235  119  120 1    
   236  119  240 1    
   237  120  121 1    
   238  120  124 1    
   239  120  241 1    
   240  121  122 am   BACKBONE|DICT|INTERRES
   241  121  123 2    
   242  122  242 1    
   243  122  243 1    
   244  124  125 1    
   245  124  244 1    
   246  124  245 1    
   247  125  126 1    
   248  126  246 1    
   249  126  247 1    
@<TRIPOS>SUBSTRUCTURE
     1 UNK         1 GROUP             0       ****    0 ROOT    
