@<TRIPOS>MOLECULE
3R540
247   249    1
SMALL
USER_CHARGES


@<TRIPOS>ATOM
      1 CA         -0.2737   -9.2838  -46.9820 C.3       0 UNK        -0.1800 
      2 C           0.8843   -9.8207  -47.8112 C.2       0 UNK         0.5000 
      3 O           2.0415   -9.5321  -47.5075 O.2       0 UNK        -0.5000 
      4 N           0.5771  -10.5996  -48.8558 N.am      1 UNK        -0.5000 
      5 CA          1.5551  -11.2327  -49.7511 C.3       1 UNK         0.1400 
      6 C6          0.9492  -11.4968  -51.1539 C.3       23 UNK        -0.0398 
      7 S7         -0.4764  -12.6433  -51.1453 S.3       23 UNK        -0.2404 
      8 C8          0.1931  -14.0431  -52.0963 C.3       23 UNK        -0.0205 
      9 C9         -0.5528  -15.3269  -51.7746 C.ar      23 UNK        -0.0193 
     10 C10        -1.7859  -15.6039  -52.3732 C.ar      23 UNK        -0.1150 
     11 C11        -2.4835  -16.7732  -52.0530 C.ar      23 UNK        -0.0193 
     12 C12        -1.9324  -17.6711  -51.1338 C.ar      23 UNK        -0.1150 
     13 C13        -0.6942  -17.4090  -50.5383 C.ar      23 UNK        -0.0193 
     14 C14        -0.0096  -16.2363  -50.8642 C.ar      23 UNK        -0.1150 
     15 C15        -0.0975  -18.3785  -49.5291 C.3       23 UNK        -0.0205 
     16 S16        -0.1077  -17.7104  -47.8389 S.3       23 UNK        -0.2404 
     17 C17        -1.8854  -17.4025  -47.5713 C.3       23 UNK        -0.0398 
     18 CA         -2.7491  -18.6839  -47.4945 C.3       11 UNK         0.1400 
     19 N          -2.3076  -19.6244  -46.4512 N.am      11 UNK        -0.5000 
     20 C          -2.8260  -20.8452  -46.2359 C.2       10 UNK         0.5000 
     21 O          -3.7851  -21.3002  -46.8577 O.2       10 UNK        -0.5000 
     22 CA         -2.2087  -21.6853  -45.1085 C.3       10 UNK         0.1400 
     23 CB         -0.9036  -22.3475  -45.5752 C.3       10 UNK        -0.1800 
     24 N          -1.9641  -20.8673  -43.9223 N.am      10 UNK        -0.5000 
     25 C          -2.8671  -20.6504  -42.9552 C.2       9 UNK         0.5000 
     26 O          -3.9682  -21.2003  -42.9150 O.2       9 UNK        -0.5000 
     27 CA         -2.4959  -19.6359  -41.8522 C.3       9 UNK         0.1400 
     28 CB         -1.8051  -20.3469  -40.6788 C.3       9 UNK        -0.1800 
     29 N          -1.6361  -18.5456  -42.3126 N.am      9 UNK        -0.5000 
     30 C          -1.9468  -17.6668  -43.2754 C.2       8 UNK         0.5000 
     31 O          -3.0338  -17.6317  -43.8523 O.2       8 UNK        -0.5000 
     32 CA         -0.8257  -16.7060  -43.7119 C.3       8 UNK         0.1400 
     33 CB         -0.8651  -15.4242  -42.8708 C.3       8 UNK        -0.1800 
     34 N           0.5189  -17.2932  -43.6714 N.am      8 UNK        -0.5000 
     35 C           0.8914  -18.4211  -44.2986 C.2       7 UNK         0.5000 
     36 O           0.1162  -19.1490  -44.9160 O.2       7 UNK        -0.5000 
     37 CA          2.3678  -18.8233  -44.1988 C.3       7 UNK         0.1400 
     38 CB          3.2096  -18.0152  -45.1916 C.3       7 UNK        -0.1800 
     39 N           2.8737  -18.6276  -42.8437 N.am      7 UNK        -0.5000 
     40 C           2.6923  -19.5070  -41.8489 C.2       6 UNK         0.5000 
     41 O           2.1646  -20.6099  -41.9953 O.2       6 UNK        -0.5000 
     42 CA          3.1526  -19.0709  -40.4460 C.3       6 UNK         0.1400 
     43 CB          4.6409  -19.3915  -40.2408 C.3       6 UNK        -0.1800 
     44 N           2.9271  -17.6489  -40.1862 N.am      6 UNK        -0.5000 
     45 C           1.7249  -17.0582  -40.1373 C.2       5 UNK         0.5000 
     46 O           0.6569  -17.6537  -40.2889 O.2       5 UNK        -0.5000 
     47 CA          1.7216  -15.5347  -39.9107 C.3       5 UNK         0.1400 
     48 CB          1.6884  -15.2197  -38.4077 C.3       5 UNK        -0.1800 
     49 N           2.8495  -14.8256  -40.5246 N.am      5 UNK        -0.5000 
     50 C           3.1707  -14.8311  -41.8267 C.2       4 UNK         0.5000 
     51 O           2.5767  -15.5085  -42.6703 O.2       4 UNK        -0.5000 
     52 CA          4.3259  -13.8924  -42.2381 C.3       4 UNK         0.1400 
     53 CB          5.5559  -14.0220  -41.3119 C.3       4 UNK        -0.1800 
     54 N           4.7121  -14.0293  -43.6464 N.am      4 UNK        -0.5000 
     55 C           5.3011  -15.0730  -44.2445 C.2       3 UNK         0.5000 
     56 O           5.6376  -16.1055  -43.6612 O.2       3 UNK        -0.5000 
     57 CA          5.5239  -14.9295  -45.7662 C.3       3 UNK         0.1400 
     58 CB          6.4392  -16.0262  -46.3399 C.3       3 UNK        -0.1800 
     59 N           4.2564  -14.9431  -46.4993 N.am      3 UNK        -0.5000 
     60 C           3.3975  -13.9205  -46.5826 C.2       2 UNK         0.5000 
     61 O           3.5985  -12.8167  -46.0686 O.2       2 UNK        -0.5000 
     62 CA          2.0726  -14.1985  -47.3172 C.3       2 UNK         0.1400 
     63 CB          0.9879  -14.6062  -46.3082 C.3       2 UNK        -0.1800 
     64 N           1.6015  -13.0330  -48.0622 N.am      2 UNK        -0.5000 
     65 C           2.1955  -12.5041  -49.1419 C.2       1 UNK         0.5000 
     66 O           3.2012  -12.9840  -49.6676 O.2       1 UNK        -0.5000 
     67 C          -4.2365  -18.2931  -47.3907 C.2       11 UNK         0.5000 
     68 O          -4.8515  -17.9916  -48.4135 O.2       11 UNK        -0.5000 
     69 N          -4.7946  -18.3406  -46.1727 N.am      12 UNK        -0.5000 
     70 CA         -6.2231  -18.2002  -45.8893 C.3       12 UNK         0.1400 
     71 CB         -6.4306  -18.2395  -44.3675 C.3       12 UNK        -0.1800 
     72 C          -7.1007  -19.2660  -46.5812 C.2       12 UNK         0.5000 
     73 O          -8.2711  -18.9926  -46.8511 O.2       12 UNK        -0.5000 
     74 N          -6.5253  -20.4426  -46.8658 N.am      13 UNK        -0.5000 
     75 CA         -7.1370  -21.4974  -47.6638 C.3       13 UNK         0.1400 
     76 CB         -6.8155  -22.8703  -47.0488 C.3       13 UNK        -0.1800 
     77 C          -6.6574  -21.4093  -49.1215 C.2       13 UNK         0.5000 
     78 O          -7.4946  -21.2683  -50.0154 O.2       13 UNK        -0.5000 
     79 N          -5.3368  -21.5020  -49.3445 N.am      14 UNK        -0.5000 
     80 CA         -4.7334  -21.5754  -50.6755 C.3       14 UNK         0.1400 
     81 CB         -5.1784  -22.8765  -51.3799 C.3       14 UNK        -0.1800 
     82 C          -3.1996  -21.4801  -50.6291 C.2       14 UNK         0.5000 
     83 O          -2.5858  -21.6739  -49.5786 O.2       14 UNK        -0.5000 
     84 N          -2.6063  -21.2162  -51.7968 N.am      15 UNK        -0.5000 
     85 CA         -1.1681  -21.2272  -52.0515 C.3       15 UNK         0.1400 
     86 CB         -0.9050  -20.5820  -53.4209 C.3       15 UNK        -0.1800 
     87 C          -0.5630  -22.6413  -51.9930 C.2       15 UNK         0.5000 
     88 O          -1.2905  -23.6346  -52.0660 O.2       15 UNK        -0.5000 
     89 N           0.7731  -22.6896  -51.8785 N.am      16 UNK        -0.5000 
     90 CA          1.6198  -23.8894  -51.8828 C.3       16 UNK         0.1400 
     91 CB          1.6732  -24.5024  -53.2973 C.3       16 UNK        -0.1800 
     92 C           1.2354  -24.9048  -50.7861 C.2       16 UNK         0.5000 
     93 O           1.1119  -26.0993  -51.0586 O.2       16 UNK        -0.5000 
     94 N           1.0482  -24.3847  -49.5637 N.am      17 UNK        -0.5000 
     95 CA          0.6153  -25.0966  -48.3571 C.3       17 UNK         0.1400 
     96 CB          1.6531  -26.1551  -47.9254 C.3       17 UNK        -0.1800 
     97 C          -0.8156  -25.6567  -48.4954 C.2       17 UNK         0.5000 
     98 O          -1.0461  -26.8438  -48.2582 O.2       17 UNK        -0.5000 
     99 N          -1.7483  -24.7674  -48.8670 N.am      18 UNK        -0.5000 
    100 CA        -3.1873  -25.0051  -49.0063 C.3       18 UNK         0.1400 
    101 CB        -3.8264  -25.3598  -47.6469 C.3       18 UNK        -0.1800 
    102 C         -3.5472  -25.9977  -50.1343 C.2       18 UNK         0.5000 
    103 O         -4.4525  -26.8171  -49.9703 O.2       18 UNK        -0.5000 
    104 N         -2.8569  -25.8964  -51.2774 N.am      19 UNK        -0.5000 
    105 CA        -3.0094  -26.7783  -52.4366 C.3       19 UNK         0.1400 
    106 CB        -1.6227  -27.0293  -53.0517 C.3       19 UNK        -0.1800 
    107 C         -4.0176  -26.2202  -53.4634 C.2       19 UNK         0.5000 
    108 O         -3.7056  -26.1374  -54.6528 O.2       19 UNK        -0.5000 
    109 N         -5.2143  -25.8510  -52.9847 N.am      20 UNK        -0.5000 
    110 CA        -6.4121  -25.3888  -53.7084 C.3       20 UNK         0.1400 
    111 CB        -6.9461  -26.4914  -54.6416 C.3       20 UNK        -0.1800 
    112 C         -6.2945  -24.0465  -54.4664 C.2       20 UNK         0.5000 
    113 O         -7.2551  -23.2739  -54.4571 O.2       20 UNK        -0.5000 
    114 N         -5.1439  -23.7808  -55.0964 N.am      21 UNK        -0.5000 
    115 CA        -4.8228  -22.5681  -55.8527 C.3       21 UNK         0.1400 
    116 CB        -3.3898  -22.6879  -56.3947 C.3       21 UNK        -0.1800 
    117 C         -4.9792  -21.2953  -55.0007 C.2       21 UNK         0.5000 
    118 O         -4.3200  -21.1874  -53.9687 O.2       21 UNK        -0.5000 
    119 N         -5.8708  -20.3929  -55.4311 N.am      22 UNK        -0.5000 
    120 CA        -6.3153  -19.1701  -54.7307 C.3       22 UNK         0.1400 
    121 C         -6.8813  -19.3641  -53.2885 C.2       22 UNK         0.5000 
    122 N         -7.3236  -20.5579  -52.9125 N.am      22 UNK        -0.7600 
    123 O         -6.9638  -18.4165  -52.5128 O.2       22 UNK        -0.5000 
    124 C124       -5.3649  -17.9448  -54.9027 C.3       23 UNK        -0.0398 
    125 S125       -3.6866  -18.0630  -54.1856 S.3       23 UNK        -0.2404 
    126 C126       -3.8417  -17.0520  -52.6806 C.3       23 UNK        -0.0205 
    127 H127       -0.1852   -9.6236  -45.9501 H         1 UNK         0.0600 
    128 H128       -0.2641   -8.1939  -46.9854 H         1 UNK         0.0600 
    129 H129       -1.2377   -9.6163  -47.3680 H         1 UNK         0.0600 
    130 H130       -0.3915  -10.8003  -49.0643 H         1 UNK         0.3000 
    131 H131        2.3757  -10.5264  -49.8954 H         1 UNK         0.0600 
    132 H132        0.6112  -10.5528  -51.5831 H         1 UNK         0.0800 
    133 H133        1.7200  -11.8591  -51.8361 H         1 UNK         0.0800 
    134 H134        1.2539  -14.1701  -51.8735 H         1 UNK         0.0800 
    135 H135        0.1243  -13.8251  -53.1630 H         1 UNK         0.0800 
    136 H136       -2.2087  -14.9006  -53.0769 H         1 UNK         0.1150 
    137 H137       -2.4746  -18.5697  -50.8797 H         1 UNK         0.1150 
    138 H138        0.9401  -16.0249  -50.3926 H         1 UNK         0.1150 
    139 H139       -0.6341  -19.3257  -49.5241 H         1 UNK         0.0800 
    140 H140        0.9300  -18.6088  -49.8133 H         1 UNK         0.0800 
    141 H141       -2.2382  -16.7467  -48.3693 H         1 UNK         0.0800 
    142 H142       -1.9972  -16.8232  -46.6568 H         1 UNK         0.0800 
    143 H143       -2.6524  -19.2133  -48.4422 H         1 UNK         0.0600 
    144 H144       -1.4903  -19.3462  -45.9143 H         1 UNK         0.3000 
    145 H145       -2.9120  -22.4839  -44.8623 H         1 UNK         0.0600 
    146 H146       -0.4750  -22.9710  -44.7906 H         1 UNK         0.0600 
    147 H147       -1.0898  -22.9882  -46.4373 H         1 UNK         0.0600 
    148 H148       -0.1529  -21.6136  -45.8691 H         1 UNK         0.0600 
    149 H149       -1.1089  -20.3214  -43.9280 H         1 UNK         0.3000 
    150 H150       -3.4246  -19.1921  -41.4880 H         1 UNK         0.0600 
    151 H151       -2.4250  -21.1559  -40.2903 H         1 UNK         0.0600 
    152 H152       -1.6167  -19.6570  -39.8558 H         1 UNK         0.0600 
    153 H153       -0.8487  -20.7779  -40.9786 H         1 UNK         0.0600 
    154 H154       -0.7265  -18.4675  -41.8732 H         1 UNK         0.3000 
    155 H155       -1.0092  -16.4243  -44.7468 H         1 UNK         0.0600 
    156 H156       -0.7965  -15.6474  -41.8075 H         1 UNK         0.0600 
    157 H157       -1.8021  -14.8887  -43.0281 H         1 UNK         0.0600 
    158 H158       -0.0543  -14.7447  -43.1337 H         1 UNK         0.0600 
    159 H159        1.2356  -16.7415  -43.2071 H         1 UNK         0.3000 
    160 H160        2.4517  -19.8782  -44.4693 H         1 UNK         0.0600 
    161 H161        4.2568  -18.3139  -45.1518 H         1 UNK         0.0600 
    162 H162        3.1527  -16.9498  -44.9754 H         1 UNK         0.0600 
    163 H163        2.8611  -18.1653  -46.2144 H         1 UNK         0.0600 
    164 H164        3.2784  -17.7238  -42.6359 H         1 UNK         0.3000 
    165 H165        2.5744  -19.6406  -39.7154 H         1 UNK         0.0600 
    166 H166        4.9578  -19.1612  -39.2234 H         1 UNK         0.0600 
    167 H167        4.8387  -20.4508  -40.4098 H         1 UNK         0.0600 
    168 H168        5.2730  -18.8256  -40.9266 H         1 UNK         0.0600 
    169 H169        3.7465  -17.0733  -40.0604 H         1 UNK         0.3000 
    170 H170        0.8104  -15.1342  -40.3535 H         1 UNK         0.0600 
    171 H171        0.8447  -15.7135  -37.9234 H         1 UNK         0.0600 
    172 H172        2.5970  -15.5544  -37.9056 H         1 UNK         0.0600 
    173 H173        1.5806  -14.1495  -38.2302 H         1 UNK         0.0600 
    174 H174        3.3889  -14.2401  -39.9038 H         1 UNK         0.3000 
    175 H175        3.9412  -12.8766  -42.1388 H         1 UNK         0.0600 
    176 H176        5.9072  -15.0520  -41.2417 H         1 UNK         0.0600 
    177 H177        6.3845  -13.4115  -41.6711 H         1 UNK         0.0600 
    178 H178        5.3311  -13.6848  -40.2999 H         1 UNK         0.0600 
    179 H179        4.3960  -13.2828  -44.2574 H         1 UNK         0.3000 
    180 H180        6.0184  -13.9703  -45.9344 H         1 UNK         0.0600 
    181 H181        5.9987  -17.0183  -46.2392 H         1 UNK         0.0600 
    182 H182        7.4008  -16.0402  -45.8254 H         1 UNK         0.0600 
    183 H183        6.6413  -15.8562  -47.3976 H         1 UNK         0.0600 
    184 H184        4.0067  -15.8226  -46.9267 H         1 UNK         0.3000 
    185 H185        2.2187  -15.0172  -48.0252 H         1 UNK         0.0600 
    186 H186        0.8169  -13.8295  -45.5616 H         1 UNK         0.0600 
    187 H187        0.0391  -14.8086  -46.8052 H         1 UNK         0.0600 
    188 H188        1.2748  -15.5128  -45.7760 H         1 UNK         0.0600 
    189 H189        0.7985  -12.5525  -47.6862 H         1 UNK         0.3000 
    190 H190       -4.1911  -18.5092  -45.3752 H         1 UNK         0.3000 
    191 H191       -6.5406  -17.2226  -46.2571 H         1 UNK         0.0600 
    192 H192       -6.0853  -19.1821  -43.9403 H         1 UNK         0.0600 
    193 H193       -7.4850  -18.1275  -44.1119 H         1 UNK         0.0600 
    194 H194       -5.8895  -17.4313  -43.8748 H         1 UNK         0.0600 
    195 H195       -5.5406  -20.5716  -46.6531 H         1 UNK         0.3000 
    196 H196       -8.2234  -21.3868  -47.6628 H         1 UNK         0.0600 
    197 H197       -7.2526  -23.6744  -47.6420 H         1 UNK         0.0600 
    198 H198       -7.2217  -22.9517  -46.0406 H         1 UNK         0.0600 
    199 H199       -5.7432  -23.0542  -46.9892 H         1 UNK         0.0600 
    200 H200       -4.6844  -21.5560  -48.5640 H         1 UNK         0.3000 
    201 H201       -5.0770  -20.7157  -51.2530 H         1 UNK         0.0600 
    202 H202       -6.1516  -22.7461  -51.8472 H         1 UNK         0.0600 
    203 H203       -5.2792  -23.7100  -50.6892 H         1 UNK         0.0600 
    204 H204       -4.4848  -23.1796  -52.1649 H         1 UNK         0.0600 
    205 H205       -3.2005  -21.1361  -52.6237 H         1 UNK         0.3000 
    206 H206       -0.6776  -20.6270  -51.2884 H         1 UNK         0.0600 
    207 H207       -1.4320  -21.1055  -54.2192 H         1 UNK         0.0600 
    208 H208       -1.2305  -19.5424  -53.4310 H         1 UNK         0.0600 
    209 H209        0.1567  -20.5853  -53.6695 H         1 UNK         0.0600 
    210 H210        1.2754  -21.8150  -51.8187 H         1 UNK         0.3000 
    211 H211        2.6295  -23.5562  -51.6380 H         1 UNK         0.0600 
    212 H212        0.6930  -24.8386  -53.6312 H         1 UNK         0.0600 
    213 H213        2.3450  -25.3610  -53.3302 H         1 UNK         0.0600 
    214 H214        2.0399  -23.7778  -54.0241 H         1 UNK         0.0600 
    215 H215        1.1693  -23.3872  -49.4605 H         1 UNK         0.3000 
    216 H216        0.5751  -24.3506  -47.5628 H         1 UNK         0.0600 
    217 H217        1.7231  -26.9768  -48.6385 H         1 UNK         0.0600 
    218 H218        1.3872  -26.5865  -46.9597 H         1 UNK         0.0600 
    219 H219        2.6450  -25.7155  -47.8216 H         1 UNK         0.0600 
    220 H220       -1.4557  -23.8226  -49.0789 H         1 UNK         0.3000 
    221 H221       -3.6087  -24.0482  -49.2970 H         1 UNK         0.0600 
    222 H222       -3.4943  -26.3312  -47.2804 H         1 UNK         0.0600 
    223 H223       -3.5825  -24.6123  -46.8916 H         1 UNK         0.0600 
    224 H224       -4.9135  -25.3961  -47.7251 H         1 UNK         0.0600 
    225 H225       -2.1835  -25.1404  -51.3880 H         1 UNK         0.3000 
    226 H226       -3.3951  -27.7464  -52.1107 H         1 UNK         0.0600 
    227 H227       -0.9333  -27.4416  -52.3150 H         1 UNK         0.0600 
    228 H228       -1.6793  -27.7408  -53.8762 H         1 UNK         0.0600 
    229 H229       -1.1898  -26.1082  -53.4396 H         1 UNK         0.0600 
    230 H230       -5.3412  -25.9558  -51.9866 H         1 UNK         0.3000 
    231 H231       -7.1654  -25.2299  -52.9351 H         1 UNK         0.0600 
    232 H232       -7.1332  -27.4152  -54.0941 H         1 UNK         0.0600 
    233 H233       -6.2479  -26.7148  -55.4487 H         1 UNK         0.0600 
    234 H234       -7.8884  -26.1903  -55.1011 H         1 UNK         0.0600 
    235 H235       -4.4205  -24.4934  -55.0448 H         1 UNK         0.3000 
    236 H236       -5.5078  -22.5158  -56.7011 H         1 UNK         0.0600 
    237 H237       -3.1053  -21.7946  -56.9521 H         1 UNK         0.0600 
    238 H238       -2.6666  -22.8177  -55.5882 H         1 UNK         0.0600 
    239 H239       -3.2932  -23.5389  -57.0691 H         1 UNK         0.0600 
    240 H240       -6.3750  -20.5978  -56.2816 H         1 UNK         0.3000 
    241 H241       -7.2141  -18.8929  -55.2826 H         1 UNK         0.0600 
    242 H242       -7.6383  -20.6888  -51.9575 H         1 UNK         0.3800 
    243 H243       -7.2790  -21.3527  -53.5379 H         1 UNK         0.3800 
    244 H244       -5.2315  -17.7623  -55.9695 H         1 UNK         0.0800 
    245 H245       -5.8500  -17.0425  -54.5277 H         1 UNK         0.0800 
    246 H246       -4.3384  -16.1104  -52.9185 H         1 UNK         0.0800 
    247 H247       -4.4816  -17.5671  -51.9628 H         1 UNK         0.0800 
@<TRIPOS>BOND
     1    1    2 1    
     2    1  127 1    
     3    1  128 1    
     4    1  129 1    
     5    2    3 2    
     6    2    4 am   BACKBONE|DICT|INTERRES
     7    4    5 1    
     8    4  130 1    
     9    5    6 1    
    10    5   65 1    
    11    5  131 1    
    12    6    7 1    
    13    6  132 1    
    14    6  133 1    
    15    7    8 1    
    16    8    9 1    
    17    8  134 1    
    18    8  135 1    
    19    9   10 ar   
    20    9   14 ar   
    21   10   11 ar   
    22   10  136 1    
    23   11   12 ar   
    24   11  126 1    
    25   12   13 ar   
    26   12  137 1    
    27   13   14 ar   
    28   13   15 1    
    29   14  138 1    
    30   15   16 1    
    31   15  139 1    
    32   15  140 1    
    33   16   17 1    
    34   17   18 1    
    35   17  141 1    
    36   17  142 1    
    37   18   19 1    
    38   18   67 1    
    39   18  143 1    
    40   19   20 am   BACKBONE|DICT|INTERRES
    41   19  144 1    
    42   20   21 2    
    43   20   22 1    
    44   22   23 1    
    45   22   24 1    
    46   22  145 1    
    47   23  146 1    
    48   23  147 1    
    49   23  148 1    
    50   24   25 am   BACKBONE|DICT|INTERRES
    51   24  149 1    
    52   25   26 2    
    53   25   27 1    
    54   27   28 1    
    55   27   29 1    
    56   27  150 1    
    57   28  151 1    
    58   28  152 1    
    59   28  153 1    
    60   29   30 am   BACKBONE|DICT|INTERRES
    61   29  154 1    
    62   30   31 2    
    63   30   32 1    
    64   32   33 1    
    65   32   34 1    
    66   32  155 1    
    67   33  156 1    
    68   33  157 1    
    69   33  158 1    
    70   34   35 am   BACKBONE|DICT|INTERRES
    71   34  159 1    
    72   35   36 2    
    73   35   37 1    
    74   37   38 1    
    75   37   39 1    
    76   37  160 1    
    77   38  161 1    
    78   38  162 1    
    79   38  163 1    
    80   39   40 am   BACKBONE|DICT|INTERRES
    81   39  164 1    
    82   40   41 2    
    83   40   42 1    
    84   42   43 1    
    85   42   44 1    
    86   42  165 1    
    87   43  166 1    
    88   43  167 1    
    89   43  168 1    
    90   44   45 am   BACKBONE|DICT|INTERRES
    91   44  169 1    
    92   45   46 2    
    93   45   47 1    
    94   47   48 1    
    95   47   49 1    
    96   47  170 1    
    97   48  171 1    
    98   48  172 1    
    99   48  173 1    
   100   49   50 am   BACKBONE|DICT|INTERRES
   101   49  174 1    
   102   50   51 2    
   103   50   52 1    
   104   52   53 1    
   105   52   54 1    
   106   52  175 1    
   107   53  176 1    
   108   53  177 1    
   109   53  178 1    
   110   54   55 am   BACKBONE|DICT|INTERRES
   111   54  179 1    
   112   55   56 2    
   113   55   57 1    
   114   57   58 1    
   115   57   59 1    
   116   57  180 1    
   117   58  181 1    
   118   58  182 1    
   119   58  183 1    
   120   59   60 am   BACKBONE|DICT|INTERRES
   121   59  184 1    
   122   60   61 2    
   123   60   62 1    
   124   62   63 1    
   125   62   64 1    
   126   62  185 1    
   127   63  186 1    
   128   63  187 1    
   129   63  188 1    
   130   64   65 am   BACKBONE|DICT|INTERRES
   131   64  189 1    
   132   65   66 2    
   133   67   68 2    
   134   67   69 am   BACKBONE|DICT|INTERRES
   135   69   70 1    
   136   69  190 1    
   137   70   71 1    
   138   70   72 1    
   139   70  191 1    
   140   71  192 1    
   141   71  193 1    
   142   71  194 1    
   143   72   73 2    
   144   72   74 am   BACKBONE|DICT|INTERRES
   145   74   75 1    
   146   74  195 1    
   147   75   76 1    
   148   75   77 1    
   149   75  196 1    
   150   76  197 1    
   151   76  198 1    
   152   76  199 1    
   153   77   78 2    
   154   77   79 am   BACKBONE|DICT|INTERRES
   155   79   80 1    
   156   79  200 1    
   157   80   81 1    
   158   80   82 1    
   159   80  201 1    
   160   81  202 1    
   161   81  203 1    
   162   81  204 1    
   163   82   83 2    
   164   82   84 am   BACKBONE|DICT|INTERRES
   165   84   85 1    
   166   84  205 1    
   167   85   86 1    
   168   85   87 1    
   169   85  206 1    
   170   86  207 1    
   171   86  208 1    
   172   86  209 1    
   173   87   88 2    
   174   87   89 am   BACKBONE|DICT|INTERRES
   175   89   90 1    
   176   89  210 1    
   177   90   91 1    
   178   90   92 1    
   179   90  211 1    
   180   91  212 1    
   181   91  213 1    
   182   91  214 1    
   183   92   93 2    
   184   92   94 am   BACKBONE|DICT|INTERRES
   185   94   95 1    
   186   94  215 1    
   187   95   96 1    
   188   95   97 1    
   189   95  216 1    
   190   96  217 1    
   191   96  218 1    
   192   96  219 1    
   193   97   98 2    
   194   97   99 am   BACKBONE|DICT|INTERRES
   195   99  100 1    
   196   99  220 1    
   197  100  101 1    
   198  100  102 1    
   199  100  221 1    
   200  101  222 1    
   201  101  223 1    
   202  101  224 1    
   203  102  103 2    
   204  102  104 am   BACKBONE|DICT|INTERRES
   205  104  105 1    
   206  104  225 1    
   207  105  106 1    
   208  105  107 1    
   209  105  226 1    
   210  106  227 1    
   211  106  228 1    
   212  106  229 1    
   213  107  108 2    
   214  107  109 am   BACKBONE|DICT|INTERRES
   215  109  110 1    
   216  109  230 1    
   217  110  111 1    
   218  110  112 1    
   219  110  231 1    
   220  111  232 1    
   221  111  233 1    
   222  111  234 1    
   223  112  113 2    
   224  112  114 am   BACKBONE|DICT|INTERRES
   225  114  115 1    
   226  114  235 1    
   227  115  116 1    
   228  115  117 1    
   229  115  236 1    
   230  116  237 1    
   231  116  238 1    
   232  116  239 1    
   233  117  118 2    
   234  117  119 am   BACKBONE|DICT|INTERRES
   235  119  120 1    
   236  119  240 1    
   237  120  121 1    
   238  120  124 1    
   239  120  241 1    
   240  121  122 am   BACKBONE|DICT|INTERRES
   241  121  123 2    
   242  122  242 1    
   243  122  243 1    
   244  124  125 1    
   245  124  244 1    
   246  124  245 1    
   247  125  126 1    
   248  126  246 1    
   249  126  247 1    
@<TRIPOS>SUBSTRUCTURE
     1 UNK         1 GROUP             0       ****    0 ROOT    
