@<TRIPOS>MOLECULE
3R540
247   249    1
SMALL
USER_CHARGES


@<TRIPOS>ATOM
      1 CA          6.5805  -15.9863  -49.2919 C.3       0 UNK        -0.1800 
      2 C           5.7192  -15.9852  -48.0377 C.2       0 UNK         0.5000 
      3 O           6.0932  -16.5911  -47.0341 O.2       0 UNK        -0.5000 
      4 N           4.5754  -15.2918  -48.0824 N.am      1 UNK        -0.5000 
      5 CA          3.5360  -15.2149  -47.0419 C.3       1 UNK         0.1400 
      6 C6          2.1704  -14.8004  -47.6550 C.3       23 UNK        -0.0398 
      7 S7          1.5441  -16.0422  -48.8354 S.3       23 UNK        -0.2404 
      8 C8          1.9640  -15.2734  -50.4248 C.3       23 UNK        -0.0205 
      9 C9          1.8370  -16.2735  -51.5599 C.ar      23 UNK        -0.0193 
     10 C10         0.6802  -16.3096  -52.3444 C.ar      23 UNK        -0.1150 
     11 C11         0.5758  -17.2049  -53.4126 C.ar      23 UNK        -0.0193 
     12 C12         1.6462  -18.0577  -53.6959 C.ar      23 UNK        -0.1150 
     13 C13         2.7811  -18.0761  -52.8793 C.ar      23 UNK        -0.0193 
     14 C14         2.8799  -17.1673  -51.8232 C.ar      23 UNK        -0.1150 
     15 C15         3.8779  -19.1053  -53.1241 C.3       23 UNK        -0.0205 
     16 S16         3.9037  -20.4371  -51.8686 S.3       23 UNK        -0.2404 
     17 C17         2.1735  -21.0477  -51.8636 C.3       23 UNK        -0.0398 
     18 CA          1.6061  -21.4517  -50.4708 C.3       11 UNK         0.1400 
     19 N           2.2166  -20.7272  -49.3523 N.am      11 UNK        -0.5000 
     20 C           2.0393  -20.9922  -48.0506 C.2       10 UNK         0.5000 
     21 O           1.2771  -21.8659  -47.6291 O.2       10 UNK        -0.5000 
     22 CA          2.8645  -20.1508  -47.0495 C.3       10 UNK         0.1400 
     23 CB          3.7912  -19.1141  -47.7170 C.3       10 UNK        -0.1800 
     24 N           2.0781  -19.4886  -46.0010 N.am      10 UNK        -0.5000 
     25 C           0.9167  -18.8277  -46.1203 C.2       9 UNK         0.5000 
     26 O           0.2486  -18.7887  -47.1544 O.2       9 UNK        -0.5000 
     27 CA          0.4250  -18.1388  -44.8286 C.3       9 UNK         0.1400 
     28 CB          1.2844  -16.9189  -44.4435 C.3       9 UNK        -0.1800 
     29 N          -1.0030  -17.8054  -44.8267 N.am      9 UNK        -0.5000 
     30 C          -1.6780  -16.9166  -45.5735 C.2       8 UNK         0.5000 
     31 O          -1.1533  -16.1112  -46.3415 O.2       8 UNK        -0.5000 
     32 CA         -3.2176  -16.9219  -45.4423 C.3       8 UNK         0.1400 
     33 CB         -3.8680  -17.5065  -46.7046 C.3       8 UNK        -0.1800 
     34 N          -3.6927  -17.6812  -44.2827 N.am      8 UNK        -0.5000 
     35 C          -3.7711  -17.1878  -43.0412 C.2       7 UNK         0.5000 
     36 O          -3.5429  -16.0112  -42.7610 O.2       7 UNK        -0.5000 
     37 CA         -4.1307  -18.1674  -41.9052 C.3       7 UNK         0.1400 
     38 CB         -4.6719  -19.5358  -42.3830 C.3       7 UNK        -0.1800 
     39 N          -2.9841  -18.3310  -41.0070 N.am      7 UNK        -0.5000 
     40 C          -1.7730  -18.8082  -41.3244 C.2       6 UNK         0.5000 
     41 O          -1.5095  -19.3143  -42.4159 O.2       6 UNK        -0.5000 
     42 CA         -0.6679  -18.6512  -40.2575 C.3       6 UNK         0.1400 
     43 CB          0.6777  -19.2492  -40.7090 C.3       6 UNK        -0.1800 
     44 N          -0.4474  -17.2492  -39.8938 N.am      6 UNK        -0.5000 
     45 C          -1.2283  -16.5071  -39.0974 C.2       5 UNK         0.5000 
     46 O          -2.2645  -16.9294  -38.5811 O.2       5 UNK        -0.5000 
     47 CA         -0.7834  -15.0591  -38.8217 C.3       5 UNK         0.1400 
     48 CB         -0.1807  -14.9464  -37.4128 C.3       5 UNK        -0.1800 
     49 N           0.1970  -14.5613  -39.7880 N.am      5 UNK        -0.5000 
     50 C          -0.0883  -14.0319  -40.9817 C.2       4 UNK         0.5000 
     51 O          -1.2322  -13.9408  -41.4245 O.2       4 UNK        -0.5000 
     52 CA          1.0884  -13.4893  -41.8208 C.3       4 UNK         0.1400 
     53 CB          1.4924  -12.0821  -41.3433 C.3       4 UNK        -0.1800 
     54 N           2.2708  -14.3568  -41.9258 N.am      4 UNK        -0.5000 
     55 C           3.1030  -14.7982  -40.9692 C.2       3 UNK         0.5000 
     56 O           2.9440  -14.6059  -39.7634 O.2       3 UNK        -0.5000 
     57 CA          4.3408  -15.5804  -41.4484 C.3       3 UNK         0.1400 
     58 CB          4.0349  -17.0847  -41.5172 C.3       3 UNK        -0.1800 
     59 N           4.8466  -15.1201  -42.7460 N.am      3 UNK        -0.5000 
     60 C           5.3876  -13.9109  -42.9626 C.2       2 UNK         0.5000 
     61 O           5.5400  -13.0651  -42.0804 O.2       2 UNK        -0.5000 
     62 CA          5.8435  -13.5823  -44.3966 C.3       2 UNK         0.1400 
     63 CB          7.3685  -13.7231  -44.5210 C.3       2 UNK        -0.1800 
     64 N           5.2138  -14.4064  -45.4290 N.am      2 UNK        -0.5000 
     65 C           3.9449  -14.3164  -45.8452 C.2       1 UNK         0.5000 
     66 O           3.1226  -13.5636  -45.3211 O.2       1 UNK        -0.5000 
     67 C           0.0692  -21.3201  -50.4736 C.2       11 UNK         0.5000 
     68 O          -0.6212  -22.2618  -50.8597 O.2       11 UNK        -0.5000 
     69 N          -0.4361  -20.1569  -50.0374 N.am      12 UNK        -0.5000 
     70 CA         -1.8620  -19.8715  -49.9294 C.3       12 UNK         0.1400 
     71 CB         -2.0830  -18.3661  -49.7329 C.3       12 UNK        -0.1800 
     72 C          -2.5222  -20.6940  -48.8123 C.2       12 UNK         0.5000 
     73 O          -3.5841  -21.2702  -49.0446 O.2       12 UNK        -0.5000 
     74 N          -1.8730  -20.7875  -47.6424 N.am      13 UNK        -0.5000 
     75 CA         -2.3152  -21.6332  -46.5281 C.3       13 UNK         0.1400 
     76 CB         -1.4683  -21.3700  -45.2778 C.3       13 UNK        -0.1800 
     77 C          -2.3014  -23.1295  -46.8789 C.2       13 UNK         0.5000 
     78 O          -3.2652  -23.8309  -46.5693 O.2       13 UNK        -0.5000 
     79 N          -1.2447  -23.5749  -47.5744 N.am      14 UNK        -0.5000 
     80 CA         -1.1090  -24.9369  -48.1028 C.3       14 UNK         0.1400 
     81 CB          0.2900  -25.1037  -48.7140 C.3       14 UNK        -0.1800 
     82 C          -2.2004  -25.3052  -49.1308 C.2       14 UNK         0.5000 
     83 O          -2.5774  -26.4727  -49.2301 O.2       14 UNK        -0.5000 
     84 N          -2.7124  -24.2935  -49.8411 N.am      15 UNK        -0.5000 
     85 CA         -3.8119  -24.3750  -50.7990 C.3       15 UNK         0.1400 
     86 CB         -3.5280  -23.3766  -51.9285 C.3       15 UNK        -0.1800 
     87 C          -5.1944  -24.1213  -50.1640 C.2       15 UNK         0.5000 
     88 O          -6.1426  -23.8488  -50.9022 O.2       15 UNK        -0.5000 
     89 N          -5.2899  -24.2021  -48.8276 N.am      16 UNK        -0.5000 
     90 CA         -6.4963  -24.0380  -48.0103 C.3       16 UNK         0.1400 
     91 CB         -7.5129  -25.1626  -48.2992 C.3       16 UNK        -0.1800 
     92 C          -7.0970  -22.6239  -48.1305 C.2       16 UNK         0.5000 
     93 O          -8.2689  -22.4688  -48.4752 O.2       16 UNK        -0.5000 
     94 N          -6.2526  -21.6189  -47.8613 N.am      17 UNK        -0.5000 
     95 CA         -6.5164  -20.1795  -47.9725 C.3       17 UNK         0.1400 
     96 CB         -7.6225  -19.7254  -46.9976 C.3       17 UNK        -0.1800 
     97 C          -6.7597  -19.7539  -49.4341 C.2       17 UNK         0.5000 
     98 O          -7.7057  -19.0224  -49.7297 O.2       17 UNK        -0.5000 
     99 N          -5.8807  -20.2498  -50.3162 N.am      18 UNK        -0.5000 
    100 CA        -5.8335  -20.0397  -51.7651 C.3       18 UNK         0.1400 
    101 CB        -5.5320  -18.5656  -52.1022 C.3       18 UNK        -0.1800 
    102 C         -7.0551  -20.5905  -52.5310 C.2       18 UNK         0.5000 
    103 O         -7.2876  -20.1835  -53.6702 O.2       18 UNK        -0.5000 
    104 N         -7.7838  -21.5455  -51.9350 N.am      19 UNK        -0.5000 
    105 CA        -8.8969  -22.2601  -52.5654 C.3       19 UNK         0.1400 
    106 CB        -9.6216  -23.1144  -51.5161 C.3       19 UNK        -0.1800 
    107 C         -8.4354  -23.1263  -53.7522 C.2       19 UNK         0.5000 
    108 O         -9.1280  -23.1868  -54.7681 O.2       19 UNK        -0.5000 
    109 N         -7.2427  -23.7235  -53.6236 N.am      20 UNK        -0.5000 
    110 CA        -6.5394  -24.4448  -54.6870 C.3       20 UNK         0.1400 
    111 CB        -5.8430  -25.6790  -54.0863 C.3       20 UNK        -0.1800 
    112 C         -5.5649  -23.5327  -55.4692 C.2       20 UNK         0.5000 
    113 O         -4.5804  -24.0268  -56.0210 O.2       20 UNK        -0.5000 
    114 N         -5.8394  -22.2173  -55.4954 N.am      21 UNK        -0.5000 
    115 CA        -5.1596  -21.1722  -56.2756 C.3       21 UNK         0.1400 
    116 CB        -5.4866  -21.3386  -57.7741 C.3       21 UNK        -0.1800 
    117 C         -3.6428  -21.0649  -56.0052 C.2       21 UNK         0.5000 
    118 O         -2.8652  -20.8183  -56.9287 O.2       21 UNK        -0.5000 
    119 N         -3.2571  -21.2755  -54.7403 N.am      22 UNK        -0.5000 
    120 CA        -1.8670  -21.3447  -54.2520 C.3       22 UNK         0.1400 
    121 C         -1.0736  -22.6028  -54.7292 C.2       22 UNK         0.5000 
    122 N         -1.7048  -23.6152  -55.3145 N.am      22 UNK        -0.7600 
    123 O          0.1370  -22.6808  -54.5395 O.2       22 UNK        -0.5000 
    124 C124       -1.0590  -20.0346  -54.4553 C.3       23 UNK        -0.0398 
    125 S125       -1.8359  -18.5626  -53.7063 S.3       23 UNK        -0.2404 
    126 C126       -0.6917  -17.2519  -54.2562 C.3       23 UNK        -0.0205 
    127 H127        6.7225  -17.0074  -49.6458 H         1 UNK         0.0600 
    128 H128        6.1259  -15.4084  -50.0970 H         1 UNK         0.0600 
    129 H129        7.5596  -15.5591  -49.0755 H         1 UNK         0.0600 
    130 H130        4.3649  -14.7773  -48.9239 H         1 UNK         0.3000 
    131 H131        3.4140  -16.2166  -46.6250 H         1 UNK         0.0600 
    132 H132        1.4059  -14.6911  -46.8853 H         1 UNK         0.0800 
    133 H133        2.2420  -13.8255  -48.1399 H         1 UNK         0.0800 
    134 H134        2.9831  -14.8875  -50.3995 H         1 UNK         0.0800 
    135 H135        1.3122  -14.4149  -50.5938 H         1 UNK         0.0800 
    136 H136       -0.1386  -15.6392  -52.1236 H         1 UNK         0.1150 
    137 H137        1.5791  -18.7420  -54.5291 H         1 UNK         0.1150 
    138 H138        3.7603  -17.1673  -51.1957 H         1 UNK         0.1150 
    139 H139        3.7665  -19.5563  -54.1114 H         1 UNK         0.0800 
    140 H140        4.8468  -18.6043  -53.1272 H         1 UNK         0.0800 
    141 H141        2.1122  -21.8998  -52.5425 H         1 UNK         0.0800 
    142 H142        1.5410  -20.2875  -52.3136 H         1 UNK         0.0800 
    143 H143        1.8391  -22.5069  -50.3148 H         1 UNK         0.0600 
    144 H144        2.8659  -19.9992  -49.6143 H         1 UNK         0.3000 
    145 H145        3.5044  -20.8677  -46.5333 H         1 UNK         0.0600 
    146 H146        4.3972  -18.6096  -46.9659 H         1 UNK         0.0600 
    147 H147        4.4846  -19.5821  -48.4170 H         1 UNK         0.0600 
    148 H148        3.2296  -18.3516  -48.2557 H         1 UNK         0.0600 
    149 H149        2.5023  -19.5198  -45.0853 H         1 UNK         0.3000 
    150 H150        0.5450  -18.8792  -44.0372 H         1 UNK         0.0600 
    151 H151        2.3453  -17.1675  -44.4265 H         1 UNK         0.0600 
    152 H152        1.0163  -16.5564  -43.4512 H         1 UNK         0.0600 
    153 H153        1.1577  -16.0946  -45.1407 H         1 UNK         0.0600 
    154 H154       -1.5422  -18.3731  -44.1821 H         1 UNK         0.3000 
    155 H155       -3.5414  -15.8830  -45.3497 H         1 UNK         0.0600 
    156 H156       -3.5950  -16.9237  -47.5846 H         1 UNK         0.0600 
    157 H157       -4.9555  -17.4899  -46.6322 H         1 UNK         0.0600 
    158 H158       -3.5533  -18.5356  -46.8763 H         1 UNK         0.0600 
    159 H159       -3.8924  -18.6598  -44.4265 H         1 UNK         0.3000 
    160 H160       -4.9175  -17.6872  -41.3217 H         1 UNK         0.0600 
    161 H161       -3.9431  -20.1003  -42.9650 H         1 UNK         0.0600 
    162 H162       -4.9584  -20.1545  -41.5326 H         1 UNK         0.0600 
    163 H163       -5.5628  -19.4098  -42.9995 H         1 UNK         0.0600 
    164 H164       -3.0686  -17.8822  -40.0996 H         1 UNK         0.3000 
    165 H165       -0.9955  -19.1978  -39.3709 H         1 UNK         0.0600 
    166 H166        1.4220  -19.1892  -39.9146 H         1 UNK         0.0600 
    167 H167        0.5708  -20.3024  -40.9722 H         1 UNK         0.0600 
    168 H168        1.0773  -18.7305  -41.5809 H         1 UNK         0.0600 
    169 H169        0.3637  -16.8033  -40.2944 H         1 UNK         0.3000 
    170 H170       -1.6744  -14.4288  -38.8620 H         1 UNK         0.0600 
    171 H171       -0.8881  -15.2850  -36.6546 H         1 UNK         0.0600 
    172 H172        0.7231  -15.5491  -37.3131 H         1 UNK         0.0600 
    173 H173        0.0775  -13.9138  -37.1766 H         1 UNK         0.0600 
    174 H174        1.1784  -14.5922  -39.5160 H         1 UNK         0.3000 
    175 H175        0.7158  -13.3891  -42.8417 H         1 UNK         0.0600 
    176 H176        1.8917  -12.0958  -40.3287 H         1 UNK         0.0600 
    177 H177        2.2514  -11.6495  -41.9955 H         1 UNK         0.0600 
    178 H178        0.6358  -11.4069  -41.3483 H         1 UNK         0.0600 
    179 H179        2.5316  -14.5782  -42.8765 H         1 UNK         0.3000 
    180 H180        5.1304  -15.4295  -40.7091 H         1 UNK         0.0600 
    181 H181        3.7016  -17.4587  -40.5481 H         1 UNK         0.0600 
    182 H182        3.2503  -17.3080  -42.2387 H         1 UNK         0.0600 
    183 H183        4.9208  -17.6556  -41.7960 H         1 UNK         0.0600 
    184 H184        4.7884  -15.7638  -43.5209 H         1 UNK         0.3000 
    185 H185        5.5805  -12.5401  -44.5893 H         1 UNK         0.0600 
    186 H186        7.8816  -13.0997  -43.7874 H         1 UNK         0.0600 
    187 H187        7.6909  -14.7528  -44.3611 H         1 UNK         0.0600 
    188 H188        7.7139  -13.4128  -45.5073 H         1 UNK         0.0600 
    189 H189        5.8031  -15.0923  -45.8930 H         1 UNK         0.3000 
    190 H190        0.1951  -19.4525  -49.6794 H         1 UNK         0.3000 
    191 H191       -2.3352  -20.1538  -50.8722 H         1 UNK         0.0600 
    192 H192       -1.6117  -17.9986  -48.8213 H         1 UNK         0.0600 
    193 H193       -3.1464  -18.1348  -49.6713 H         1 UNK         0.0600 
    194 H194       -1.6745  -17.7976  -50.5688 H         1 UNK         0.0600 
    195 H195       -1.0068  -20.2688  -47.5239 H         1 UNK         0.3000 
    196 H196       -3.3466  -21.3620  -46.2938 H         1 UNK         0.0600 
    197 H197       -1.7484  -22.0397  -44.4636 H         1 UNK         0.0600 
    198 H198       -1.6210  -20.3573  -44.9170 H         1 UNK         0.0600 
    199 H199       -0.4044  -21.5116  -45.4682 H         1 UNK         0.0600 
    200 H200       -0.4776  -22.9342  -47.7545 H         1 UNK         0.3000 
    201 H201       -1.2006  -25.6285  -47.2630 H         1 UNK         0.0600 
    202 H202        1.0695  -24.8839  -47.9843 H         1 UNK         0.0600 
    203 H203        0.4357  -24.4436  -49.5690 H         1 UNK         0.0600 
    204 H204        0.4452  -26.1265  -49.0596 H         1 UNK         0.0600 
    205 H205       -2.3135  -23.3728  -49.7088 H         1 UNK         0.3000 
    206 H206       -3.8431  -25.3765  -51.2318 H         1 UNK         0.0600 
    207 H207       -2.6081  -23.6491  -52.4437 H         1 UNK         0.0600 
    208 H208       -4.3219  -23.3543  -52.6728 H         1 UNK         0.0600 
    209 H209       -3.4130  -22.3655  -51.5407 H         1 UNK         0.0600 
    210 H210       -4.4389  -24.3692  -48.3042 H         1 UNK         0.3000 
    211 H211       -6.1793  -24.1471  -46.9720 H         1 UNK         0.0600 
    212 H212       -7.8920  -25.1207  -49.3200 H         1 UNK         0.0600 
    213 H213       -8.3712  -25.0928  -47.6300 H         1 UNK         0.0600 
    214 H214       -7.0645  -26.1447  -48.1500 H         1 UNK         0.0600 
    215 H215       -5.2853  -21.8631  -47.6937 H         1 UNK         0.3000 
    216 H216       -5.5950  -19.6843  -47.6672 H         1 UNK         0.0600 
    217 H217       -7.4003  -20.0371  -45.9771 H         1 UNK         0.0600 
    218 H218       -8.5980  -20.1298  -47.2683 H         1 UNK         0.0600 
    219 H219       -7.7118  -18.6385  -46.9924 H         1 UNK         0.0600 
    220 H220       -5.1328  -20.8246  -49.9341 H         1 UNK         0.3000 
    221 H221       -4.9843  -20.6249  -52.1167 H         1 UNK         0.0600 
    222 H222       -6.3590  -17.9100  -51.8291 H         1 UNK         0.0600 
    223 H223       -4.6397  -18.2165  -51.5839 H         1 UNK         0.0600 
    224 H224       -5.3500  -18.4358  -53.1698 H         1 UNK         0.0600 
    225 H225       -7.5051  -21.8676  -51.0173 H         1 UNK         0.3000 
    226 H226       -9.6010  -21.5178  -52.9469 H         1 UNK         0.0600 
    227 H227      -10.0094  -22.4971  -50.7056 H         1 UNK         0.0600 
    228 H228      -10.4676  -23.6425  -51.9573 H         1 UNK         0.0600 
    229 H229       -8.9583  -23.8612  -51.0794 H         1 UNK         0.0600 
    230 H230       -6.7713  -23.6555  -52.7249 H         1 UNK         0.3000 
    231 H231       -7.2657  -24.8111  -55.4151 H         1 UNK         0.0600 
    232 H232       -5.0423  -25.4060  -53.4021 H         1 UNK         0.0600 
    233 H233       -6.5508  -26.3017  -53.5390 H         1 UNK         0.0600 
    234 H234       -5.4053  -26.3010  -54.8679 H         1 UNK         0.0600 
    235 H235       -6.6497  -21.8967  -54.9802 H         1 UNK         0.3000 
    236 H236       -5.5877  -20.2228  -55.9507 H         1 UNK         0.0600 
    237 H237       -6.5632  -21.3777  -57.9402 H         1 UNK         0.0600 
    238 H238       -5.1012  -20.5010  -58.3567 H         1 UNK         0.0600 
    239 H239       -5.0508  -22.2510  -58.1826 H         1 UNK         0.0600 
    240 H240       -3.9717  -21.4943  -54.0657 H         1 UNK         0.3000 
    241 H241       -1.9486  -21.4732  -53.1745 H         1 UNK         0.0600 
    242 H242       -1.1709  -24.4188  -55.6037 H         1 UNK         0.3800 
    243 H243       -2.7004  -23.5878  -55.5071 H         1 UNK         0.3800 
    244 H244       -0.8805  -19.8480  -55.5147 H         1 UNK         0.0800 
    245 H245       -0.0802  -20.1500  -53.9952 H         1 UNK         0.0800 
    246 H246       -1.2100  -16.2936  -54.1980 H         1 UNK         0.0800 
    247 H247       -0.4403  -17.3941  -55.3082 H         1 UNK         0.0800 
@<TRIPOS>BOND
     1    1    2 1    
     2    1  127 1    
     3    1  128 1    
     4    1  129 1    
     5    2    3 2    
     6    2    4 am   BACKBONE|DICT|INTERRES
     7    4    5 1    
     8    4  130 1    
     9    5    6 1    
    10    5   65 1    
    11    5  131 1    
    12    6    7 1    
    13    6  132 1    
    14    6  133 1    
    15    7    8 1    
    16    8    9 1    
    17    8  134 1    
    18    8  135 1    
    19    9   10 ar   
    20    9   14 ar   
    21   10   11 ar   
    22   10  136 1    
    23   11   12 ar   
    24   11  126 1    
    25   12   13 ar   
    26   12  137 1    
    27   13   14 ar   
    28   13   15 1    
    29   14  138 1    
    30   15   16 1    
    31   15  139 1    
    32   15  140 1    
    33   16   17 1    
    34   17   18 1    
    35   17  141 1    
    36   17  142 1    
    37   18   19 1    
    38   18   67 1    
    39   18  143 1    
    40   19   20 am   BACKBONE|DICT|INTERRES
    41   19  144 1    
    42   20   21 2    
    43   20   22 1    
    44   22   23 1    
    45   22   24 1    
    46   22  145 1    
    47   23  146 1    
    48   23  147 1    
    49   23  148 1    
    50   24   25 am   BACKBONE|DICT|INTERRES
    51   24  149 1    
    52   25   26 2    
    53   25   27 1    
    54   27   28 1    
    55   27   29 1    
    56   27  150 1    
    57   28  151 1    
    58   28  152 1    
    59   28  153 1    
    60   29   30 am   BACKBONE|DICT|INTERRES
    61   29  154 1    
    62   30   31 2    
    63   30   32 1    
    64   32   33 1    
    65   32   34 1    
    66   32  155 1    
    67   33  156 1    
    68   33  157 1    
    69   33  158 1    
    70   34   35 am   BACKBONE|DICT|INTERRES
    71   34  159 1    
    72   35   36 2    
    73   35   37 1    
    74   37   38 1    
    75   37   39 1    
    76   37  160 1    
    77   38  161 1    
    78   38  162 1    
    79   38  163 1    
    80   39   40 am   BACKBONE|DICT|INTERRES
    81   39  164 1    
    82   40   41 2    
    83   40   42 1    
    84   42   43 1    
    85   42   44 1    
    86   42  165 1    
    87   43  166 1    
    88   43  167 1    
    89   43  168 1    
    90   44   45 am   BACKBONE|DICT|INTERRES
    91   44  169 1    
    92   45   46 2    
    93   45   47 1    
    94   47   48 1    
    95   47   49 1    
    96   47  170 1    
    97   48  171 1    
    98   48  172 1    
    99   48  173 1    
   100   49   50 am   BACKBONE|DICT|INTERRES
   101   49  174 1    
   102   50   51 2    
   103   50   52 1    
   104   52   53 1    
   105   52   54 1    
   106   52  175 1    
   107   53  176 1    
   108   53  177 1    
   109   53  178 1    
   110   54   55 am   BACKBONE|DICT|INTERRES
   111   54  179 1    
   112   55   56 2    
   113   55   57 1    
   114   57   58 1    
   115   57   59 1    
   116   57  180 1    
   117   58  181 1    
   118   58  182 1    
   119   58  183 1    
   120   59   60 am   BACKBONE|DICT|INTERRES
   121   59  184 1    
   122   60   61 2    
   123   60   62 1    
   124   62   63 1    
   125   62   64 1    
   126   62  185 1    
   127   63  186 1    
   128   63  187 1    
   129   63  188 1    
   130   64   65 am   BACKBONE|DICT|INTERRES
   131   64  189 1    
   132   65   66 2    
   133   67   68 2    
   134   67   69 am   BACKBONE|DICT|INTERRES
   135   69   70 1    
   136   69  190 1    
   137   70   71 1    
   138   70   72 1    
   139   70  191 1    
   140   71  192 1    
   141   71  193 1    
   142   71  194 1    
   143   72   73 2    
   144   72   74 am   BACKBONE|DICT|INTERRES
   145   74   75 1    
   146   74  195 1    
   147   75   76 1    
   148   75   77 1    
   149   75  196 1    
   150   76  197 1    
   151   76  198 1    
   152   76  199 1    
   153   77   78 2    
   154   77   79 am   BACKBONE|DICT|INTERRES
   155   79   80 1    
   156   79  200 1    
   157   80   81 1    
   158   80   82 1    
   159   80  201 1    
   160   81  202 1    
   161   81  203 1    
   162   81  204 1    
   163   82   83 2    
   164   82   84 am   BACKBONE|DICT|INTERRES
   165   84   85 1    
   166   84  205 1    
   167   85   86 1    
   168   85   87 1    
   169   85  206 1    
   170   86  207 1    
   171   86  208 1    
   172   86  209 1    
   173   87   88 2    
   174   87   89 am   BACKBONE|DICT|INTERRES
   175   89   90 1    
   176   89  210 1    
   177   90   91 1    
   178   90   92 1    
   179   90  211 1    
   180   91  212 1    
   181   91  213 1    
   182   91  214 1    
   183   92   93 2    
   184   92   94 am   BACKBONE|DICT|INTERRES
   185   94   95 1    
   186   94  215 1    
   187   95   96 1    
   188   95   97 1    
   189   95  216 1    
   190   96  217 1    
   191   96  218 1    
   192   96  219 1    
   193   97   98 2    
   194   97   99 am   BACKBONE|DICT|INTERRES
   195   99  100 1    
   196   99  220 1    
   197  100  101 1    
   198  100  102 1    
   199  100  221 1    
   200  101  222 1    
   201  101  223 1    
   202  101  224 1    
   203  102  103 2    
   204  102  104 am   BACKBONE|DICT|INTERRES
   205  104  105 1    
   206  104  225 1    
   207  105  106 1    
   208  105  107 1    
   209  105  226 1    
   210  106  227 1    
   211  106  228 1    
   212  106  229 1    
   213  107  108 2    
   214  107  109 am   BACKBONE|DICT|INTERRES
   215  109  110 1    
   216  109  230 1    
   217  110  111 1    
   218  110  112 1    
   219  110  231 1    
   220  111  232 1    
   221  111  233 1    
   222  111  234 1    
   223  112  113 2    
   224  112  114 am   BACKBONE|DICT|INTERRES
   225  114  115 1    
   226  114  235 1    
   227  115  116 1    
   228  115  117 1    
   229  115  236 1    
   230  116  237 1    
   231  116  238 1    
   232  116  239 1    
   233  117  118 2    
   234  117  119 am   BACKBONE|DICT|INTERRES
   235  119  120 1    
   236  119  240 1    
   237  120  121 1    
   238  120  124 1    
   239  120  241 1    
   240  121  122 am   BACKBONE|DICT|INTERRES
   241  121  123 2    
   242  122  242 1    
   243  122  243 1    
   244  124  125 1    
   245  124  244 1    
   246  124  245 1    
   247  125  126 1    
   248  126  246 1    
   249  126  247 1    
@<TRIPOS>SUBSTRUCTURE
     1 UNK         1 GROUP             0       ****    0 ROOT    
