@<TRIPOS>MOLECULE
3R540
247   249    1
SMALL
USER_CHARGES


@<TRIPOS>ATOM
      1 CA         -2.6934  -11.6569  -49.9844 C.3       0 UNK        -0.1800 
      2 C          -1.5845  -12.3977  -49.2514 C.2       0 UNK         0.5000 
      3 O          -1.7243  -12.6679  -48.0599 O.2       0 UNK        -0.5000 
      4 N          -0.4798  -12.6842  -49.9570 N.am      1 UNK        -0.5000 
      5 CA          0.6969  -13.4944  -49.5840 C.3       1 UNK         0.1400 
      6 C6          0.4198  -15.0256  -49.6165 C.3       23 UNK        -0.0398 
      7 S7         -0.4674  -15.7022  -48.1653 S.3       23 UNK        -0.2404 
      8 C8         -1.7846  -16.6826  -48.9476 C.3       23 UNK        -0.0205 
      9 C9         -1.3448  -17.9896  -49.6129 C.ar      23 UNK        -0.0193 
     10 C10        -2.3282  -18.7496  -50.2460 C.ar      23 UNK        -0.1150 
     11 C11        -2.0044  -19.9184  -50.9369 C.ar      23 UNK        -0.0193 
     12 C12        -0.6759  -20.3505  -50.9692 C.ar      23 UNK        -0.1150 
     13 C13         0.3202  -19.6277  -50.3070 C.ar      23 UNK        -0.0193 
     14 C14        -0.0203  -18.4523  -49.6295 C.ar      23 UNK        -0.1150 
     15 C15         1.7722  -20.0873  -50.3643 C.3       23 UNK        -0.0205 
     16 S16         2.0665  -21.6680  -49.5040 S.3       23 UNK        -0.2404 
     17 C17         1.8179  -21.2139  -47.7525 C.3       23 UNK        -0.0398 
     18 CA          0.9454  -22.2379  -46.9845 C.3       11 UNK         0.1400 
     19 N           1.0400  -22.0617  -45.5314 N.am      11 UNK        -0.5000 
     20 C           0.4782  -22.8719  -44.6210 C.2       10 UNK         0.5000 
     21 O          -0.1338  -23.9003  -44.9030 O.2       10 UNK        -0.5000 
     22 CA          0.5654  -22.4409  -43.1474 C.3       10 UNK         0.1400 
     23 CB          1.9183  -22.8401  -42.5407 C.3       10 UNK        -0.1800 
     24 N           0.3337  -21.0083  -42.9635 N.am      10 UNK        -0.5000 
     25 C          -0.8131  -20.3794  -43.2623 C.2       9 UNK         0.5000 
     26 O          -1.8175  -20.9528  -43.6841 O.2       9 UNK        -0.5000 
     27 CA         -0.8262  -18.8479  -43.1055 C.3       9 UNK         0.1400 
     28 CB         -0.9977  -18.4592  -41.6294 C.3       9 UNK        -0.1800 
     29 N           0.3806  -18.2198  -43.6436 N.am      9 UNK        -0.5000 
     30 C           0.7712  -18.2846  -44.9251 C.2       8 UNK         0.5000 
     31 O           0.1201  -18.8352  -45.8139 O.2       8 UNK        -0.5000 
     32 CA          2.1613  -17.7067  -45.2467 C.3       8 UNK         0.1400 
     33 CB          2.1340  -16.1772  -45.3507 C.3       8 UNK        -0.1800 
     34 N           3.1491  -18.0915  -44.2414 N.am      8 UNK        -0.5000 
     35 C           3.6261  -19.3317  -44.0795 C.2       7 UNK         0.5000 
     36 O           3.3030  -20.2865  -44.7858 O.2       7 UNK        -0.5000 
     37 CA          4.6042  -19.5407  -42.9088 C.3       7 UNK         0.1400 
     38 CB          6.0375  -19.1860  -43.3316 C.3       7 UNK        -0.1800 
     39 N           4.2402  -18.7598  -41.7240 N.am      7 UNK        -0.5000 
     40 C           3.1504  -18.9907  -40.9788 C.2       6 UNK         0.5000 
     41 O           2.3482  -19.8946  -41.2061 O.2       6 UNK        -0.5000 
     42 CA          2.8901  -18.0263  -39.8077 C.3       6 UNK         0.1400 
     43 CB          3.6891  -18.4539  -38.5676 C.3       6 UNK        -0.1800 
     44 N           3.1843  -16.6241  -40.1181 N.am      6 UNK        -0.5000 
     45 C           2.5717  -15.9120  -41.0727 C.2       5 UNK         0.5000 
     46 O           1.7552  -16.3895  -41.8634 O.2       5 UNK        -0.5000 
     47 CA          2.9674  -14.4298  -41.1866 C.3       5 UNK         0.1400 
     48 CB          4.0374  -14.2425  -42.2730 C.3       5 UNK        -0.1800 
     49 N           1.8043  -13.6043  -41.5069 N.am      5 UNK        -0.5000 
     50 C           0.8325  -13.2935  -40.6353 C.2       4 UNK         0.5000 
     51 O           0.8777  -13.5806  -39.4380 O.2       4 UNK        -0.5000 
     52 CA         -0.3989  -12.5361  -41.1787 C.3       4 UNK         0.1400 
     53 CB         -0.2395  -11.0236  -40.9611 C.3       4 UNK        -0.1800 
     54 N          -0.6463  -12.7862  -42.5984 N.am      4 UNK        -0.5000 
     55 C          -1.0253  -13.9635  -43.1121 C.2       3 UNK         0.5000 
     56 O          -1.3856  -14.9131  -42.4177 O.2       3 UNK        -0.5000 
     57 CA         -1.0041  -14.1242  -44.6484 C.3       3 UNK         0.1400 
     58 CB         -2.4406  -14.2686  -45.1779 C.3       3 UNK        -0.1800 
     59 N          -0.3219  -13.0726  -45.4202 N.am      3 UNK        -0.5000 
     60 C           0.9339  -12.6181  -45.2666 C.2       2 UNK         0.5000 
     61 O           1.6883  -12.9805  -44.3634 O.2       2 UNK        -0.5000 
     62 CA          1.4069  -11.5698  -46.2981 C.3       2 UNK         0.1400 
     63 CB          2.9032  -11.2121  -46.1712 C.3       2 UNK        -0.1800 
     64 N           1.0548  -11.9709  -47.6630 N.am      2 UNK        -0.5000 
     65 C           1.4774  -13.0633  -48.3153 C.2       1 UNK         0.5000 
     66 O           2.4427  -13.7386  -47.9555 O.2       1 UNK        -0.5000 
     67 C          -0.5214  -22.2248  -47.4614 C.2       11 UNK         0.5000 
     68 O          -0.9424  -23.1546  -48.1515 O.2       11 UNK        -0.5000 
     69 N          -1.2820  -21.2095  -47.0274 N.am      12 UNK        -0.5000 
     70 CA         -2.7059  -21.0578  -47.3212 C.3       12 UNK         0.1400 
     71 CB         -3.2066  -19.7263  -46.7433 C.3       12 UNK        -0.1800 
     72 C          -3.5530  -22.2326  -46.8015 C.2       12 UNK         0.5000 
     73 O          -4.3773  -22.7623  -47.5487 O.2       12 UNK        -0.5000 
     74 N          -3.3096  -22.6330  -45.5458 N.am      13 UNK        -0.5000 
     75 CA         -3.9836  -23.7445  -44.8764 C.3       13 UNK         0.1400 
     76 CB         -3.6038  -23.7502  -43.3879 C.3       13 UNK        -0.1800 
     77 C          -3.6866  -25.1117  -45.5176 C.2       13 UNK         0.5000 
     78 O          -4.6071  -25.9147  -45.6740 O.2       13 UNK        -0.5000 
     79 N          -2.4187  -25.3508  -45.8818 N.am      14 UNK        -0.5000 
     80 CA         -1.9657  -26.5777  -46.5380 C.3       14 UNK         0.1400 
     81 CB         -0.4304  -26.6333  -46.5328 C.3       14 UNK        -0.1800 
     82 C          -2.5052  -26.7154  -47.9711 C.2       14 UNK         0.5000 
     83 O          -2.9018  -27.8127  -48.3661 O.2       14 UNK        -0.5000 
     84 N          -2.5134  -25.6041  -48.7188 N.am      15 UNK        -0.5000 
     85 CA         -3.0331  -25.5371  -50.0821 C.3       15 UNK         0.1400 
     86 CB         -2.5782  -24.2247  -50.7298 C.3       15 UNK        -0.1800 
     87 C          -4.5652  -25.6506  -50.1465 C.2       15 UNK         0.5000 
     88 O          -5.0789  -26.3538  -51.0167 O.2       15 UNK        -0.5000 
     89 N          -5.2513  -24.9475  -49.2316 N.am      16 UNK        -0.5000 
     90 CA         -6.7037  -24.7542  -49.1758 C.3       16 UNK         0.1400 
     91 CB         -7.4367  -26.0828  -48.8944 C.3       16 UNK        -0.1800 
     92 C          -7.2275  -24.0046  -50.4210 C.2       16 UNK         0.5000 
     93 O          -8.2158  -24.4208  -51.0291 O.2       16 UNK        -0.5000 
     94 N          -6.5330  -22.9061  -50.7599 N.am      17 UNK        -0.5000 
     95 CA         -6.7254  -22.0349  -51.9274 C.3       17 UNK         0.1400 
     96 CB         -8.1487  -21.4357  -51.9490 C.3       17 UNK        -0.1800 
     97 C          -6.3451  -22.7084  -53.2659 C.2       17 UNK         0.5000 
     98 O          -5.8539  -23.8377  -53.2818 O.2       17 UNK        -0.5000 
     99 N          -6.5394  -21.9699  -54.3689 N.am      18 UNK        -0.5000 
    100 CA        -6.4144  -22.3541  -55.7857 C.3       18 UNK         0.1400 
    101 CB        -7.4307  -23.4607  -56.1290 C.3       18 UNK        -0.1800 
    102 C         -5.0062  -22.7337  -56.2992 C.2       18 UNK         0.5000 
    103 O         -4.7890  -22.6893  -57.5109 O.2       18 UNK        -0.5000 
    104 N         -4.0807  -23.1047  -55.4072 N.am      19 UNK        -0.5000 
    105 CA        -2.7333  -23.5846  -55.7317 C.3       19 UNK         0.1400 
    106 CB        -2.1038  -24.1766  -54.4621 C.3       19 UNK        -0.1800 
    107 C         -1.7967  -22.5169  -56.3315 C.2       19 UNK         0.5000 
    108 O         -0.8300  -22.8722  -57.0076 O.2       19 UNK        -0.5000 
    109 N         -2.0830  -21.2407  -56.0631 N.am      20 UNK        -0.5000 
    110 CA        -1.3116  -20.0772  -56.4843 C.3       20 UNK         0.1400 
    111 CB        -0.1210  -19.8791  -55.5209 C.3       20 UNK        -0.1800 
    112 C         -2.2484  -18.8573  -56.5304 C.2       20 UNK         0.5000 
    113 O         -3.4728  -19.0190  -56.5443 O.2       20 UNK        -0.5000 
    114 N         -1.6716  -17.6488  -56.5085 N.am      21 UNK        -0.5000 
    115 CA        -2.3774  -16.3777  -56.3255 C.3       21 UNK         0.1400 
    116 CB        -1.4879  -15.2357  -56.8487 C.3       21 UNK        -0.1800 
    117 C         -2.7794  -16.1928  -54.8452 C.2       21 UNK         0.5000 
    118 O         -2.2574  -15.3136  -54.1577 O.2       21 UNK        -0.5000 
    119 N         -3.6630  -17.0789  -54.3753 N.am      22 UNK        -0.5000 
    120 CA        -4.0621  -17.2429  -52.9694 C.3       22 UNK         0.1400 
    121 C         -4.9680  -16.1150  -52.3951 C.2       22 UNK         0.5000 
    122 N         -5.5055  -15.2112  -53.2049 N.am      22 UNK        -0.7600 
    123 O         -5.1829  -16.0586  -51.1879 O.2       22 UNK        -0.5000 
    124 C124       -4.7019  -18.6373  -52.7313 C.3       23 UNK        -0.0398 
    125 S125       -3.6081  -20.0208  -53.2150 S.3       23 UNK        -0.2404 
    126 C126       -3.0944  -20.7272  -51.6191 C.3       23 UNK        -0.0205 
    127 H127       -3.6063  -12.2524  -49.9778 H         1 UNK         0.0600 
    128 H128       -2.4294  -11.4516  -51.0222 H         1 UNK         0.0600 
    129 H129       -2.9008  -10.7074  -49.4909 H         1 UNK         0.0600 
    130 H130       -0.4548  -12.3622  -50.9145 H         1 UNK         0.3000 
    131 H131        1.4010  -13.3038  -50.3954 H         1 UNK         0.0600 
    132 H132       -0.1254  -15.2778  -50.5268 H         1 UNK         0.0800 
    133 H133        1.3660  -15.5632  -49.6940 H         1 UNK         0.0800 
    134 H134       -2.5278  -16.9076  -48.1831 H         1 UNK         0.0800 
    135 H135       -2.2924  -16.0580  -49.6844 H         1 UNK         0.0800 
    136 H136       -3.3540  -18.4153  -50.2059 H         1 UNK         0.1150 
    137 H137       -0.4150  -21.2555  -51.4998 H         1 UNK         0.1150 
    138 H138        0.7599  -17.8997  -49.1292 H         1 UNK         0.1150 
    139 H139        2.0589  -20.2032  -51.4103 H         1 UNK         0.0800 
    140 H140        2.4385  -19.3284  -49.9510 H         1 UNK         0.0800 
    141 H141        1.3988  -20.2102  -47.6781 H         1 UNK         0.0800 
    142 H142        2.8072  -21.1582  -47.2971 H         1 UNK         0.0800 
    143 H143        1.3416  -23.2338  -47.1943 H         1 UNK         0.0600 
    144 H144        1.5675  -21.2584  -45.2065 H         1 UNK         0.3000 
    145 H145       -0.2167  -22.9727  -42.6019 H         1 UNK         0.0600 
    146 H146        1.9499  -22.6243  -41.4727 H         1 UNK         0.0600 
    147 H147        2.0998  -23.9088  -42.6610 H         1 UNK         0.0600 
    148 H148        2.7452  -22.3113  -43.0143 H         1 UNK         0.0600 
    149 H149        1.0964  -20.4745  -42.5567 H         1 UNK         0.3000 
    150 H150       -1.6795  -18.4592  -43.6650 H         1 UNK         0.0600 
    151 H151       -1.9180  -18.8777  -41.2204 H         1 UNK         0.0600 
    152 H152       -1.0496  -17.3779  -41.5081 H         1 UNK         0.0600 
    153 H153       -0.1715  -18.8207  -41.0173 H         1 UNK         0.0600 
    154 H154        0.9570  -17.7043  -42.9828 H         1 UNK         0.3000 
    155 H155        2.4769  -18.1073  -46.2124 H         1 UNK         0.0600 
    156 H156        1.4517  -15.8491  -46.1308 H         1 UNK         0.0600 
    157 H157        1.8118  -15.7137  -44.4191 H         1 UNK         0.0600 
    158 H158        3.1167  -15.7770  -45.6004 H         1 UNK         0.0600 
    159 H159        3.4221  -17.3796  -43.5808 H         1 UNK         0.3000 
    160 H160        4.5807  -20.5990  -42.6405 H         1 UNK         0.0600 
    161 H161        6.1335  -18.1306  -43.5898 H         1 UNK         0.0600 
    162 H162        6.3415  -19.7665  -44.2037 H         1 UNK         0.0600 
    163 H163        6.7487  -19.4030  -42.5343 H         1 UNK         0.0600 
    164 H164        4.8478  -17.9948  -41.4704 H         1 UNK         0.3000 
    165 H165        1.8277  -18.0911  -39.5637 H         1 UNK         0.0600 
    166 H166        3.4338  -17.8411  -37.7029 H         1 UNK         0.0600 
    167 H167        3.4748  -19.4905  -38.3036 H         1 UNK         0.0600 
    168 H168        4.7643  -18.3726  -38.7320 H         1 UNK         0.0600 
    169 H169        3.8553  -16.1645  -39.5195 H         1 UNK         0.3000 
    170 H170        3.3805  -14.0947  -40.2329 H         1 UNK         0.0600 
    171 H171        3.6816  -14.5676  -43.2510 H         1 UNK         0.0600 
    172 H172        4.3322  -13.1965  -42.3586 H         1 UNK         0.0600 
    173 H173        4.9355  -14.8165  -42.0425 H         1 UNK         0.0600 
    174 H174        1.6814  -13.3676  -42.4882 H         1 UNK         0.3000 
    175 H175       -1.2711  -12.8745  -40.6155 H         1 UNK         0.0600 
    176 H176       -1.1316  -10.4828  -41.2776 H         1 UNK         0.0600 
    177 H177        0.6109  -10.6252  -41.5160 H         1 UNK         0.0600 
    178 H178       -0.0795  -10.7958  -39.9064 H         1 UNK         0.0600 
    179 H179       -0.3620  -12.0631  -43.2418 H         1 UNK         0.3000 
    180 H180       -0.4823  -15.0595  -44.8522 H         1 UNK         0.0600 
    181 H181       -3.0044  -13.3425  -45.0616 H         1 UNK         0.0600 
    182 H182       -2.9818  -15.0538  -44.6482 H         1 UNK         0.0600 
    183 H183       -2.4499  -14.5353  -46.2341 H         1 UNK         0.0600 
    184 H184       -0.8353  -12.7532  -46.2364 H         1 UNK         0.3000 
    185 H185        0.8377  -10.6625  -46.0916 H         1 UNK         0.0600 
    186 H186        3.1128  -10.7689  -45.1970 H         1 UNK         0.0600 
    187 H187        3.5451  -12.0876  -46.2704 H         1 UNK         0.0600 
    188 H188        3.2018  -10.4878  -46.9289 H         1 UNK         0.0600 
    189 H189        0.2358  -11.5191  -48.0466 H         1 UNK         0.3000 
    190 H190       -0.8512  -20.4773  -46.4706 H         1 UNK         0.3000 
    191 H191       -2.8127  -21.0247  -48.4062 H         1 UNK         0.0600 
    192 H192       -2.5769  -18.8994  -47.0660 H         1 UNK         0.0600 
    193 H193       -4.2245  -19.5160  -47.0728 H         1 UNK         0.0600 
    194 H194       -3.2058  -19.7295  -45.6533 H         1 UNK         0.0600 
    195 H195       -2.6324  -22.1141  -44.9925 H         1 UNK         0.3000 
    196 H196       -5.0592  -23.5717  -44.9506 H         1 UNK         0.0600 
    197 H197       -4.1075  -24.5595  -42.8580 H         1 UNK         0.0600 
    198 H198       -3.8907  -22.8161  -42.9047 H         1 UNK         0.0600 
    199 H199       -2.5304  -23.8823  -43.2480 H         1 UNK         0.0600 
    200 H200       -1.7033  -24.6581  -45.6748 H         1 UNK         0.3000 
    201 H201       -2.3362  -27.4267  -45.9596 H         1 UNK         0.0600 
    202 H202       -0.0402  -26.6318  -45.5150 H         1 UNK         0.0600 
    203 H203        0.0042  -25.7822  -47.0591 H         1 UNK         0.0600 
    204 H204       -0.0692  -27.5408  -47.0180 H         1 UNK         0.0600 
    205 H205       -2.1190  -24.7481  -48.3385 H         1 UNK         0.3000 
    206 H206       -2.6105  -26.3645  -50.6562 H         1 UNK         0.0600 
    207 H207       -1.4956  -24.1963  -50.8548 H         1 UNK         0.0600 
    208 H208       -3.0306  -24.1042  -51.7136 H         1 UNK         0.0600 
    209 H209       -2.8686  -23.3647  -50.1256 H         1 UNK         0.0600 
    210 H210       -4.7256  -24.3828  -48.5700 H         1 UNK         0.3000 
    211 H211       -6.8876  -24.0969  -48.3247 H         1 UNK         0.0600 
    212 H212       -7.3563  -26.7800  -49.7285 H         1 UNK         0.0600 
    213 H213       -8.4986  -25.9097  -48.7169 H         1 UNK         0.0600 
    214 H214       -7.0344  -26.5722  -48.0073 H         1 UNK         0.0600 
    215 H215       -5.7296  -22.6882  -50.1884 H         1 UNK         0.3000 
    216 H216       -6.0345  -21.2053  -51.7928 H         1 UNK         0.0600 
    217 H217       -8.2213  -20.6085  -52.6555 H         1 UNK         0.0600 
    218 H218       -8.4256  -21.0420  -50.9709 H         1 UNK         0.0600 
    219 H219       -8.8976  -22.1740  -52.2367 H         1 UNK         0.0600 
    220 H220       -6.8866  -21.0314  -54.2335 H         1 UNK         0.3000 
    221 H221       -6.7009  -21.4650  -56.3495 H         1 UNK         0.0600 
    222 H222       -7.2059  -24.3924  -55.6089 H         1 UNK         0.0600 
    223 H223       -8.4443  -23.1628  -55.8607 H         1 UNK         0.0600 
    224 H224       -7.4292  -23.6767  -57.1981 H         1 UNK         0.0600 
    225 H225       -4.3831  -23.1962  -54.4440 H         1 UNK         0.3000 
    226 H226       -2.8329  -24.3842  -56.4686 H         1 UNK         0.0600 
    227 H227       -1.9504  -23.4099  -53.7019 H         1 UNK         0.0600 
    228 H228       -2.7307  -24.9602  -54.0360 H         1 UNK         0.0600 
    229 H229       -1.1313  -24.6207  -54.6782 H         1 UNK         0.0600 
    230 H230       -2.9295  -21.0250  -55.5515 H         1 UNK         0.3000 
    231 H231       -0.9380  -20.2391  -57.4972 H         1 UNK         0.0600 
    232 H232        0.5399  -19.0796  -55.8560 H         1 UNK         0.0600 
    233 H233        0.4880  -20.7806  -55.4523 H         1 UNK         0.0600 
    234 H234       -0.4600  -19.6327  -54.5134 H         1 UNK         0.0600 
    235 H235       -0.6639  -17.6005  -56.4716 H         1 UNK         0.3000 
    236 H236       -3.2936  -16.3864  -56.9198 H         1 UNK         0.0600 
    237 H237       -1.2622  -15.3663  -57.9072 H         1 UNK         0.0600 
    238 H238       -1.9868  -14.2717  -56.7407 H         1 UNK         0.0600 
    239 H239       -0.5419  -15.1793  -56.3089 H         1 UNK         0.0600 
    240 H240       -3.9826  -17.7994  -55.0139 H         1 UNK         0.3000 
    241 H241       -3.1428  -17.1969  -52.3841 H         1 UNK         0.0600 
    242 H242       -5.3296  -15.2434  -54.1961 H         1 UNK         0.3800 
    243 H243       -6.0877  -14.4836  -52.8209 H         1 UNK         0.3800 
    244 H244       -5.6208  -18.7240  -53.3131 H         1 UNK         0.0800 
    245 H245       -5.0038  -18.7623  -51.6911 H         1 UNK         0.0800 
    246 H246       -2.7285  -21.7318  -51.8200 H         1 UNK         0.0800 
    247 H247       -3.9455  -20.8375  -50.9479 H         1 UNK         0.0800 
@<TRIPOS>BOND
     1    1    2 1    
     2    1  127 1    
     3    1  128 1    
     4    1  129 1    
     5    2    3 2    
     6    2    4 am   BACKBONE|DICT|INTERRES
     7    4    5 1    
     8    4  130 1    
     9    5    6 1    
    10    5   65 1    
    11    5  131 1    
    12    6    7 1    
    13    6  132 1    
    14    6  133 1    
    15    7    8 1    
    16    8    9 1    
    17    8  134 1    
    18    8  135 1    
    19    9   10 ar   
    20    9   14 ar   
    21   10   11 ar   
    22   10  136 1    
    23   11   12 ar   
    24   11  126 1    
    25   12   13 ar   
    26   12  137 1    
    27   13   14 ar   
    28   13   15 1    
    29   14  138 1    
    30   15   16 1    
    31   15  139 1    
    32   15  140 1    
    33   16   17 1    
    34   17   18 1    
    35   17  141 1    
    36   17  142 1    
    37   18   19 1    
    38   18   67 1    
    39   18  143 1    
    40   19   20 am   BACKBONE|DICT|INTERRES
    41   19  144 1    
    42   20   21 2    
    43   20   22 1    
    44   22   23 1    
    45   22   24 1    
    46   22  145 1    
    47   23  146 1    
    48   23  147 1    
    49   23  148 1    
    50   24   25 am   BACKBONE|DICT|INTERRES
    51   24  149 1    
    52   25   26 2    
    53   25   27 1    
    54   27   28 1    
    55   27   29 1    
    56   27  150 1    
    57   28  151 1    
    58   28  152 1    
    59   28  153 1    
    60   29   30 am   BACKBONE|DICT|INTERRES
    61   29  154 1    
    62   30   31 2    
    63   30   32 1    
    64   32   33 1    
    65   32   34 1    
    66   32  155 1    
    67   33  156 1    
    68   33  157 1    
    69   33  158 1    
    70   34   35 am   BACKBONE|DICT|INTERRES
    71   34  159 1    
    72   35   36 2    
    73   35   37 1    
    74   37   38 1    
    75   37   39 1    
    76   37  160 1    
    77   38  161 1    
    78   38  162 1    
    79   38  163 1    
    80   39   40 am   BACKBONE|DICT|INTERRES
    81   39  164 1    
    82   40   41 2    
    83   40   42 1    
    84   42   43 1    
    85   42   44 1    
    86   42  165 1    
    87   43  166 1    
    88   43  167 1    
    89   43  168 1    
    90   44   45 am   BACKBONE|DICT|INTERRES
    91   44  169 1    
    92   45   46 2    
    93   45   47 1    
    94   47   48 1    
    95   47   49 1    
    96   47  170 1    
    97   48  171 1    
    98   48  172 1    
    99   48  173 1    
   100   49   50 am   BACKBONE|DICT|INTERRES
   101   49  174 1    
   102   50   51 2    
   103   50   52 1    
   104   52   53 1    
   105   52   54 1    
   106   52  175 1    
   107   53  176 1    
   108   53  177 1    
   109   53  178 1    
   110   54   55 am   BACKBONE|DICT|INTERRES
   111   54  179 1    
   112   55   56 2    
   113   55   57 1    
   114   57   58 1    
   115   57   59 1    
   116   57  180 1    
   117   58  181 1    
   118   58  182 1    
   119   58  183 1    
   120   59   60 am   BACKBONE|DICT|INTERRES
   121   59  184 1    
   122   60   61 2    
   123   60   62 1    
   124   62   63 1    
   125   62   64 1    
   126   62  185 1    
   127   63  186 1    
   128   63  187 1    
   129   63  188 1    
   130   64   65 am   BACKBONE|DICT|INTERRES
   131   64  189 1    
   132   65   66 2    
   133   67   68 2    
   134   67   69 am   BACKBONE|DICT|INTERRES
   135   69   70 1    
   136   69  190 1    
   137   70   71 1    
   138   70   72 1    
   139   70  191 1    
   140   71  192 1    
   141   71  193 1    
   142   71  194 1    
   143   72   73 2    
   144   72   74 am   BACKBONE|DICT|INTERRES
   145   74   75 1    
   146   74  195 1    
   147   75   76 1    
   148   75   77 1    
   149   75  196 1    
   150   76  197 1    
   151   76  198 1    
   152   76  199 1    
   153   77   78 2    
   154   77   79 am   BACKBONE|DICT|INTERRES
   155   79   80 1    
   156   79  200 1    
   157   80   81 1    
   158   80   82 1    
   159   80  201 1    
   160   81  202 1    
   161   81  203 1    
   162   81  204 1    
   163   82   83 2    
   164   82   84 am   BACKBONE|DICT|INTERRES
   165   84   85 1    
   166   84  205 1    
   167   85   86 1    
   168   85   87 1    
   169   85  206 1    
   170   86  207 1    
   171   86  208 1    
   172   86  209 1    
   173   87   88 2    
   174   87   89 am   BACKBONE|DICT|INTERRES
   175   89   90 1    
   176   89  210 1    
   177   90   91 1    
   178   90   92 1    
   179   90  211 1    
   180   91  212 1    
   181   91  213 1    
   182   91  214 1    
   183   92   93 2    
   184   92   94 am   BACKBONE|DICT|INTERRES
   185   94   95 1    
   186   94  215 1    
   187   95   96 1    
   188   95   97 1    
   189   95  216 1    
   190   96  217 1    
   191   96  218 1    
   192   96  219 1    
   193   97   98 2    
   194   97   99 am   BACKBONE|DICT|INTERRES
   195   99  100 1    
   196   99  220 1    
   197  100  101 1    
   198  100  102 1    
   199  100  221 1    
   200  101  222 1    
   201  101  223 1    
   202  101  224 1    
   203  102  103 2    
   204  102  104 am   BACKBONE|DICT|INTERRES
   205  104  105 1    
   206  104  225 1    
   207  105  106 1    
   208  105  107 1    
   209  105  226 1    
   210  106  227 1    
   211  106  228 1    
   212  106  229 1    
   213  107  108 2    
   214  107  109 am   BACKBONE|DICT|INTERRES
   215  109  110 1    
   216  109  230 1    
   217  110  111 1    
   218  110  112 1    
   219  110  231 1    
   220  111  232 1    
   221  111  233 1    
   222  111  234 1    
   223  112  113 2    
   224  112  114 am   BACKBONE|DICT|INTERRES
   225  114  115 1    
   226  114  235 1    
   227  115  116 1    
   228  115  117 1    
   229  115  236 1    
   230  116  237 1    
   231  116  238 1    
   232  116  239 1    
   233  117  118 2    
   234  117  119 am   BACKBONE|DICT|INTERRES
   235  119  120 1    
   236  119  240 1    
   237  120  121 1    
   238  120  124 1    
   239  120  241 1    
   240  121  122 am   BACKBONE|DICT|INTERRES
   241  121  123 2    
   242  122  242 1    
   243  122  243 1    
   244  124  125 1    
   245  124  244 1    
   246  124  245 1    
   247  125  126 1    
   248  126  246 1    
   249  126  247 1    
@<TRIPOS>SUBSTRUCTURE
     1 UNK         1 GROUP             0       ****    0 ROOT    
