@<TRIPOS>MOLECULE
3R540
247   249    1
SMALL
USER_CHARGES


@<TRIPOS>ATOM
      1 CA          0.2993  -11.3081  -43.3156 C.3       0 UNK        -0.1800 
      2 C           1.0063  -11.1236  -44.6493 C.2       0 UNK         0.5000 
      3 O           2.0602  -10.4904  -44.7081 O.2       0 UNK        -0.5000 
      4 N           0.4355  -11.6862  -45.7222 N.am      1 UNK        -0.5000 
      5 CA          0.9350  -11.5860  -47.1017 C.3       1 UNK         0.1400 
      6 C6         -0.1235  -12.0544  -48.1291 C.3       23 UNK        -0.0398 
      7 S7         -0.6608  -13.7894  -47.9130 S.3       23 UNK        -0.2404 
      8 C8         -0.3534  -14.4447  -49.5823 C.3       23 UNK        -0.0205 
      9 C9         -0.8216  -15.8852  -49.7198 C.ar      23 UNK        -0.0193 
     10 C10        -2.1831  -16.1898  -49.6294 C.ar      23 UNK        -0.1150 
     11 C11        -2.6283  -17.5057  -49.7745 C.ar      23 UNK        -0.0193 
     12 C12        -1.7003  -18.5219  -50.0173 C.ar      23 UNK        -0.1150 
     13 C13        -0.3358  -18.2324  -50.1136 C.ar      23 UNK        -0.0193 
     14 C14         0.0971  -16.9101  -49.9660 C.ar      23 UNK        -0.1150 
     15 C15         0.6562  -19.3523  -50.4055 C.3       23 UNK        -0.0205 
     16 S16         2.0440  -19.4511  -49.2227 S.3       23 UNK        -0.2404 
     17 C17         1.2232  -19.4495  -47.5928 C.3       23 UNK        -0.0398 
     18 CA          0.7928  -20.8574  -47.1080 C.3       11 UNK         0.1400 
     19 N           0.8495  -20.9757  -45.6479 N.am      11 UNK        -0.5000 
     20 C           0.6336  -22.1006  -44.9514 C.2       10 UNK         0.5000 
     21 O           0.4166  -23.1945  -45.4695 O.2       10 UNK        -0.5000 
     22 CA          0.5921  -21.9736  -43.4178 C.3       10 UNK         0.1400 
     23 CB          2.0087  -21.9597  -42.8251 C.3       10 UNK        -0.1800 
     24 N          -0.1484  -20.7904  -42.9766 N.am      10 UNK        -0.5000 
     25 C          -1.4576  -20.5980  -43.1958 C.2       9 UNK         0.5000 
     26 O          -2.1868  -21.4293  -43.7369 O.2       9 UNK        -0.5000 
     27 CA         -2.0429  -19.2340  -42.7868 C.3       9 UNK         0.1400 
     28 CB         -2.3423  -19.1969  -41.2811 C.3       9 UNK        -0.1800 
     29 N          -1.1722  -18.1138  -43.1458 N.am      9 UNK        -0.5000 
     30 C          -0.8360  -17.7816  -44.4008 C.2       8 UNK         0.5000 
     31 O          -1.2649  -18.3587  -45.3990 O.2       8 UNK        -0.5000 
     32 CA          0.2045  -16.6596  -44.5671 C.3       8 UNK         0.1400 
     33 CB         -0.4410  -15.2744  -44.4220 C.3       8 UNK        -0.1800 
     34 N           1.3146  -16.7863  -43.6223 N.am      8 UNK        -0.5000 
     35 C           2.1718  -17.8173  -43.5952 C.2       7 UNK         0.5000 
     36 O           2.1365  -18.7559  -44.3880 O.2       7 UNK        -0.5000 
     37 CA          3.2137  -17.8268  -42.4660 C.3       7 UNK         0.1400 
     38 CB          4.4016  -16.9122  -42.8001 C.3       7 UNK        -0.1800 
     39 N           2.6259  -17.4399  -41.1847 N.am      7 UNK        -0.5000 
     40 C           1.7285  -18.1785  -40.5156 C.2       6 UNK         0.5000 
     41 O           1.3391  -19.2856  -40.8862 O.2       6 UNK        -0.5000 
     42 CA          1.1333  -17.5500  -39.2433 C.3       6 UNK         0.1400 
     43 CB          2.0601  -17.7779  -38.0401 C.3       6 UNK        -0.1800 
     44 N           0.8801  -16.1168  -39.3985 N.am      6 UNK        -0.5000 
     45 C          -0.0314  -15.5953  -40.2319 C.2       5 UNK         0.5000 
     46 O          -0.7842  -16.2704  -40.9326 O.2       5 UNK        -0.5000 
     47 CA         -0.0663  -14.0610  -40.3381 C.3       5 UNK         0.1400 
     48 CB         -0.9366  -13.4572  -39.2264 C.3       5 UNK        -0.1800 
     49 N           1.2707  -13.4629  -40.2936 N.am      5 UNK        -0.5000 
     50 C           2.1994  -13.6283  -41.2429 C.2       4 UNK         0.5000 
     51 O           2.0288  -14.3058  -42.2607 O.2       4 UNK        -0.5000 
     52 CA          3.5478  -12.9405  -41.0108 C.3       4 UNK         0.1400 
     53 CB          4.5136  -13.8640  -40.2472 C.3       4 UNK        -0.1800 
     54 N           4.0974  -12.5826  -42.3115 N.am      4 UNK        -0.5000 
     55 C           5.0332  -11.6563  -42.5417 C.2       3 UNK         0.5000 
     56 O           5.6083  -11.0407  -41.6423 O.2       3 UNK        -0.5000 
     57 CA          5.3526  -11.3131  -44.0118 C.3       3 UNK         0.1400 
     58 CB          6.8693  -11.2765  -44.2932 C.3       3 UNK        -0.1800 
     59 N           4.6277  -12.1250  -44.9992 N.am      3 UNK        -0.5000 
     60 C           4.8441  -13.3972  -45.3687 C.2       2 UNK         0.5000 
     61 O           5.7316  -14.1044  -44.8923 O.2       2 UNK        -0.5000 
     62 CA          3.8917  -13.9836  -46.4359 C.3       2 UNK         0.1400 
     63 CB          3.6024  -15.4733  -46.1954 C.3       2 UNK        -0.1800 
     64 N           2.6154  -13.2684  -46.4769 N.am      2 UNK        -0.5000 
     65 C           2.2999  -12.2781  -47.3214 C.2       1 UNK         0.5000 
     66 O           3.0450  -11.8804  -48.2173 O.2       1 UNK        -0.5000 
     67 C          -0.6003  -21.2349  -47.6514 C.2       11 UNK         0.5000 
     68 O          -0.6965  -22.0451  -48.5720 O.2       11 UNK        -0.5000 
     69 N          -1.6542  -20.6778  -47.0390 N.am      12 UNK        -0.5000 
     70 CA         -3.0522  -20.9430  -47.3738 C.3       12 UNK         0.1400 
     71 CB         -3.9550  -19.9968  -46.5682 C.3       12 UNK        -0.1800 
     72 C          -3.4684  -22.4094  -47.1646 C.2       12 UNK         0.5000 
     73 O          -4.2563  -22.9247  -47.9582 O.2       12 UNK        -0.5000 
     74 N          -2.9276  -23.0517  -46.1211 N.am      13 UNK        -0.5000 
     75 CA         -3.1168  -24.4731  -45.8381 C.3       13 UNK         0.1400 
     76 CB         -2.7051  -24.7630  -44.3866 C.3       13 UNK        -0.1800 
     77 C          -2.3443  -25.3765  -46.8175 C.2       13 UNK         0.5000 
     78 O          -2.8788  -26.4012  -47.2423 O.2       13 UNK        -0.5000 
     79 N          -1.1066  -24.9865  -47.1565 N.am      14 UNK        -0.5000 
     80 CA         -0.2324  -25.6951  -48.0945 C.3       14 UNK         0.1400 
     81 CB          1.1930  -25.1306  -47.9923 C.3       14 UNK        -0.1800 
     82 C          -0.7319  -25.6413  -49.5502 C.2       14 UNK         0.5000 
     83 O          -0.5280  -26.6031  -50.2922 O.2       14 UNK        -0.5000 
     84 N          -1.3688  -24.5245  -49.9248 N.am      15 UNK        -0.5000 
     85 CA         -2.0581  -24.3174  -51.1941 C.3       15 UNK         0.1400 
     86 CB         -2.1567  -22.8032  -51.4577 C.3       15 UNK        -0.1800 
     87 C          -3.4158  -25.0526  -51.1901 C.2       15 UNK         0.5000 
     88 O          -3.4336  -26.2761  -51.3348 O.2       15 UNK        -0.5000 
     89 N          -4.5254  -24.3130  -51.0465 N.am      16 UNK        -0.5000 
     90 CA         -5.9263  -24.7497  -50.9587 C.3       16 UNK         0.1400 
     91 CB         -6.1543  -25.6845  -49.7550 C.3       16 UNK        -0.1800 
     92 C          -6.4841  -25.3502  -52.2631 C.2       16 UNK         0.5000 
     93 O          -7.4976  -24.8701  -52.7708 O.2       16 UNK        -0.5000 
     94 N          -5.8037  -26.3724  -52.7905 N.am      17 UNK        -0.5000 
     95 CA         -6.1142  -27.0577  -54.0460 C.3       17 UNK         0.1400 
     96 CB         -5.6990  -28.5315  -53.9050 C.3       17 UNK        -0.1800 
     97 C          -5.4240  -26.4096  -55.2645 C.2       17 UNK         0.5000 
     98 O          -5.6212  -26.8764  -56.3876 O.2       17 UNK        -0.5000 
     99 N          -4.6109  -25.3702  -55.0280 N.am      18 UNK        -0.5000 
    100 CA        -3.8805  -24.6072  -56.0391 C.3       18 UNK         0.1400 
    101 CB        -2.9676  -23.5982  -55.3239 C.3       18 UNK        -0.1800 
    102 C         -4.8182  -23.8724  -57.0151 C.2       18 UNK         0.5000 
    103 O         -5.8824  -23.4019  -56.6073 O.2       18 UNK        -0.5000 
    104 N         -4.3797  -23.7354  -58.2739 N.am      19 UNK        -0.5000 
    105 CA        -5.1171  -23.0699  -59.3560 C.3       19 UNK         0.1400 
    106 CB        -4.3751  -23.2998  -60.6815 C.3       19 UNK        -0.1800 
    107 C         -5.3512  -21.5628  -59.1235 C.2       19 UNK         0.5000 
    108 O         -6.3101  -21.0058  -59.6587 O.2       19 UNK        -0.5000 
    109 N         -4.4884  -20.9398  -58.3098 N.am      20 UNK        -0.5000 
    110 CA        -4.6080  -19.5546  -57.8514 C.3       20 UNK         0.1400 
    111 CB        -3.2274  -19.0859  -57.3632 C.3       20 UNK        -0.1800 
    112 C         -5.6675  -19.3597  -56.7436 C.2       20 UNK         0.5000 
    113 O         -5.9781  -18.2128  -56.4177 O.2       20 UNK        -0.5000 
    114 N         -6.1884  -20.4660  -56.1878 N.am      21 UNK        -0.5000 
    115 CA        -7.0926  -20.5619  -55.0377 C.3       21 UNK         0.1400 
    116 CB        -8.4164  -19.8096  -55.3031 C.3       21 UNK        -0.1800 
    117 C         -6.4178  -20.1544  -53.7083 C.2       21 UNK         0.5000 
    118 O         -5.2073  -19.9269  -53.6784 O.2       21 UNK        -0.5000 
    119 N         -7.2335  -20.1180  -52.6449 N.am      22 UNK        -0.5000 
    120 CA        -6.9230  -19.8711  -51.2243 C.3       22 UNK         0.1400 
    121 C         -5.9717  -20.9044  -50.5511 C.2       22 UNK         0.5000 
    122 N         -6.1231  -21.1354  -49.2543 N.am      22 UNK        -0.7600 
    123 O         -5.1098  -21.5158  -51.1721 O.2       22 UNK        -0.5000 
    124 C124       -6.5862  -18.3875  -50.8874 C.3       23 UNK        -0.0398 
    125 S125       -4.9081  -17.7928  -51.3034 S.3       23 UNK        -0.2404 
    126 C126       -4.1098  -17.8285  -49.6715 C.3       23 UNK        -0.0205 
    127 H127       -0.1605  -12.2939  -43.2470 H         1 UNK         0.0600 
    128 H128       -0.4775  -10.5534  -43.1945 H         1 UNK         0.0600 
    129 H129        1.0049  -11.2033  -42.4920 H         1 UNK         0.0600 
    130 H130       -0.4283  -12.1992  -45.6145 H         1 UNK         0.3000 
    131 H131        1.1076  -10.5241  -47.2902 H         1 UNK         0.0600 
    132 H132        0.2464  -11.9000  -49.1443 H         1 UNK         0.0800 
    133 H133       -1.0091  -11.4229  -48.0480 H         1 UNK         0.0800 
    134 H134       -0.8793  -13.8317  -50.3158 H         1 UNK         0.0800 
    135 H135        0.7108  -14.3601  -49.8083 H         1 UNK         0.0800 
    136 H136       -2.8967  -15.3984  -49.4471 H         1 UNK         0.1150 
    137 H137       -2.0448  -19.5387  -50.1440 H         1 UNK         0.1150 
    138 H138        1.1507  -16.6818  -50.0469 H         1 UNK         0.1150 
    139 H139        0.1515  -20.3185  -50.4346 H         1 UNK         0.0800 
    140 H140        1.0647  -19.1995  -51.4051 H         1 UNK         0.0800 
    141 H141        0.4009  -18.7331  -47.5673 H         1 UNK         0.0800 
    142 H142        1.9692  -19.0417  -46.9119 H         1 UNK         0.0800 
    143 H143        1.5047  -21.5890  -47.4961 H         1 UNK         0.0600 
    144 H144        1.0775  -20.1277  -45.1350 H         1 UNK         0.3000 
    145 H145        0.0743  -22.8525  -43.0282 H         1 UNK         0.0600 
    146 H146        1.9791  -21.9428  -41.7356 H         1 UNK         0.0600 
    147 H147        2.5636  -22.8506  -43.1219 H         1 UNK         0.0600 
    148 H148        2.5792  -21.0927  -43.1569 H         1 UNK         0.0600 
    149 H149        0.3786  -20.0810  -42.4777 H         1 UNK         0.3000 
    150 H150       -2.9856  -19.1047  -43.3222 H         1 UNK         0.0600 
    151 H151       -3.0048  -20.0144  -40.9942 H         1 UNK         0.0600 
    152 H152       -2.8343  -18.2655  -41.0006 H         1 UNK         0.0600 
    153 H153       -1.4328  -19.2862  -40.6866 H         1 UNK         0.0600 
    154 H154       -0.8149  -17.5519  -42.3782 H         1 UNK         0.3000 
    155 H155        0.6150  -16.7360  -45.5764 H         1 UNK         0.0600 
    156 H156       -0.8551  -15.1231  -43.4255 H         1 UNK         0.0600 
    157 H157       -1.2534  -15.1470  -45.1384 H         1 UNK         0.0600 
    158 H158        0.2850  -14.4835  -44.6063 H         1 UNK         0.0600 
    159 H159        1.4417  -16.0252  -42.9622 H         1 UNK         0.3000 
    160 H160        3.5918  -18.8469  -42.3704 H         1 UNK         0.0600 
    161 H161        4.0996  -15.8704  -42.9063 H         1 UNK         0.0600 
    162 H162        4.8691  -17.2104  -43.7394 H         1 UNK         0.0600 
    163 H163        5.1685  -16.9633  -42.0275 H         1 UNK         0.0600 
    164 H164        2.8622  -16.5262  -40.8306 H         1 UNK         0.3000 
    165 H165        0.1808  -18.0444  -39.0408 H         1 UNK         0.0600 
    166 H166        1.6123  -17.4002  -37.1207 H         1 UNK         0.0600 
    167 H167        2.2532  -18.8415  -37.8931 H         1 UNK         0.0600 
    168 H168        3.0238  -17.2844  -38.1721 H         1 UNK         0.0600 
    169 H169        1.4550  -15.4884  -38.8572 H         1 UNK         0.3000 
    170 H170       -0.5199  -13.8074  -41.2982 H         1 UNK         0.0600 
    171 H171       -1.9437  -13.8757  -39.2491 H         1 UNK         0.0600 
    172 H172       -0.5219  -13.6522  -38.2366 H         1 UNK         0.0600 
    173 H173       -1.0323  -12.3776  -39.3442 H         1 UNK         0.0600 
    174 H174        1.4828  -12.8917  -39.4879 H         1 UNK         0.3000 
    175 H175        3.3787  -12.0292  -40.4334 H         1 UNK         0.0600 
    176 H176        4.0887  -14.1749  -39.2920 H         1 UNK         0.0600 
    177 H177        4.7444  -14.7648  -40.8148 H         1 UNK         0.0600 
    178 H178        5.4552  -13.3594  -40.0308 H         1 UNK         0.0600 
    179 H179        3.6506  -13.0411  -43.0943 H         1 UNK         0.3000 
    180 H180        4.9791  -10.2983  -44.1556 H         1 UNK         0.0600 
    181 H181        7.3496  -12.2291  -44.0694 H         1 UNK         0.0600 
    182 H182        7.3598  -10.5184  -43.6816 H         1 UNK         0.0600 
    183 H183        7.0729  -11.0315  -45.3356 H         1 UNK         0.0600 
    184 H184        3.8305  -11.6539  -45.4096 H         1 UNK         0.3000 
    185 H185        4.3988  -13.8943  -47.3985 H         1 UNK         0.0600 
    186 H186        4.5150  -16.0689  -46.2379 H         1 UNK         0.0600 
    187 H187        3.1545  -15.6246  -45.2164 H         1 UNK         0.0600 
    188 H188        2.9184  -15.8731  -46.9446 H         1 UNK         0.0600 
    189 H189        1.9409  -13.5126  -45.7669 H         1 UNK         0.3000 
    190 H190       -1.4885  -19.9849  -46.3125 H         1 UNK         0.3000 
    191 H191       -3.1814  -20.7247  -48.4344 H         1 UNK         0.0600 
    192 H192       -3.8573  -20.1653  -45.4959 H         1 UNK         0.0600 
    193 H193       -5.0046  -20.1369  -46.8267 H         1 UNK         0.0600 
    194 H194       -3.7074  -18.9534  -46.7641 H         1 UNK         0.0600 
    195 H195       -2.3481  -22.5277  -45.4740 H         1 UNK         0.3000 
    196 H196       -4.1796  -24.7033  -45.9396 H         1 UNK         0.0600 
    197 H197       -2.8588  -25.8141  -44.1395 H         1 UNK         0.0600 
    198 H198       -3.2953  -24.1732  -43.6850 H         1 UNK         0.0600 
    199 H199       -1.6535  -24.5342  -44.2116 H         1 UNK         0.0600 
    200 H200       -0.7142  -24.1615  -46.7117 H         1 UNK         0.3000 
    201 H201       -0.2022  -26.7450  -47.7957 H         1 UNK         0.0600 
    202 H202        1.5917  -25.2472  -46.9845 H         1 UNK         0.0600 
    203 H203        1.2239  -24.0701  -48.2442 H         1 UNK         0.0600 
    204 H204        1.8697  -25.6502  -48.6717 H         1 UNK         0.0600 
    205 H205       -1.4101  -23.7562  -49.2621 H         1 UNK         0.3000 
    206 H206       -1.4606  -24.7543  -51.9967 H         1 UNK         0.0600 
    207 H207       -1.1663  -22.3681  -51.5910 H         1 UNK         0.0600 
    208 H208       -2.7266  -22.5891  -52.3624 H         1 UNK         0.0600 
    209 H209       -2.6313  -22.2773  -50.6285 H         1 UNK         0.0600 
    210 H210       -4.4206  -23.3018  -50.9910 H         1 UNK         0.3000 
    211 H211       -6.5034  -23.8449  -50.7664 H         1 UNK         0.0600 
    212 H212       -5.6242  -26.6312  -49.8604 H         1 UNK         0.0600 
    213 H213       -7.2136  -25.9162  -49.6389 H         1 UNK         0.0600 
    214 H214       -5.8195  -25.2172  -48.8285 H         1 UNK         0.0600 
    215 H215       -4.9525  -26.6564  -52.3092 H         1 UNK         0.3000 
    216 H216       -7.1909  -27.0216  -54.2237 H         1 UNK         0.0600 
    217 H217       -4.6256  -28.6317  -53.7391 H         1 UNK         0.0600 
    218 H218       -5.9483  -29.0991  -54.8025 H         1 UNK         0.0600 
    219 H219       -6.2131  -29.0070  -53.0694 H         1 UNK         0.0600 
    220 H220       -4.5417  -25.0430  -54.0772 H         1 UNK         0.3000 
    221 H221       -3.2608  -25.3067  -56.6038 H         1 UNK         0.0600 
    222 H222       -2.2769  -24.0998  -54.6458 H         1 UNK         0.0600 
    223 H223       -3.5444  -22.8761  -54.7435 H         1 UNK         0.0600 
    224 H224       -2.3660  -23.0365  -56.0396 H         1 UNK         0.0600 
    225 H225       -3.4879  -24.1374  -58.5264 H         1 UNK         0.3000 
    226 H226       -6.0991  -23.5423  -59.4278 H         1 UNK         0.0600 
    227 H227       -4.2822  -24.3632  -60.9031 H         1 UNK         0.0600 
    228 H228       -4.9110  -22.8422  -61.5143 H         1 UNK         0.0600 
    229 H229       -3.3725  -22.8708  -60.6611 H         1 UNK         0.0600 
    230 H230       -3.7252  -21.4770  -57.9262 H         1 UNK         0.3000 
    231 H231       -4.9013  -18.9304  -58.6980 H         1 UNK         0.0600 
    232 H232       -2.8846  -19.6708  -56.5085 H         1 UNK         0.0600 
    233 H233       -3.2555  -18.0403  -57.0537 H         1 UNK         0.0600 
    234 H234       -2.4792  -19.1694  -58.1517 H         1 UNK         0.0600 
    235 H235       -5.8638  -21.3637  -56.5286 H         1 UNK         0.3000 
    236 H236       -7.3292  -21.6229  -54.9446 H         1 UNK         0.0600 
    237 H237       -9.1841  -20.0885  -54.5812 H         1 UNK         0.0600 
    238 H238       -8.2896  -18.7284  -55.2420 H         1 UNK         0.0600 
    239 H239       -8.8111  -20.0447  -56.2917 H         1 UNK         0.0600 
    240 H240       -8.2010  -20.3512  -52.8134 H         1 UNK         0.3000 
    241 H241       -7.8896  -20.0563  -50.7535 H         1 UNK         0.0600 
    242 H242       -5.5240  -21.8303  -48.8175 H         1 UNK         0.3800 
    243 H243       -6.8419  -20.6852  -48.7108 H         1 UNK         0.3800 
    244 H244       -6.7600  -18.2114  -49.8249 H         1 UNK         0.0800 
    245 H245       -7.2969  -17.7364  -51.3978 H         1 UNK         0.0800 
    246 H246       -4.2443  -18.8143  -49.2293 H         1 UNK         0.0800 
    247 H247       -4.6052  -17.1201  -49.0058 H         1 UNK         0.0800 
@<TRIPOS>BOND
     1    1    2 1    
     2    1  127 1    
     3    1  128 1    
     4    1  129 1    
     5    2    3 2    
     6    2    4 am   BACKBONE|DICT|INTERRES
     7    4    5 1    
     8    4  130 1    
     9    5    6 1    
    10    5   65 1    
    11    5  131 1    
    12    6    7 1    
    13    6  132 1    
    14    6  133 1    
    15    7    8 1    
    16    8    9 1    
    17    8  134 1    
    18    8  135 1    
    19    9   10 ar   
    20    9   14 ar   
    21   10   11 ar   
    22   10  136 1    
    23   11   12 ar   
    24   11  126 1    
    25   12   13 ar   
    26   12  137 1    
    27   13   14 ar   
    28   13   15 1    
    29   14  138 1    
    30   15   16 1    
    31   15  139 1    
    32   15  140 1    
    33   16   17 1    
    34   17   18 1    
    35   17  141 1    
    36   17  142 1    
    37   18   19 1    
    38   18   67 1    
    39   18  143 1    
    40   19   20 am   BACKBONE|DICT|INTERRES
    41   19  144 1    
    42   20   21 2    
    43   20   22 1    
    44   22   23 1    
    45   22   24 1    
    46   22  145 1    
    47   23  146 1    
    48   23  147 1    
    49   23  148 1    
    50   24   25 am   BACKBONE|DICT|INTERRES
    51   24  149 1    
    52   25   26 2    
    53   25   27 1    
    54   27   28 1    
    55   27   29 1    
    56   27  150 1    
    57   28  151 1    
    58   28  152 1    
    59   28  153 1    
    60   29   30 am   BACKBONE|DICT|INTERRES
    61   29  154 1    
    62   30   31 2    
    63   30   32 1    
    64   32   33 1    
    65   32   34 1    
    66   32  155 1    
    67   33  156 1    
    68   33  157 1    
    69   33  158 1    
    70   34   35 am   BACKBONE|DICT|INTERRES
    71   34  159 1    
    72   35   36 2    
    73   35   37 1    
    74   37   38 1    
    75   37   39 1    
    76   37  160 1    
    77   38  161 1    
    78   38  162 1    
    79   38  163 1    
    80   39   40 am   BACKBONE|DICT|INTERRES
    81   39  164 1    
    82   40   41 2    
    83   40   42 1    
    84   42   43 1    
    85   42   44 1    
    86   42  165 1    
    87   43  166 1    
    88   43  167 1    
    89   43  168 1    
    90   44   45 am   BACKBONE|DICT|INTERRES
    91   44  169 1    
    92   45   46 2    
    93   45   47 1    
    94   47   48 1    
    95   47   49 1    
    96   47  170 1    
    97   48  171 1    
    98   48  172 1    
    99   48  173 1    
   100   49   50 am   BACKBONE|DICT|INTERRES
   101   49  174 1    
   102   50   51 2    
   103   50   52 1    
   104   52   53 1    
   105   52   54 1    
   106   52  175 1    
   107   53  176 1    
   108   53  177 1    
   109   53  178 1    
   110   54   55 am   BACKBONE|DICT|INTERRES
   111   54  179 1    
   112   55   56 2    
   113   55   57 1    
   114   57   58 1    
   115   57   59 1    
   116   57  180 1    
   117   58  181 1    
   118   58  182 1    
   119   58  183 1    
   120   59   60 am   BACKBONE|DICT|INTERRES
   121   59  184 1    
   122   60   61 2    
   123   60   62 1    
   124   62   63 1    
   125   62   64 1    
   126   62  185 1    
   127   63  186 1    
   128   63  187 1    
   129   63  188 1    
   130   64   65 am   BACKBONE|DICT|INTERRES
   131   64  189 1    
   132   65   66 2    
   133   67   68 2    
   134   67   69 am   BACKBONE|DICT|INTERRES
   135   69   70 1    
   136   69  190 1    
   137   70   71 1    
   138   70   72 1    
   139   70  191 1    
   140   71  192 1    
   141   71  193 1    
   142   71  194 1    
   143   72   73 2    
   144   72   74 am   BACKBONE|DICT|INTERRES
   145   74   75 1    
   146   74  195 1    
   147   75   76 1    
   148   75   77 1    
   149   75  196 1    
   150   76  197 1    
   151   76  198 1    
   152   76  199 1    
   153   77   78 2    
   154   77   79 am   BACKBONE|DICT|INTERRES
   155   79   80 1    
   156   79  200 1    
   157   80   81 1    
   158   80   82 1    
   159   80  201 1    
   160   81  202 1    
   161   81  203 1    
   162   81  204 1    
   163   82   83 2    
   164   82   84 am   BACKBONE|DICT|INTERRES
   165   84   85 1    
   166   84  205 1    
   167   85   86 1    
   168   85   87 1    
   169   85  206 1    
   170   86  207 1    
   171   86  208 1    
   172   86  209 1    
   173   87   88 2    
   174   87   89 am   BACKBONE|DICT|INTERRES
   175   89   90 1    
   176   89  210 1    
   177   90   91 1    
   178   90   92 1    
   179   90  211 1    
   180   91  212 1    
   181   91  213 1    
   182   91  214 1    
   183   92   93 2    
   184   92   94 am   BACKBONE|DICT|INTERRES
   185   94   95 1    
   186   94  215 1    
   187   95   96 1    
   188   95   97 1    
   189   95  216 1    
   190   96  217 1    
   191   96  218 1    
   192   96  219 1    
   193   97   98 2    
   194   97   99 am   BACKBONE|DICT|INTERRES
   195   99  100 1    
   196   99  220 1    
   197  100  101 1    
   198  100  102 1    
   199  100  221 1    
   200  101  222 1    
   201  101  223 1    
   202  101  224 1    
   203  102  103 2    
   204  102  104 am   BACKBONE|DICT|INTERRES
   205  104  105 1    
   206  104  225 1    
   207  105  106 1    
   208  105  107 1    
   209  105  226 1    
   210  106  227 1    
   211  106  228 1    
   212  106  229 1    
   213  107  108 2    
   214  107  109 am   BACKBONE|DICT|INTERRES
   215  109  110 1    
   216  109  230 1    
   217  110  111 1    
   218  110  112 1    
   219  110  231 1    
   220  111  232 1    
   221  111  233 1    
   222  111  234 1    
   223  112  113 2    
   224  112  114 am   BACKBONE|DICT|INTERRES
   225  114  115 1    
   226  114  235 1    
   227  115  116 1    
   228  115  117 1    
   229  115  236 1    
   230  116  237 1    
   231  116  238 1    
   232  116  239 1    
   233  117  118 2    
   234  117  119 am   BACKBONE|DICT|INTERRES
   235  119  120 1    
   236  119  240 1    
   237  120  121 1    
   238  120  124 1    
   239  120  241 1    
   240  121  122 am   BACKBONE|DICT|INTERRES
   241  121  123 2    
   242  122  242 1    
   243  122  243 1    
   244  124  125 1    
   245  124  244 1    
   246  124  245 1    
   247  125  126 1    
   248  126  246 1    
   249  126  247 1    
@<TRIPOS>SUBSTRUCTURE
     1 UNK         1 GROUP             0       ****    0 ROOT    
