@<TRIPOS>MOLECULE
3R540
247   249    1
SMALL
USER_CHARGES


@<TRIPOS>ATOM
      1 CA         -2.5948   -9.4513  -47.0812 C.3       0 UNK        -0.1800 
      2 C          -1.7791  -10.6731  -46.6871 C.2       0 UNK         0.5000 
      3 O          -1.5758  -10.9150  -45.4978 O.2       0 UNK        -0.5000 
      4 N          -1.3311  -11.4601  -47.6748 N.am      1 UNK        -0.5000 
      5 CA         -0.4863  -12.6538  -47.5050 C.3       1 UNK         0.1400 
      6 C6          0.0717  -13.1406  -48.8675 C.3       23 UNK        -0.0398 
      7 S7          1.7185  -13.9111  -48.7151 S.3       23 UNK        -0.2404 
      8 C8          1.7197  -15.0642  -50.1230 C.3       23 UNK        -0.0205 
      9 C9          0.8194  -16.2683  -49.8884 C.ar      23 UNK        -0.0193 
     10 C10        -0.3664  -16.4214  -50.6129 C.ar      23 UNK        -0.1150 
     11 C11        -1.1719  -17.5499  -50.4283 C.ar      23 UNK        -0.0193 
     12 C12        -0.7957  -18.5159  -49.4905 C.ar      23 UNK        -0.1150 
     13 C13         0.3866  -18.3719  -48.7583 C.ar      23 UNK        -0.0193 
     14 C14         1.1928  -17.2503  -48.9677 C.ar      23 UNK        -0.1150 
     15 C15         0.8056  -19.4411  -47.7614 C.3       23 UNK        -0.0205 
     16 S16         0.9137  -18.8220  -46.0507 S.3       23 UNK        -0.2404 
     17 C17        -0.7577  -18.1383  -45.7715 C.3       23 UNK        -0.0398 
     18 CA         -1.8567  -19.2198  -45.6624 C.3       11 UNK         0.1400 
     19 N          -1.5002  -20.2826  -44.7155 N.am      11 UNK        -0.5000 
     20 C          -2.1909  -21.4026  -44.4685 C.2       10 UNK         0.5000 
     21 O          -3.2718  -21.6505  -45.0064 O.2       10 UNK        -0.5000 
     22 CA         -1.5904  -22.4088  -43.4622 C.3       10 UNK         0.1400 
     23 CB         -1.7180  -23.8545  -43.9709 C.3       10 UNK        -0.1800 
     24 N          -0.1848  -22.1641  -43.1286 N.am      10 UNK        -0.5000 
     25 C           0.3024  -21.2108  -42.3277 C.2       9 UNK         0.5000 
     26 O          -0.4052  -20.3625  -41.7855 O.2       9 UNK        -0.5000 
     27 CA          1.8311  -21.1650  -42.1229 C.3       9 UNK         0.1400 
     28 CB          2.2465  -22.0033  -40.9002 C.3       9 UNK        -0.1800 
     29 N           2.6427  -21.5121  -43.3003 N.am      9 UNK        -0.5000 
     30 C           2.7565  -22.6842  -43.9480 C.2       8 UNK         0.5000 
     31 O           2.1030  -23.6889  -43.6663 O.2       8 UNK        -0.5000 
     32 CA          3.7506  -22.7506  -45.1264 C.3       8 UNK         0.1400 
     33 CB          3.0025  -22.5545  -46.4542 C.3       8 UNK        -0.1800 
     34 N           4.8272  -21.7628  -45.0394 N.am      8 UNK        -0.5000 
     35 C           5.7820  -21.7384  -44.0982 C.2       7 UNK         0.5000 
     36 O           5.9420  -22.6347  -43.2688 O.2       7 UNK        -0.5000 
     37 CA          6.6980  -20.4945  -44.0518 C.3       7 UNK         0.1400 
     38 CB          8.0906  -20.8344  -44.6056 C.3       7 UNK        -0.1800 
     39 N           6.1871  -19.3103  -44.7571 N.am      7 UNK        -0.5000 
     40 C           5.0275  -18.6845  -44.5109 C.2       6 UNK         0.5000 
     41 O           4.2151  -19.0723  -43.6665 O.2       6 UNK        -0.5000 
     42 CA          4.7144  -17.4595  -45.3945 C.3       6 UNK         0.1400 
     43 CB          4.6773  -17.8413  -46.8855 C.3       6 UNK        -0.1800 
     44 N           3.4216  -16.8797  -45.0463 N.am      6 UNK        -0.5000 
     45 C           3.1844  -16.0739  -44.0074 C.2       5 UNK         0.5000 
     46 O           4.0586  -15.6111  -43.2694 O.2       5 UNK        -0.5000 
     47 CA          1.6980  -15.7866  -43.7322 C.3       5 UNK         0.1400 
     48 CB          1.1359  -16.7883  -42.7101 C.3       5 UNK        -0.1800 
     49 N           1.4322  -14.4304  -43.2583 N.am      5 UNK        -0.5000 
     50 C           1.7137  -13.2969  -43.9133 C.2       4 UNK         0.5000 
     51 O           2.3153  -13.2477  -44.9873 O.2       4 UNK        -0.5000 
     52 CA          1.1674  -12.0068  -43.2711 C.3       4 UNK         0.1400 
     53 CB          1.6098  -10.7343  -44.0165 C.3       4 UNK        -0.1800 
     54 N          -0.2938  -12.0424  -43.2359 N.am      4 UNK        -0.5000 
     55 C          -1.0386  -12.6545  -42.3061 C.2       3 UNK         0.5000 
     56 O          -0.5661  -13.2305  -41.3252 O.2       3 UNK        -0.5000 
     57 CA         -2.5563  -12.6634  -42.5424 C.3       3 UNK         0.1400 
     58 CB         -3.1604  -11.2692  -42.3096 C.3       3 UNK        -0.1800 
     59 N          -2.8553  -13.1042  -43.9038 N.am      3 UNK        -0.5000 
     60 C          -3.0824  -14.3772  -44.2573 C.2       2 UNK         0.5000 
     61 O          -3.1293  -15.3110  -43.4575 O.2       2 UNK        -0.5000 
     62 CA         -3.2828  -14.6608  -45.7599 C.3       2 UNK         0.1400 
     63 CB         -4.7681  -14.5721  -46.1396 C.3       2 UNK        -0.1800 
     64 N          -2.5092  -13.7607  -46.6141 N.am      2 UNK        -0.5000 
     65 C          -1.1733  -13.7991  -46.7214 C.2       1 UNK         0.5000 
     66 O          -0.4902  -14.6789  -46.2018 O.2       1 UNK        -0.5000 
     67 C          -3.2239  -18.5657  -45.3721 C.2       11 UNK         0.5000 
     68 O          -3.8634  -18.0785  -46.3030 O.2       11 UNK        -0.5000 
     69 N          -3.6863  -18.6261  -44.1149 N.am      12 UNK        -0.5000 
     70 CA         -5.0292  -18.2167  -43.6912 C.3       12 UNK         0.1400 
     71 CB         -5.1123  -18.2945  -42.1599 C.3       12 UNK        -0.1800 
     72 C          -6.1603  -19.0456  -44.3394 C.2       12 UNK         0.5000 
     73 O          -7.2720  -18.5387  -44.4889 O.2       12 UNK        -0.5000 
     74 N          -5.8454  -20.2846  -44.7404 N.am      13 UNK        -0.5000 
     75 CA         -6.6959  -21.1827  -45.5221 C.3       13 UNK         0.1400 
     76 CB         -6.7693  -22.5365  -44.7935 C.3       13 UNK        -0.1800 
     77 C          -6.1505  -21.3410  -46.9587 C.2       13 UNK         0.5000 
     78 O          -6.4509  -22.3373  -47.6188 O.2       13 UNK        -0.5000 
     79 N          -5.3184  -20.3828  -47.4016 N.am      14 UNK        -0.5000 
     80 CA         -4.6096  -20.3181  -48.6857 C.3       14 UNK         0.1400 
     81 CB         -5.6049  -20.0746  -49.8366 C.3       14 UNK        -0.1800 
     82 C          -3.6574  -21.5069  -48.9442 C.2       14 UNK         0.5000 
     83 O          -3.3190  -21.7757  -50.0949 O.2       14 UNK        -0.5000 
     84 N          -3.2393  -22.1907  -47.8668 N.am      15 UNK        -0.5000 
     85 CA         -2.4113  -23.3983  -47.8417 C.3       15 UNK         0.1400 
     86 CB         -0.9294  -23.0537  -48.0919 C.3       15 UNK        -0.1800 
     87 C          -2.9691  -24.5527  -48.7034 C.2       15 UNK         0.5000 
     88 O          -2.2117  -25.2539  -49.3779 O.2       15 UNK        -0.5000 
     89 N          -4.2982  -24.7316  -48.6353 N.am      16 UNK        -0.5000 
     90 CA         -5.0899  -25.7952  -49.2576 C.3       16 UNK         0.1400 
     91 CB         -4.8195  -27.1432  -48.5524 C.3       16 UNK        -0.1800 
     92 C          -4.9052  -25.8414  -50.7875 C.2       16 UNK         0.5000 
     93 O          -5.4128  -24.9600  -51.4798 O.2       16 UNK        -0.5000 
     94 N          -4.1767  -26.8476  -51.2909 N.am      17 UNK        -0.5000 
     95 CA         -3.8918  -27.0668  -52.7119 C.3       17 UNK         0.1400 
     96 CB         -3.1408  -28.3975  -52.8689 C.3       17 UNK        -0.1800 
     97 C          -3.1082  -25.9234  -53.3876 C.2       17 UNK         0.5000 
     98 O          -3.2141  -25.7580  -54.6039 O.2       17 UNK        -0.5000 
     99 N          -2.3652  -25.1343  -52.5973 N.am      18 UNK        -0.5000 
    100 CA        -1.6337  -23.9527  -53.0585 C.3       18 UNK         0.1400 
    101 CB        -0.6993  -23.4680  -51.9443 C.3       18 UNK        -0.1800 
    102 C         -2.5438  -22.8044  -53.5387 C.2       18 UNK         0.5000 
    103 O         -2.0734  -21.9562  -54.2971 O.2       18 UNK        -0.5000 
    104 N         -3.8289  -22.8156  -53.1493 N.am      19 UNK        -0.5000 
    105 CA        -4.8457  -21.8277  -53.5262 C.3       19 UNK         0.1400 
    106 CB        -6.1562  -22.1585  -52.7986 C.3       19 UNK        -0.1800 
    107 C         -5.1021  -21.7312  -55.0430 C.2       19 UNK         0.5000 
    108 O         -5.5903  -20.7031  -55.5115 O.2       19 UNK        -0.5000 
    109 N         -4.7661  -22.7958  -55.7840 N.am      20 UNK        -0.5000 
    110 CA        -4.8017  -22.8360  -57.2441 C.3       20 UNK         0.1400 
    111 CB        -4.7822  -24.3052  -57.6936 C.3       20 UNK        -0.1800 
    112 C         -3.6416  -22.0577  -57.8994 C.2       20 UNK         0.5000 
    113 O         -3.7527  -21.7031  -59.0739 O.2       20 UNK        -0.5000 
    114 N         -2.5529  -21.8245  -57.1530 N.am      21 UNK        -0.5000 
    115 CA        -1.3447  -21.1526  -57.6235 C.3       21 UNK         0.1400 
    116 CB        -0.1144  -21.9809  -57.2163 C.3       21 UNK        -0.1800 
    117 C         -1.2421  -19.7210  -57.0745 C.2       21 UNK         0.5000 
    118 O         -0.9646  -18.8040  -57.8496 O.2       21 UNK        -0.5000 
    119 N         -1.4405  -19.5482  -55.7601 N.am      22 UNK        -0.5000 
    120 CA        -1.3424  -18.2464  -55.0809 C.3       22 UNK         0.1400 
    121 C         -2.5644  -17.3100  -55.3161 C.2       22 UNK         0.5000 
    122 N         -2.4380  -16.0290  -54.9930 N.am      22 UNK        -0.7600 
    123 O         -3.6255  -17.7217  -55.7794 O.2       22 UNK        -0.5000 
    124 C124       -0.9556  -18.3978  -53.5855 C.3       23 UNK        -0.0398 
    125 S125       -2.2586  -19.0655  -52.4896 S.3       23 UNK        -0.2404 
    126 C126       -2.4378  -17.7362  -51.2546 C.3       23 UNK        -0.0205 
    127 H127       -2.7117   -9.3723  -48.1623 H         1 UNK         0.0600 
    128 H128       -2.1056   -8.5451  -46.7240 H         1 UNK         0.0600 
    129 H129       -3.5871   -9.5032  -46.6333 H         1 UNK         0.0600 
    130 H130       -1.5503  -11.2126  -48.6295 H         1 UNK         0.3000 
    131 H131        0.3563  -12.3303  -46.8897 H         1 UNK         0.0600 
    132 H132        0.1956  -12.2983  -49.5495 H         1 UNK         0.0800 
    133 H133       -0.6270  -13.8188  -49.3596 H         1 UNK         0.0800 
    134 H134        2.7401  -15.4133  -50.2872 H         1 UNK         0.0800 
    135 H135        1.4319  -14.5301  -51.0299 H         1 UNK         0.0800 
    136 H136       -0.6529  -15.6705  -51.3356 H         1 UNK         0.1150 
    137 H137       -1.4142  -19.3914  -49.3528 H         1 UNK         0.1150 
    138 H138        2.1105  -17.1375  -48.4086 H         1 UNK         0.1150 
    139 H139        0.1181  -20.2855  -47.7901 H         1 UNK         0.0800 
    140 H140        1.7795  -19.8320  -48.0577 H         1 UNK         0.0800 
    141 H141       -0.9887  -17.4314  -46.5706 H         1 UNK         0.0800 
    142 H142       -0.7230  -17.5456  -44.8565 H         1 UNK         0.0800 
    143 H143       -1.9506  -19.6973  -46.6393 H         1 UNK         0.0600 
    144 H144       -0.6267  -20.1572  -44.2253 H         1 UNK         0.3000 
    145 H145       -2.1787  -22.3204  -42.5470 H         1 UNK         0.0600 
    146 H146       -1.3858  -24.5654  -43.2141 H         1 UNK         0.0600 
    147 H147       -2.7515  -24.1053  -44.2133 H         1 UNK         0.0600 
    148 H148       -1.1155  -24.0177  -44.8649 H         1 UNK         0.0600 
    149 H149        0.4906  -22.8275  -43.5007 H         1 UNK         0.3000 
    150 H150        2.0782  -20.1251  -41.9026 H         1 UNK         0.0600 
    151 H151        1.7240  -21.6685  -40.0032 H         1 UNK         0.0600 
    152 H152        3.3155  -21.9128  -40.7067 H         1 UNK         0.0600 
    153 H153        2.0180  -23.0610  -41.0340 H         1 UNK         0.0600 
    154 H154        3.2231  -20.7443  -43.6280 H         1 UNK         0.3000 
    155 H155        4.2007  -23.7454  -45.1252 H         1 UNK         0.0600 
    156 H156        2.5352  -21.5711  -46.5067 H         1 UNK         0.0600 
    157 H157        2.2132  -23.2981  -46.5735 H         1 UNK         0.0600 
    158 H158        3.6740  -22.6551  -47.3070 H         1 UNK         0.0600 
    159 H159        4.7822  -20.9880  -45.6836 H         1 UNK         0.3000 
    160 H160        6.8066  -20.2223  -43.0001 H         1 UNK         0.0600 
    161 H161        8.0503  -21.0840  -45.6666 H         1 UNK         0.0600 
    162 H162        8.5229  -21.6892  -44.0836 H         1 UNK         0.0600 
    163 H163        8.7804  -19.9994  -44.4816 H         1 UNK         0.0600 
    164 H164        6.7902  -18.9373  -45.4760 H         1 UNK         0.3000 
    165 H165        5.4968  -16.7142  -45.2377 H         1 UNK         0.0600 
    166 H166        4.4215  -16.9803  -47.5035 H         1 UNK         0.0600 
    167 H167        5.6459  -18.2024  -47.2321 H         1 UNK         0.0600 
    168 H168        3.9440  -18.6240  -47.0839 H         1 UNK         0.0600 
    169 H169        2.6280  -17.2566  -45.5468 H         1 UNK         0.3000 
    170 H170        1.1525  -15.9114  -44.6678 H         1 UNK         0.0600 
    171 H171        1.6177  -16.6809  -41.7375 H         1 UNK         0.0600 
    172 H172        0.0629  -16.6530  -42.5712 H         1 UNK         0.0600 
    173 H173        1.2935  -17.8162  -43.0402 H         1 UNK         0.0600 
    174 H174        0.9160  -14.3494  -42.3909 H         1 UNK         0.3000 
    175 H175        1.5564  -11.9503  -42.2522 H         1 UNK         0.0600 
    176 H176        1.2479  -10.7221  -45.0453 H         1 UNK         0.0600 
    177 H177        1.2351   -9.8384  -43.5212 H         1 UNK         0.0600 
    178 H178        2.6973  -10.6580  -44.0481 H         1 UNK         0.0600 
    179 H179       -0.7649  -11.6176  -44.0322 H         1 UNK         0.3000 
    180 H180       -3.0082  -13.3479  -41.8212 H         1 UNK         0.0600 
    181 H181       -4.2439  -11.2873  -42.4274 H         1 UNK         0.0600 
    182 H182       -2.7620  -10.5295  -43.0051 H         1 UNK         0.0600 
    183 H183       -2.9490  -10.9172  -41.2991 H         1 UNK         0.0600 
    184 H184       -2.7590  -12.4050  -44.6300 H         1 UNK         0.3000 
    185 H185       -2.9408  -15.6777  -45.9509 H         1 UNK         0.0600 
    186 H186       -4.9238  -14.8478  -47.1828 H         1 UNK         0.0600 
    187 H187       -5.3666  -15.2537  -45.5343 H         1 UNK         0.0600 
    188 H188       -5.1636  -13.5665  -45.9923 H         1 UNK         0.0600 
    189 H189       -3.0104  -13.0150  -47.0739 H         1 UNK         0.3000 
    190 H190       -3.0954  -19.0361  -43.4061 H         1 UNK         0.3000 
    191 H191       -5.1725  -17.1769  -43.9901 H         1 UNK         0.0600 
    192 H192       -6.0926  -17.9742  -41.8047 H         1 UNK         0.0600 
    193 H193       -4.3712  -17.6448  -41.6933 H         1 UNK         0.0600 
    194 H194       -4.9466  -19.3102  -41.7985 H         1 UNK         0.0600 
    195 H195       -4.8961  -20.6165  -44.5994 H         1 UNK         0.3000 
    196 H196       -7.7073  -20.7806  -45.6049 H         1 UNK         0.0600 
    197 H197       -5.7907  -23.0152  -44.7372 H         1 UNK         0.0600 
    198 H198       -7.1416  -22.4155  -43.7761 H         1 UNK         0.0600 
    199 H199       -7.4446  -23.2242  -45.3041 H         1 UNK         0.0600 
    200 H200       -5.1244  -19.6037  -46.7823 H         1 UNK         0.3000 
    201 H201       -3.9630  -19.4420  -48.6309 H         1 UNK         0.0600 
    202 H202       -6.3194  -20.8917  -49.9294 H         1 UNK         0.0600 
    203 H203       -5.0907  -19.9708  -50.7928 H         1 UNK         0.0600 
    204 H204       -6.1700  -19.1568  -49.6754 H         1 UNK         0.0600 
    205 H205       -3.5628  -21.8848  -46.9548 H         1 UNK         0.3000 
    206 H206       -2.4753  -23.7752  -46.8214 H         1 UNK         0.0600 
    207 H207       -0.5295  -22.4750  -47.2597 H         1 UNK         0.0600 
    208 H208       -0.3139  -23.9499  -48.1758 H         1 UNK         0.0600 
    209 H209       -0.7905  -22.4666  -48.9980 H         1 UNK         0.0600 
    210 H210       -4.8355  -24.0444  -48.1214 H         1 UNK         0.3000 
    211 H211       -6.1366  -25.5395  -49.0865 H         1 UNK         0.0600 
    212 H212       -5.4219  -27.9423  -48.9866 H         1 UNK         0.0600 
    213 H213       -5.0808  -27.0854  -47.4957 H         1 UNK         0.0600 
    214 H214       -3.7728  -27.4427  -48.6137 H         1 UNK         0.0600 
    215 H215       -3.7656  -27.5047  -50.6441 H         1 UNK         0.3000 
    216 H216       -4.8492  -27.1507  -53.2300 H         1 UNK         0.0600 
    217 H217       -2.1847  -28.3832  -52.3440 H         1 UNK         0.0600 
    218 H218       -2.9358  -28.6096  -53.9192 H         1 UNK         0.0600 
    219 H219       -3.7266  -29.2305  -52.4796 H         1 UNK         0.0600 
    220 H220       -2.3463  -25.3203  -51.6008 H         1 UNK         0.3000 
    221 H221       -1.0175  -24.2521  -53.9088 H         1 UNK         0.0600 
    222 H222       -0.0071  -24.2504  -51.6336 H         1 UNK         0.0600 
    223 H223       -1.2699  -23.1563  -51.0723 H         1 UNK         0.0600 
    224 H224       -0.1064  -22.6128  -52.2714 H         1 UNK         0.0600 
    225 H225       -4.1371  -23.5489  -52.5213 H         1 UNK         0.3000 
    226 H226       -4.4982  -20.8520  -53.1847 H         1 UNK         0.0600 
    227 H227       -6.5992  -23.0828  -53.1715 H         1 UNK         0.0600 
    228 H228       -5.9929  -22.2808  -51.7289 H         1 UNK         0.0600 
    229 H229       -6.8900  -21.3627  -52.9314 H         1 UNK         0.0600 
    230 H230       -4.3797  -23.6048  -55.3161 H         1 UNK         0.3000 
    231 H231       -5.7369  -22.3864  -57.5844 H         1 UNK         0.0600 
    232 H232       -3.8716  -24.8119  -57.3705 H         1 UNK         0.0600 
    233 H233       -4.8346  -24.3834  -58.7803 H         1 UNK         0.0600 
    234 H234       -5.6325  -24.8535  -57.2875 H         1 UNK         0.0600 
    235 H235       -2.5612  -22.0849  -56.1723 H         1 UNK         0.3000 
    236 H236       -1.3478  -21.0878  -58.7136 H         1 UNK         0.0600 
    237 H237       -0.1506  -22.9781  -57.6552 H         1 UNK         0.0600 
    238 H238        0.8056  -21.5072  -57.5609 H         1 UNK         0.0600 
    239 H239       -0.0391  -22.0954  -56.1345 H         1 UNK         0.0600 
    240 H240       -1.6905  -20.3442  -55.1788 H         1 UNK         0.3000 
    241 H241       -0.5003  -17.7303  -55.5470 H         1 UNK         0.0600 
    242 H242       -3.2222  -15.4125  -55.1389 H         1 UNK         0.3800 
    243 H243       -1.5770  -15.6527  -54.6293 H         1 UNK         0.3800 
    244 H244       -0.6227  -17.4326  -53.2059 H         1 UNK         0.0800 
    245 H245       -0.0860  -19.0504  -53.4979 H         1 UNK         0.0800 
    246 H246       -2.7143  -16.8102  -51.7613 H         1 UNK         0.0800 
    247 H247       -3.2675  -17.9804  -50.5906 H         1 UNK         0.0800 
@<TRIPOS>BOND
     1    1    2 1    
     2    1  127 1    
     3    1  128 1    
     4    1  129 1    
     5    2    3 2    
     6    2    4 am   BACKBONE|DICT|INTERRES
     7    4    5 1    
     8    4  130 1    
     9    5    6 1    
    10    5   65 1    
    11    5  131 1    
    12    6    7 1    
    13    6  132 1    
    14    6  133 1    
    15    7    8 1    
    16    8    9 1    
    17    8  134 1    
    18    8  135 1    
    19    9   10 ar   
    20    9   14 ar   
    21   10   11 ar   
    22   10  136 1    
    23   11   12 ar   
    24   11  126 1    
    25   12   13 ar   
    26   12  137 1    
    27   13   14 ar   
    28   13   15 1    
    29   14  138 1    
    30   15   16 1    
    31   15  139 1    
    32   15  140 1    
    33   16   17 1    
    34   17   18 1    
    35   17  141 1    
    36   17  142 1    
    37   18   19 1    
    38   18   67 1    
    39   18  143 1    
    40   19   20 am   BACKBONE|DICT|INTERRES
    41   19  144 1    
    42   20   21 2    
    43   20   22 1    
    44   22   23 1    
    45   22   24 1    
    46   22  145 1    
    47   23  146 1    
    48   23  147 1    
    49   23  148 1    
    50   24   25 am   BACKBONE|DICT|INTERRES
    51   24  149 1    
    52   25   26 2    
    53   25   27 1    
    54   27   28 1    
    55   27   29 1    
    56   27  150 1    
    57   28  151 1    
    58   28  152 1    
    59   28  153 1    
    60   29   30 am   BACKBONE|DICT|INTERRES
    61   29  154 1    
    62   30   31 2    
    63   30   32 1    
    64   32   33 1    
    65   32   34 1    
    66   32  155 1    
    67   33  156 1    
    68   33  157 1    
    69   33  158 1    
    70   34   35 am   BACKBONE|DICT|INTERRES
    71   34  159 1    
    72   35   36 2    
    73   35   37 1    
    74   37   38 1    
    75   37   39 1    
    76   37  160 1    
    77   38  161 1    
    78   38  162 1    
    79   38  163 1    
    80   39   40 am   BACKBONE|DICT|INTERRES
    81   39  164 1    
    82   40   41 2    
    83   40   42 1    
    84   42   43 1    
    85   42   44 1    
    86   42  165 1    
    87   43  166 1    
    88   43  167 1    
    89   43  168 1    
    90   44   45 am   BACKBONE|DICT|INTERRES
    91   44  169 1    
    92   45   46 2    
    93   45   47 1    
    94   47   48 1    
    95   47   49 1    
    96   47  170 1    
    97   48  171 1    
    98   48  172 1    
    99   48  173 1    
   100   49   50 am   BACKBONE|DICT|INTERRES
   101   49  174 1    
   102   50   51 2    
   103   50   52 1    
   104   52   53 1    
   105   52   54 1    
   106   52  175 1    
   107   53  176 1    
   108   53  177 1    
   109   53  178 1    
   110   54   55 am   BACKBONE|DICT|INTERRES
   111   54  179 1    
   112   55   56 2    
   113   55   57 1    
   114   57   58 1    
   115   57   59 1    
   116   57  180 1    
   117   58  181 1    
   118   58  182 1    
   119   58  183 1    
   120   59   60 am   BACKBONE|DICT|INTERRES
   121   59  184 1    
   122   60   61 2    
   123   60   62 1    
   124   62   63 1    
   125   62   64 1    
   126   62  185 1    
   127   63  186 1    
   128   63  187 1    
   129   63  188 1    
   130   64   65 am   BACKBONE|DICT|INTERRES
   131   64  189 1    
   132   65   66 2    
   133   67   68 2    
   134   67   69 am   BACKBONE|DICT|INTERRES
   135   69   70 1    
   136   69  190 1    
   137   70   71 1    
   138   70   72 1    
   139   70  191 1    
   140   71  192 1    
   141   71  193 1    
   142   71  194 1    
   143   72   73 2    
   144   72   74 am   BACKBONE|DICT|INTERRES
   145   74   75 1    
   146   74  195 1    
   147   75   76 1    
   148   75   77 1    
   149   75  196 1    
   150   76  197 1    
   151   76  198 1    
   152   76  199 1    
   153   77   78 2    
   154   77   79 am   BACKBONE|DICT|INTERRES
   155   79   80 1    
   156   79  200 1    
   157   80   81 1    
   158   80   82 1    
   159   80  201 1    
   160   81  202 1    
   161   81  203 1    
   162   81  204 1    
   163   82   83 2    
   164   82   84 am   BACKBONE|DICT|INTERRES
   165   84   85 1    
   166   84  205 1    
   167   85   86 1    
   168   85   87 1    
   169   85  206 1    
   170   86  207 1    
   171   86  208 1    
   172   86  209 1    
   173   87   88 2    
   174   87   89 am   BACKBONE|DICT|INTERRES
   175   89   90 1    
   176   89  210 1    
   177   90   91 1    
   178   90   92 1    
   179   90  211 1    
   180   91  212 1    
   181   91  213 1    
   182   91  214 1    
   183   92   93 2    
   184   92   94 am   BACKBONE|DICT|INTERRES
   185   94   95 1    
   186   94  215 1    
   187   95   96 1    
   188   95   97 1    
   189   95  216 1    
   190   96  217 1    
   191   96  218 1    
   192   96  219 1    
   193   97   98 2    
   194   97   99 am   BACKBONE|DICT|INTERRES
   195   99  100 1    
   196   99  220 1    
   197  100  101 1    
   198  100  102 1    
   199  100  221 1    
   200  101  222 1    
   201  101  223 1    
   202  101  224 1    
   203  102  103 2    
   204  102  104 am   BACKBONE|DICT|INTERRES
   205  104  105 1    
   206  104  225 1    
   207  105  106 1    
   208  105  107 1    
   209  105  226 1    
   210  106  227 1    
   211  106  228 1    
   212  106  229 1    
   213  107  108 2    
   214  107  109 am   BACKBONE|DICT|INTERRES
   215  109  110 1    
   216  109  230 1    
   217  110  111 1    
   218  110  112 1    
   219  110  231 1    
   220  111  232 1    
   221  111  233 1    
   222  111  234 1    
   223  112  113 2    
   224  112  114 am   BACKBONE|DICT|INTERRES
   225  114  115 1    
   226  114  235 1    
   227  115  116 1    
   228  115  117 1    
   229  115  236 1    
   230  116  237 1    
   231  116  238 1    
   232  116  239 1    
   233  117  118 2    
   234  117  119 am   BACKBONE|DICT|INTERRES
   235  119  120 1    
   236  119  240 1    
   237  120  121 1    
   238  120  124 1    
   239  120  241 1    
   240  121  122 am   BACKBONE|DICT|INTERRES
   241  121  123 2    
   242  122  242 1    
   243  122  243 1    
   244  124  125 1    
   245  124  244 1    
   246  124  245 1    
   247  125  126 1    
   248  126  246 1    
   249  126  247 1    
@<TRIPOS>SUBSTRUCTURE
     1 UNK         1 GROUP             0       ****    0 ROOT    
