@<TRIPOS>MOLECULE
3R540
247   249    1
SMALL
USER_CHARGES


@<TRIPOS>ATOM
      1 CA          4.2184  -13.9721  -51.1799 C.3       0 UNK        -0.1800 
      2 C           4.0741  -14.0129  -49.6652 C.2       0 UNK         0.5000 
      3 O           5.0752  -13.9506  -48.9517 O.2       0 UNK        -0.5000 
      4 N           2.8325  -14.1135  -49.1738 N.am      1 UNK        -0.5000 
      5 CA          2.4991  -14.2022  -47.7442 C.3       1 UNK         0.1400 
      6 C6          1.0999  -14.8256  -47.5085 C.3       23 UNK        -0.0398 
      7 S7          0.9860  -16.5046  -48.2072 S.3       23 UNK        -0.2404 
      8 C8         -0.3859  -16.3223  -49.3978 C.3       23 UNK        -0.0205 
      9 C9         -0.4885  -17.4979  -50.3651 C.ar      23 UNK        -0.0193 
     10 C10        -0.7322  -17.2707  -51.7230 C.ar      23 UNK        -0.1150 
     11 C11        -0.8169  -18.3403  -52.6198 C.ar      23 UNK        -0.0193 
     12 C12        -0.6363  -19.6455  -52.1536 C.ar      23 UNK        -0.1150 
     13 C13        -0.4159  -19.8921  -50.7966 C.ar      23 UNK        -0.0193 
     14 C14        -0.3570  -18.8133  -49.9106 C.ar      23 UNK        -0.1150 
     15 C15        -0.2765  -21.3231  -50.2948 C.3       23 UNK        -0.0205 
     16 S16         1.3651  -21.6535  -49.5771 S.3       23 UNK        -0.2404 
     17 C17         1.0597  -21.3064  -47.8100 C.3       23 UNK        -0.0398 
     18 CA          1.0372  -22.5774  -46.9327 C.3       11 UNK         0.1400 
     19 N           1.1006  -22.2379  -45.5105 N.am      11 UNK        -0.5000 
     20 C           1.2491  -23.1246  -44.5174 C.2       10 UNK         0.5000 
     21 O           1.3958  -24.3334  -44.6940 O.2       10 UNK        -0.5000 
     22 CA          1.1569  -22.5743  -43.0844 C.3       10 UNK         0.1400 
     23 CB          2.4723  -21.8969  -42.6726 C.3       10 UNK        -0.1800 
     24 N           0.0403  -21.6419  -42.9189 N.am      10 UNK        -0.5000 
     25 C          -1.2496  -21.9777  -43.0698 C.2       9 UNK         0.5000 
     26 O          -1.6322  -23.1211  -43.3164 O.2       9 UNK        -0.5000 
     27 CA         -2.2865  -20.8464  -42.9639 C.3       9 UNK         0.1400 
     28 CB         -2.5897  -20.5276  -41.4925 C.3       9 UNK        -0.1800 
     29 N          -1.8794  -19.6263  -43.6624 N.am      9 UNK        -0.5000 
     30 C          -1.6794  -19.5321  -44.9849 C.2       8 UNK         0.5000 
     31 O          -1.8279  -20.4696  -45.7675 O.2       8 UNK        -0.5000 
     32 CA         -1.1704  -18.1803  -45.5182 C.3       8 UNK         0.1400 
     33 CB         -2.2963  -17.1385  -45.5837 C.3       8 UNK        -0.1800 
     34 N          -0.0618  -17.6515  -44.7262 N.am      8 UNK        -0.5000 
     35 C           1.1229  -18.2620  -44.5809 C.2       7 UNK         0.5000 
     36 O           1.4273  -19.3203  -45.1328 O.2       7 UNK        -0.5000 
     37 CA          2.1096  -17.6049  -43.6028 C.3       7 UNK         0.1400 
     38 CB          2.8336  -16.4218  -44.2634 C.3       7 UNK        -0.1800 
     39 N           1.4429  -17.1606  -42.3775 N.am      7 UNK        -0.5000 
     40 C           0.9228  -17.9905  -41.4609 C.2       6 UNK         0.5000 
     41 O           0.9758  -19.2172  -41.5397 O.2       6 UNK        -0.5000 
     42 CA          0.1827  -17.3419  -40.2775 C.3       6 UNK         0.1400 
     43 CB          1.1770  -16.8851  -39.1996 C.3       6 UNK        -0.1800 
     44 N          -0.6489  -16.2090  -40.6837 N.am      6 UNK        -0.5000 
     45 C          -1.7205  -16.3008  -41.4842 C.2       5 UNK         0.5000 
     46 O          -2.1391  -17.3594  -41.9480 O.2       5 UNK        -0.5000 
     47 CA         -2.4167  -14.9831  -41.8666 C.3       5 UNK         0.1400 
     48 CB         -3.5049  -14.6303  -40.8420 C.3       5 UNK        -0.1800 
     49 N          -1.4882  -13.8584  -41.9967 N.am      5 UNK        -0.5000 
     50 C          -0.5063  -13.7850  -42.9037 C.2       4 UNK         0.5000 
     51 O          -0.2604  -14.6728  -43.7254 O.2       4 UNK        -0.5000 
     52 CA          0.3527  -12.5117  -42.8720 C.3       4 UNK         0.1400 
     53 CB          1.8242  -12.8447  -42.5805 C.3       4 UNK        -0.1800 
     54 N           0.2403  -11.8054  -44.1453 N.am      4 UNK        -0.5000 
     55 C          -0.8048  -11.0323  -44.4797 C.2       3 UNK         0.5000 
     56 O          -1.7358  -10.7993  -43.7062 O.2       3 UNK        -0.5000 
     57 CA         -0.8531  -10.4385  -45.9068 C.3       3 UNK         0.1400 
     58 CB         -1.3981   -8.9946  -45.9259 C.3       3 UNK        -0.1800 
     59 N           0.4060  -10.5367  -46.6529 N.am      3 UNK        -0.5000 
     60 C           1.5761   -9.9357  -46.3874 C.2       2 UNK         0.5000 
     61 O           1.7448   -9.1281  -45.4725 O.2       2 UNK        -0.5000 
     62 CA          2.7589  -10.3447  -47.2954 C.3       2 UNK         0.1400 
     63 CB          4.1308  -10.0880  -46.6377 C.3       2 UNK        -0.1800 
     64 N           2.6717  -11.7342  -47.7728 N.am      2 UNK        -0.5000 
     65 C           2.6052  -12.8444  -47.0182 C.2       1 UNK         0.5000 
     66 O           2.5855  -12.8258  -45.7886 O.2       1 UNK        -0.5000 
     67 C          -0.1727  -23.4842  -47.2491 C.2       11 UNK         0.5000 
     68 O           0.0015  -24.5123  -47.9015 O.2       11 UNK        -0.5000 
     69 N          -1.3573  -23.1213  -46.7350 N.am      12 UNK        -0.5000 
     70 CA         -2.6010  -23.8777  -46.8954 C.3       12 UNK         0.1400 
     71 CB         -3.7735  -23.0546  -46.3413 C.3       12 UNK        -0.1800 
     72 C          -2.5680  -25.2810  -46.2600 C.2       12 UNK         0.5000 
     73 O          -3.2465  -26.1811  -46.7544 O.2       12 UNK        -0.5000 
     74 N          -1.7878  -25.4475  -45.1847 N.am      13 UNK        -0.5000 
     75 CA         -1.5296  -26.7373  -44.5504 C.3       13 UNK         0.1400 
     76 CB         -1.0553  -26.5097  -43.1065 C.3       13 UNK        -0.1800 
     77 C          -0.5047  -27.5741  -45.3386 C.2       13 UNK         0.5000 
     78 O          -0.7034  -28.7789  -45.5009 O.2       13 UNK        -0.5000 
     79 N           0.5797  -26.9312  -45.7926 N.am      14 UNK        -0.5000 
     80 CA          1.7013  -27.5765  -46.4753 C.3       14 UNK         0.1400 
     81 CB          2.9222  -26.6445  -46.4275 C.3       14 UNK        -0.1800 
     82 C           1.4028  -27.9834  -47.9296 C.2       14 UNK         0.5000 
     83 O           1.8908  -29.0249  -48.3721 O.2       14 UNK        -0.5000 
     84 N           0.6444  -27.1536  -48.6530 N.am      15 UNK        -0.5000 
     85 CA          0.3719  -27.2923  -50.0808 C.3       15 UNK         0.1400 
     86 CB          1.4059  -26.4603  -50.8699 C.3       15 UNK        -0.1800 
     87 C          -1.0935  -26.9229  -50.3787 C.2       15 UNK         0.5000 
     88 O          -1.9815  -27.2835  -49.6041 O.2       15 UNK        -0.5000 
     89 N          -1.3329  -26.2507  -51.5126 N.am      16 UNK        -0.5000 
     90 CA         -2.6394  -25.7440  -51.9347 C.3       16 UNK         0.1400 
     91 CB         -2.5431  -25.3019  -53.4039 C.3       16 UNK        -0.1800 
     92 C          -3.1135  -24.5728  -51.0545 C.2       16 UNK         0.5000 
     93 O          -2.2866  -23.8781  -50.4622 O.2       16 UNK        -0.5000 
     94 N          -4.4358  -24.3622  -51.0090 N.am      17 UNK        -0.5000 
     95 CA         -5.0891  -23.2837  -50.2642 C.3       17 UNK         0.1400 
     96 CB         -6.6120  -23.4263  -50.4060 C.3       17 UNK        -0.1800 
     97 C          -4.6329  -21.8827  -50.7168 C.2       17 UNK         0.5000 
     98 O          -4.4579  -21.6508  -51.9149 O.2       17 UNK        -0.5000 
     99 N          -4.4552  -20.9850  -49.7428 N.am      18 UNK        -0.5000 
    100 CA        -4.0158  -19.6090  -49.9502 C.3       18 UNK         0.1400 
    101 CB        -3.4689  -19.0747  -48.6176 C.3       18 UNK        -0.1800 
    102 C         -5.1492  -18.7047  -50.4646 C.2       18 UNK         0.5000 
    103 O         -6.3150  -18.9369  -50.1340 O.2       18 UNK        -0.5000 
    104 N         -4.7541  -17.6600  -51.2067 N.am      19 UNK        -0.5000 
    105 CA        -5.5771  -16.6039  -51.8103 C.3       19 UNK         0.1400 
    106 CB        -6.3688  -15.8356  -50.7312 C.3       19 UNK        -0.1800 
    107 C         -6.4921  -17.0872  -52.9564 C.2       19 UNK         0.5000 
    108 O         -6.6758  -18.2885  -53.1610 O.2       19 UNK        -0.5000 
    109 N         -7.0359  -16.1153  -53.7043 N.am      20 UNK        -0.5000 
    110 CA        -7.8383  -16.2856  -54.9208 C.3       20 UNK         0.1400 
    111 CB        -9.2009  -16.9417  -54.5989 C.3       20 UNK        -0.1800 
    112 C         -7.0265  -16.9956  -56.0262 C.2       20 UNK         0.5000 
    113 O         -5.9035  -16.5723  -56.3089 O.2       20 UNK        -0.5000 
    114 N         -7.5770  -18.0592  -56.6242 N.am      21 UNK        -0.5000 
    115 CA        -6.9379  -18.8848  -57.6521 C.3       21 UNK         0.1400 
    116 CB        -8.0375  -19.5529  -58.4979 C.3       21 UNK        -0.1800 
    117 C         -5.9467  -19.9049  -57.0459 C.2       21 UNK         0.5000 
    118 O         -6.0500  -21.1040  -57.3111 O.2       21 UNK        -0.5000 
    119 N         -5.0119  -19.4126  -56.2260 N.am      22 UNK        -0.5000 
    120 CA        -3.9816  -20.2022  -55.5332 C.3       22 UNK         0.1400 
    121 C         -2.7640  -20.6200  -56.4101 C.2       22 UNK         0.5000 
    122 N         -2.6338  -20.1448  -57.6429 N.am      22 UNK        -0.7600 
    123 O         -1.9262  -21.4007  -55.9673 O.2       22 UNK        -0.5000 
    124 C124       -3.5432  -19.5269  -54.2100 C.3       23 UNK        -0.0398 
    125 S125       -2.8795  -17.8324  -54.4018 S.3       23 UNK        -0.2404 
    126 C126       -1.1022  -18.0841  -54.0920 C.3       23 UNK        -0.0205 
    127 H127        3.2530  -14.0439  -51.6817 H         1 UNK         0.0600 
    128 H128        4.8396  -14.8008  -51.5196 H         1 UNK         0.0600 
    129 H129        4.6933  -13.0403  -51.4870 H         1 UNK         0.0600 
    130 H130        2.0532  -14.1841  -49.8118 H         1 UNK         0.3000 
    131 H131        3.2326  -14.8581  -47.2697 H         1 UNK         0.0600 
    132 H132        0.8827  -14.9026  -46.4414 H         1 UNK         0.0800 
    133 H133        0.3172  -14.1919  -47.9284 H         1 UNK         0.0800 
    134 H134       -1.3246  -16.2249  -48.8512 H         1 UNK         0.0800 
    135 H135       -0.2475  -15.3954  -49.9560 H         1 UNK         0.0800 
    136 H136       -0.8588  -16.2605  -52.0869 H         1 UNK         0.1150 
    137 H137       -0.6870  -20.4737  -52.8466 H         1 UNK         0.1150 
    138 H138       -0.1960  -18.9886  -48.8599 H         1 UNK         0.1150 
    139 H139       -1.0646  -21.5380  -49.5715 H         1 UNK         0.0800 
    140 H140       -0.4287  -22.0254  -51.1156 H         1 UNK         0.0800 
    141 H141        1.8595  -20.6432  -47.4779 H         1 UNK         0.0800 
    142 H142        0.1351  -20.7473  -47.6733 H         1 UNK         0.0800 
    143 H143        1.9392  -23.1517  -47.1554 H         1 UNK         0.0600 
    144 H144        1.0111  -21.2533  -45.2765 H         1 UNK         0.3000 
    145 H145        0.9873  -23.4204  -42.4151 H         1 UNK         0.0600 
    146 H146        2.4474  -21.5948  -41.6255 H         1 UNK         0.0600 
    147 H147        3.3169  -22.5761  -42.7946 H         1 UNK         0.0600 
    148 H148        2.6742  -21.0087  -43.2718 H         1 UNK         0.0600 
    149 H149        0.2779  -20.6878  -42.6649 H         1 UNK         0.3000 
    150 H150       -3.2087  -21.1998  -43.4292 H         1 UNK         0.0600 
    151 H151       -2.8990  -21.4238  -40.9532 H         1 UNK         0.0600 
    152 H152       -3.3981  -19.8014  -41.4058 H         1 UNK         0.0600 
    153 H153       -1.7172  -20.1196  -40.9813 H         1 UNK         0.0600 
    154 H154       -1.7750  -18.7935  -43.0878 H         1 UNK         0.3000 
    155 H155       -0.8049  -18.3460  -46.5332 H         1 UNK         0.0600 
    156 H156       -1.9478  -16.2136  -46.0442 H         1 UNK         0.0600 
    157 H157       -2.6794  -16.8950  -44.5932 H         1 UNK         0.0600 
    158 H158       -3.1350  -17.5028  -46.1767 H         1 UNK         0.0600 
    159 H159       -0.2175  -16.7720  -44.2472 H         1 UNK         0.3000 
    160 H160        2.8586  -18.3521  -43.3318 H         1 UNK         0.0600 
    161 H161        2.1416  -15.6275  -44.5410 H         1 UNK         0.0600 
    162 H162        3.3476  -16.7378  -45.1721 H         1 UNK         0.0600 
    163 H163        3.5827  -15.9947  -43.5968 H         1 UNK         0.0600 
    164 H164        1.3088  -16.1667  -42.2668 H         1 UNK         0.3000 
    165 H165       -0.4709  -18.0993  -39.8395 H         1 UNK         0.0600 
    166 H166        1.8413  -16.1022  -39.5676 H         1 UNK         0.0600 
    167 H167        0.6575  -16.5000  -38.3220 H         1 UNK         0.0600 
    168 H168        1.8009  -17.7161  -38.8677 H         1 UNK         0.0600 
    169 H169       -0.3774  -15.2972  -40.3472 H         1 UNK         0.3000 
    170 H170       -2.8966  -15.1329  -42.8358 H         1 UNK         0.0600 
    171 H171       -4.2238  -15.4445  -40.7408 H         1 UNK         0.0600 
    172 H172       -3.0831  -14.4399  -39.8543 H         1 UNK         0.0600 
    173 H173       -4.0613  -13.7438  -41.1470 H         1 UNK         0.0600 
    174 H174       -1.6364  -13.0785  -41.3722 H         1 UNK         0.3000 
    175 H175        0.0012  -11.8557  -42.0725 H         1 UNK         0.0600 
    176 H176        2.4421  -11.9467  -42.5961 H         1 UNK         0.0600 
    177 H177        1.9320  -13.2982  -41.5947 H         1 UNK         0.0600 
    178 H178        2.2365  -13.5446  -43.3064 H         1 UNK         0.0600 
    179 H179        0.9678  -11.9943  -44.8263 H         1 UNK         0.3000 
    180 H180       -1.5653  -11.0580  -46.4536 H         1 UNK         0.0600 
    181 H181       -1.4322   -8.5986  -46.9408 H         1 UNK         0.0600 
    182 H182       -2.4137   -8.9538  -45.5306 H         1 UNK         0.0600 
    183 H183       -0.7886   -8.3217  -45.3225 H         1 UNK         0.0600 
    184 H184        0.3926  -11.1800  -47.4312 H         1 UNK         0.3000 
    185 H185        2.6935   -9.7100  -48.1803 H         1 UNK         0.0600 
    186 H186        4.9458  -10.3798  -47.3001 H         1 UNK         0.0600 
    187 H187        4.2643   -9.0304  -46.4075 H         1 UNK         0.0600 
    188 H188        4.2424  -10.6424  -45.7052 H         1 UNK         0.0600 
    189 H189        2.6726  -11.8544  -48.7760 H         1 UNK         0.3000 
    190 H190       -1.4285  -22.2419  -46.2282 H         1 UNK         0.3000 
    191 H191       -2.7627  -24.0171  -47.9633 H         1 UNK         0.0600 
    192 H192       -4.7210  -23.5745  -46.4879 H         1 UNK         0.0600 
    193 H193       -3.8493  -22.0890  -46.8408 H         1 UNK         0.0600 
    194 H194       -3.6615  -22.8699  -45.2727 H         1 UNK         0.0600 
    195 H195       -1.3291  -24.6367  -44.7852 H         1 UNK         0.3000 
    196 H196       -2.4636  -27.3019  -44.5091 H         1 UNK         0.0600 
    197 H197       -0.8707  -27.4587  -42.6019 H         1 UNK         0.0600 
    198 H198       -1.8062  -25.9726  -42.5266 H         1 UNK         0.0600 
    199 H199       -0.1313  -25.9321  -43.0694 H         1 UNK         0.0600 
    200 H200        0.6889  -25.9436  -45.5820 H         1 UNK         0.3000 
    201 H201        1.9546  -28.4855  -45.9255 H         1 UNK         0.0600 
    202 H202        3.2096  -26.4238  -45.3993 H         1 UNK         0.0600 
    203 H203        2.7224  -25.6970  -46.9297 H         1 UNK         0.0600 
    204 H204        3.7844  -27.1009  -46.9153 H         1 UNK         0.0600 
    205 H205        0.2766  -26.3068  -48.2216 H         1 UNK         0.3000 
    206 H206        0.4787  -28.3380  -50.3755 H         1 UNK         0.0600 
    207 H207        2.4236  -26.7435  -50.6003 H         1 UNK         0.0600 
    208 H208        1.3115  -26.6155  -51.9451 H         1 UNK         0.0600 
    209 H209        1.2972  -25.3931  -50.6694 H         1 UNK         0.0600 
    210 H210       -0.5441  -25.9664  -52.0736 H         1 UNK         0.3000 
    211 H211       -3.3650  -26.5564  -51.8568 H         1 UNK         0.0600 
    212 H212       -1.8268  -24.4892  -53.5328 H         1 UNK         0.0600 
    213 H213       -3.5070  -24.9475  -53.7714 H         1 UNK         0.0600 
    214 H214       -2.2355  -26.1271  -54.0464 H         1 UNK         0.0600 
    215 H215       -5.0424  -24.9547  -51.5562 H         1 UNK         0.3000 
    216 H216       -4.8300  -23.4127  -49.2118 H         1 UNK         0.0600 
    217 H217       -7.1309  -22.6495  -49.8426 H         1 UNK         0.0600 
    218 H218       -6.9573  -24.3879  -50.0258 H         1 UNK         0.0600 
    219 H219       -6.9275  -23.3414  -51.4467 H         1 UNK         0.0600 
    220 H220       -4.6785  -21.2384  -48.7928 H         1 UNK         0.3000 
    221 H221       -3.2115  -19.6101  -50.6875 H         1 UNK         0.0600 
    222 H222       -4.2355  -19.0670  -47.8419 H         1 UNK         0.0600 
    223 H223       -2.6393  -19.6847  -48.2607 H         1 UNK         0.0600 
    224 H224       -3.1000  -18.0544  -48.7250 H         1 UNK         0.0600 
    225 H225       -3.7707  -17.5944  -51.4287 H         1 UNK         0.3000 
    226 H226       -4.8646  -15.9085  -52.2569 H         1 UNK         0.0600 
    227 H227       -5.7182  -15.5157  -49.9171 H         1 UNK         0.0600 
    228 H228       -6.8308  -14.9385  -51.1442 H         1 UNK         0.0600 
    229 H229       -7.1682  -16.4412  -50.3037 H         1 UNK         0.0600 
    230 H230       -6.8032  -15.1582  -53.4803 H         1 UNK         0.3000 
    231 H231       -8.0406  -15.2818  -55.2967 H         1 UNK         0.0600 
    232 H232       -9.8510  -16.9507  -55.4746 H         1 UNK         0.0600 
    233 H233       -9.7246  -16.3851  -53.8216 H         1 UNK         0.0600 
    234 H234       -9.0949  -17.9696  -54.2508 H         1 UNK         0.0600 
    235 H235       -8.4815  -18.3714  -56.3022 H         1 UNK         0.3000 
    236 H236       -6.3616  -18.2377  -58.3167 H         1 UNK         0.0600 
    237 H237       -8.6933  -18.8089  -58.9504 H         1 UNK         0.0600 
    238 H238       -7.6060  -20.1383  -59.3108 H         1 UNK         0.0600 
    239 H239       -8.6544  -20.2242  -57.8992 H         1 UNK         0.0600 
    240 H240       -4.9954  -18.4121  -56.0601 H         1 UNK         0.3000 
    241 H241       -4.4490  -21.1459  -55.2448 H         1 UNK         0.0600 
    242 H242       -3.3097  -19.4987  -58.0168 H         1 UNK         0.3800 
    243 H243       -1.8450  -20.4271  -58.2032 H         1 UNK         0.3800 
    244 H244       -4.4030  -19.4671  -53.5446 H         1 UNK         0.0800 
    245 H245       -2.8323  -20.1611  -53.6830 H         1 UNK         0.0800 
    246 H246       -0.7342  -18.9067  -54.7075 H         1 UNK         0.0800 
    247 H247       -0.5593  -17.1956  -54.4172 H         1 UNK         0.0800 
@<TRIPOS>BOND
     1    1    2 1    
     2    1  127 1    
     3    1  128 1    
     4    1  129 1    
     5    2    3 2    
     6    2    4 am   BACKBONE|DICT|INTERRES
     7    4    5 1    
     8    4  130 1    
     9    5    6 1    
    10    5   65 1    
    11    5  131 1    
    12    6    7 1    
    13    6  132 1    
    14    6  133 1    
    15    7    8 1    
    16    8    9 1    
    17    8  134 1    
    18    8  135 1    
    19    9   10 ar   
    20    9   14 ar   
    21   10   11 ar   
    22   10  136 1    
    23   11   12 ar   
    24   11  126 1    
    25   12   13 ar   
    26   12  137 1    
    27   13   14 ar   
    28   13   15 1    
    29   14  138 1    
    30   15   16 1    
    31   15  139 1    
    32   15  140 1    
    33   16   17 1    
    34   17   18 1    
    35   17  141 1    
    36   17  142 1    
    37   18   19 1    
    38   18   67 1    
    39   18  143 1    
    40   19   20 am   BACKBONE|DICT|INTERRES
    41   19  144 1    
    42   20   21 2    
    43   20   22 1    
    44   22   23 1    
    45   22   24 1    
    46   22  145 1    
    47   23  146 1    
    48   23  147 1    
    49   23  148 1    
    50   24   25 am   BACKBONE|DICT|INTERRES
    51   24  149 1    
    52   25   26 2    
    53   25   27 1    
    54   27   28 1    
    55   27   29 1    
    56   27  150 1    
    57   28  151 1    
    58   28  152 1    
    59   28  153 1    
    60   29   30 am   BACKBONE|DICT|INTERRES
    61   29  154 1    
    62   30   31 2    
    63   30   32 1    
    64   32   33 1    
    65   32   34 1    
    66   32  155 1    
    67   33  156 1    
    68   33  157 1    
    69   33  158 1    
    70   34   35 am   BACKBONE|DICT|INTERRES
    71   34  159 1    
    72   35   36 2    
    73   35   37 1    
    74   37   38 1    
    75   37   39 1    
    76   37  160 1    
    77   38  161 1    
    78   38  162 1    
    79   38  163 1    
    80   39   40 am   BACKBONE|DICT|INTERRES
    81   39  164 1    
    82   40   41 2    
    83   40   42 1    
    84   42   43 1    
    85   42   44 1    
    86   42  165 1    
    87   43  166 1    
    88   43  167 1    
    89   43  168 1    
    90   44   45 am   BACKBONE|DICT|INTERRES
    91   44  169 1    
    92   45   46 2    
    93   45   47 1    
    94   47   48 1    
    95   47   49 1    
    96   47  170 1    
    97   48  171 1    
    98   48  172 1    
    99   48  173 1    
   100   49   50 am   BACKBONE|DICT|INTERRES
   101   49  174 1    
   102   50   51 2    
   103   50   52 1    
   104   52   53 1    
   105   52   54 1    
   106   52  175 1    
   107   53  176 1    
   108   53  177 1    
   109   53  178 1    
   110   54   55 am   BACKBONE|DICT|INTERRES
   111   54  179 1    
   112   55   56 2    
   113   55   57 1    
   114   57   58 1    
   115   57   59 1    
   116   57  180 1    
   117   58  181 1    
   118   58  182 1    
   119   58  183 1    
   120   59   60 am   BACKBONE|DICT|INTERRES
   121   59  184 1    
   122   60   61 2    
   123   60   62 1    
   124   62   63 1    
   125   62   64 1    
   126   62  185 1    
   127   63  186 1    
   128   63  187 1    
   129   63  188 1    
   130   64   65 am   BACKBONE|DICT|INTERRES
   131   64  189 1    
   132   65   66 2    
   133   67   68 2    
   134   67   69 am   BACKBONE|DICT|INTERRES
   135   69   70 1    
   136   69  190 1    
   137   70   71 1    
   138   70   72 1    
   139   70  191 1    
   140   71  192 1    
   141   71  193 1    
   142   71  194 1    
   143   72   73 2    
   144   72   74 am   BACKBONE|DICT|INTERRES
   145   74   75 1    
   146   74  195 1    
   147   75   76 1    
   148   75   77 1    
   149   75  196 1    
   150   76  197 1    
   151   76  198 1    
   152   76  199 1    
   153   77   78 2    
   154   77   79 am   BACKBONE|DICT|INTERRES
   155   79   80 1    
   156   79  200 1    
   157   80   81 1    
   158   80   82 1    
   159   80  201 1    
   160   81  202 1    
   161   81  203 1    
   162   81  204 1    
   163   82   83 2    
   164   82   84 am   BACKBONE|DICT|INTERRES
   165   84   85 1    
   166   84  205 1    
   167   85   86 1    
   168   85   87 1    
   169   85  206 1    
   170   86  207 1    
   171   86  208 1    
   172   86  209 1    
   173   87   88 2    
   174   87   89 am   BACKBONE|DICT|INTERRES
   175   89   90 1    
   176   89  210 1    
   177   90   91 1    
   178   90   92 1    
   179   90  211 1    
   180   91  212 1    
   181   91  213 1    
   182   91  214 1    
   183   92   93 2    
   184   92   94 am   BACKBONE|DICT|INTERRES
   185   94   95 1    
   186   94  215 1    
   187   95   96 1    
   188   95   97 1    
   189   95  216 1    
   190   96  217 1    
   191   96  218 1    
   192   96  219 1    
   193   97   98 2    
   194   97   99 am   BACKBONE|DICT|INTERRES
   195   99  100 1    
   196   99  220 1    
   197  100  101 1    
   198  100  102 1    
   199  100  221 1    
   200  101  222 1    
   201  101  223 1    
   202  101  224 1    
   203  102  103 2    
   204  102  104 am   BACKBONE|DICT|INTERRES
   205  104  105 1    
   206  104  225 1    
   207  105  106 1    
   208  105  107 1    
   209  105  226 1    
   210  106  227 1    
   211  106  228 1    
   212  106  229 1    
   213  107  108 2    
   214  107  109 am   BACKBONE|DICT|INTERRES
   215  109  110 1    
   216  109  230 1    
   217  110  111 1    
   218  110  112 1    
   219  110  231 1    
   220  111  232 1    
   221  111  233 1    
   222  111  234 1    
   223  112  113 2    
   224  112  114 am   BACKBONE|DICT|INTERRES
   225  114  115 1    
   226  114  235 1    
   227  115  116 1    
   228  115  117 1    
   229  115  236 1    
   230  116  237 1    
   231  116  238 1    
   232  116  239 1    
   233  117  118 2    
   234  117  119 am   BACKBONE|DICT|INTERRES
   235  119  120 1    
   236  119  240 1    
   237  120  121 1    
   238  120  124 1    
   239  120  241 1    
   240  121  122 am   BACKBONE|DICT|INTERRES
   241  121  123 2    
   242  122  242 1    
   243  122  243 1    
   244  124  125 1    
   245  124  244 1    
   246  124  245 1    
   247  125  126 1    
   248  126  246 1    
   249  126  247 1    
@<TRIPOS>SUBSTRUCTURE
     1 UNK         1 GROUP             0       ****    0 ROOT    
