@<TRIPOS>MOLECULE
3R540
247   249    1
SMALL
USER_CHARGES


@<TRIPOS>ATOM
      1 CA          4.9733   -9.1743  -47.2641 C.3       0 UNK        -0.1800 
      2 C           3.9595  -10.2955  -47.4405 C.2       0 UNK         0.5000 
      3 O           2.7701  -10.0929  -47.1936 O.2       0 UNK        -0.5000 
      4 N           4.4176  -11.4748  -47.8799 N.am      1 UNK        -0.5000 
      5 CA          3.6119  -12.6791  -48.1158 C.3       1 UNK         0.1400 
      6 C6          4.4818  -13.9577  -47.9748 C.3       23 UNK        -0.0398 
      7 S7          3.5094  -15.4968  -47.7985 S.3       23 UNK        -0.2404 
      8 C8          4.0359  -16.3939  -49.2952 C.3       23 UNK        -0.0205 
      9 C9          3.0088  -17.4220  -49.7400 C.ar      23 UNK        -0.0193 
     10 C10         1.7556  -17.0016  -50.1921 C.ar      23 UNK        -0.1150 
     11 C11         0.8115  -17.9295  -50.6376 C.ar      23 UNK        -0.0193 
     12 C12         1.1418  -19.2878  -50.6514 C.ar      23 UNK        -0.1150 
     13 C13         2.3962  -19.7253  -50.2090 C.ar      23 UNK        -0.0193 
     14 C14         3.3209  -18.7841  -49.7457 C.ar      23 UNK        -0.1150 
     15 C15         2.7939  -21.1981  -50.2711 C.3       23 UNK        -0.0205 
     16 S16         1.4656  -22.3551  -49.8055 S.3       23 UNK        -0.2404 
     17 C17         1.2021  -21.9150  -48.0596 C.3       23 UNK        -0.0398 
     18 CA          0.3967  -22.9901  -47.2914 C.3       11 UNK         0.1400 
     19 N           0.5909  -22.8496  -45.8489 N.am      11 UNK        -0.5000 
     20 C           0.2316  -23.7368  -44.9148 C.2       10 UNK         0.5000 
     21 O          -0.3163  -24.8061  -45.1792 O.2       10 UNK        -0.5000 
     22 CA          0.4600  -23.3411  -43.4406 C.3       10 UNK         0.1400 
     23 CB          0.9622  -24.5227  -42.5869 C.3       10 UNK        -0.1800 
     24 N           1.3010  -22.1508  -43.2607 N.am      10 UNK        -0.5000 
     25 C           2.6092  -22.0046  -43.5255 C.2       9 UNK         0.5000 
     26 O           3.3273  -22.9085  -43.9526 O.2       9 UNK        -0.5000 
     27 CA          3.2172  -20.6002  -43.3177 C.3       9 UNK         0.1400 
     28 CB          3.5685  -19.9709  -44.6763 C.3       9 UNK        -0.1800 
     29 N           2.3347  -19.6799  -42.5976 N.am      9 UNK        -0.5000 
     30 C           2.0553  -19.7308  -41.2881 C.2       8 UNK         0.5000 
     31 O           2.5832  -20.5194  -40.5040 O.2       8 UNK        -0.5000 
     32 CA          0.9550  -18.7743  -40.7891 C.3       8 UNK         0.1400 
     33 CB          1.5376  -17.3958  -40.4415 C.3       8 UNK        -0.1800 
     34 N          -0.1285  -18.6191  -41.7651 N.am      8 UNK        -0.5000 
     35 C          -0.9934  -19.5879  -42.1001 C.2       7 UNK         0.5000 
     36 O          -0.9934  -20.7084  -41.5922 O.2       7 UNK        -0.5000 
     37 CA         -1.9870  -19.2767  -43.2308 C.3       7 UNK         0.1400 
     38 CB         -3.2316  -18.5583  -42.6911 C.3       7 UNK        -0.1800 
     39 N          -1.3704  -18.4756  -44.2886 N.am      7 UNK        -0.5000 
     40 C          -0.5537  -18.9807  -45.2257 C.2       6 UNK         0.5000 
     41 O          -0.3143  -20.1825  -45.3370 O.2       6 UNK        -0.5000 
     42 CA          0.1095  -17.9945  -46.2068 C.3       6 UNK         0.1400 
     43 CB         -0.7654  -17.8479  -47.4563 C.3       6 UNK        -0.1800 
     44 N           0.3288  -16.6658  -45.6415 N.am      6 UNK        -0.5000 
     45 C           1.0628  -16.3831  -44.5574 C.2       5 UNK         0.5000 
     46 O           1.7320  -17.2184  -43.9517 O.2       5 UNK        -0.5000 
     47 CA          0.9664  -14.9433  -44.0146 C.3       5 UNK         0.1400 
     48 CB          2.1978  -14.1256  -44.4244 C.3       5 UNK        -0.1800 
     49 N          -0.2443  -14.2357  -44.4461 N.am      5 UNK        -0.5000 
     50 C          -1.5049  -14.5919  -44.1683 C.2       4 UNK         0.5000 
     51 O          -1.7931  -15.5795  -43.4918 O.2       4 UNK        -0.5000 
     52 CA         -2.6300  -13.7524  -44.8038 C.3       4 UNK         0.1400 
     53 CB         -2.7806  -12.3914  -44.0979 C.3       4 UNK        -0.1800 
     54 N          -2.5256  -13.5978  -46.2648 N.am      4 UNK        -0.5000 
     55 C          -1.6017  -12.9379  -46.9778 C.2       3 UNK         0.5000 
     56 O          -0.6273  -12.3653  -46.4786 O.2       3 UNK        -0.5000 
     57 CA         -1.7964  -12.9139  -48.5047 C.3       3 UNK         0.1400 
     58 CB         -3.0924  -12.1729  -48.8916 C.3       3 UNK        -0.1800 
     59 N          -0.6340  -12.2465  -49.0776 N.am      3 UNK        -0.5000 
     60 C          -0.2788  -12.1572  -50.3640 C.2       2 UNK         0.5000 
     61 O          -0.9117  -12.6566  -51.2940 O.2       2 UNK        -0.5000 
     62 CA          1.0199  -11.3800  -50.6515 C.3       2 UNK         0.1400 
     63 CB          0.7245   -9.8835  -50.8357 C.3       2 UNK        -0.1800 
     64 N           1.9875  -11.5456  -49.5656 N.am      2 UNK        -0.5000 
     65 C           2.8258  -12.5815  -49.4476 C.2       1 UNK         0.5000 
     66 O           2.9892  -13.4137  -50.3398 O.2       1 UNK        -0.5000 
     67 C          -1.1018  -22.9534  -47.6549 C.2       11 UNK         0.5000 
     68 O          -1.5621  -23.7632  -48.4618 O.2       11 UNK        -0.5000 
     69 N          -1.8456  -22.0405  -47.0138 N.am      12 UNK        -0.5000 
     70 CA         -3.2982  -21.9316  -47.1478 C.3       12 UNK         0.1400 
     71 CB         -3.7615  -20.5691  -46.6122 C.3       12 UNK        -0.1800 
     72 C          -4.0361  -23.0792  -46.4343 C.2       12 UNK         0.5000 
     73 O          -5.0666  -23.5333  -46.9290 O.2       12 UNK        -0.5000 
     74 N          -3.4830  -23.5423  -45.3033 N.am      13 UNK        -0.5000 
     75 CA         -4.0232  -24.6404  -44.4977 C.3       13 UNK         0.1400 
     76 CB         -3.3315  -24.6601  -43.1257 C.3       13 UNK        -0.1800 
     77 C          -3.8915  -26.0042  -45.1998 C.2       13 UNK         0.5000 
     78 O          -4.8350  -26.7949  -45.1787 O.2       13 UNK        -0.5000 
     79 N          -2.7378  -26.2370  -45.8407 N.am      14 UNK        -0.5000 
     80 CA         -2.4575  -27.4174  -46.6619 C.3       14 UNK         0.1400 
     81 CB         -0.9355  -27.5355  -46.8436 C.3       14 UNK        -0.1800 
     82 C          -3.1514  -27.3829  -48.0390 C.2       14 UNK         0.5000 
     83 O          -3.1698  -28.4041  -48.7264 O.2       14 UNK        -0.5000 
     84 N          -3.6687  -26.2070  -48.4273 N.am      15 UNK        -0.5000 
     85 CA         -4.2649  -25.8620  -49.7233 C.3       15 UNK         0.1400 
     86 CB         -5.5080  -26.7230  -50.0257 C.3       15 UNK        -0.1800 
     87 C          -3.2479  -25.8521  -50.8848 C.2       15 UNK         0.5000 
     88 O          -3.6467  -25.8291  -52.0501 O.2       15 UNK        -0.5000 
     89 N          -1.9505  -25.7996  -50.5522 N.am      16 UNK        -0.5000 
     90 CA         -0.8295  -25.6559  -51.4830 C.3       16 UNK         0.1400 
     91 CB          0.4799  -25.9134  -50.7226 C.3       16 UNK        -0.1800 
     92 C          -0.8092  -24.2793  -52.1766 C.2       16 UNK         0.5000 
     93 O          -0.2662  -24.1566  -53.2746 O.2       16 UNK        -0.5000 
     94 N          -1.4518  -23.2874  -51.5437 N.am      17 UNK        -0.5000 
     95 CA         -1.7326  -21.9589  -52.0867 C.3       17 UNK         0.1400 
     96 CB         -2.2800  -21.0859  -50.9457 C.3       17 UNK        -0.1800 
     97 C          -2.7182  -21.9679  -53.2779 C.2       17 UNK         0.5000 
     98 O          -2.8043  -20.9671  -53.9881 O.2       17 UNK        -0.5000 
     99 N          -3.4571  -23.0769  -53.4601 N.am      18 UNK        -0.5000 
    100 CA        -4.4481  -23.3595  -54.5113 C.3       18 UNK         0.1400 
    101 CB        -3.8076  -23.2862  -55.9123 C.3       18 UNK        -0.1800 
    102 C         -5.7460  -22.5257  -54.4261 C.2       18 UNK         0.5000 
    103 O         -6.6417  -22.7084  -55.2520 O.2       18 UNK        -0.5000 
    104 N         -5.8431  -21.6576  -53.4179 N.am      19 UNK        -0.5000 
    105 CA        -6.9568  -20.7828  -53.0849 C.3       19 UNK         0.1400 
    106 CB        -7.0687  -19.6399  -54.1103 C.3       19 UNK        -0.1800 
    107 C         -6.6862  -20.2377  -51.6764 C.2       19 UNK         0.5000 
    108 O         -5.5360  -20.2721  -51.2246 O.2       19 UNK        -0.5000 
    109 N         -7.7383  -19.7417  -51.0123 N.am      20 UNK        -0.5000 
    110 CA        -7.7078  -19.1683  -49.6638 C.3       20 UNK         0.1400 
    111 CB        -9.1322  -18.7491  -49.2646 C.3       20 UNK        -0.1800 
    112 C         -6.7237  -17.9873  -49.5674 C.2       20 UNK         0.5000 
    113 O         -7.0341  -16.8911  -50.0377 O.2       20 UNK        -0.5000 
    114 N         -5.5255  -18.2716  -49.0376 N.am      21 UNK        -0.5000 
    115 CA        -4.3564  -17.3896  -48.9643 C.3       21 UNK         0.1400 
    116 CB        -4.5581  -16.3097  -47.8834 C.3       21 UNK        -0.1800 
    117 C         -3.9425  -16.8128  -50.3353 C.2       21 UNK         0.5000 
    118 O         -3.5886  -15.6374  -50.4265 O.2       21 UNK        -0.5000 
    119 N         -4.0103  -17.6637  -51.3699 N.am      22 UNK        -0.5000 
    120 CA        -3.7924  -17.3403  -52.7924 C.3       22 UNK         0.1400 
    121 C         -4.9281  -16.4818  -53.4350 C.2       22 UNK         0.5000 
    122 N         -6.0472  -16.2221  -52.7676 N.am      22 UNK        -0.7600 
    123 O         -4.8143  -16.0709  -54.5865 O.2       22 UNK        -0.5000 
    124 C124       -2.3786  -16.7619  -53.1065 C.3       23 UNK        -0.0398 
    125 S125       -0.9963  -17.9066  -52.7645 S.3       23 UNK        -0.2404 
    126 C126       -0.5755  -17.4603  -51.0524 C.3       23 UNK        -0.0205 
    127 H127        5.9833   -9.4965  -47.5191 H         1 UNK         0.0600 
    128 H128        4.7136   -8.3303  -47.9031 H         1 UNK         0.0600 
    129 H129        4.9767   -8.8316  -46.2293 H         1 UNK         0.0600 
    130 H130        5.3999  -11.5616  -48.0998 H         1 UNK         0.3000 
    131 H131        2.8574  -12.7207  -47.3284 H         1 UNK         0.0600 
    132 H132        5.0949  -13.8800  -47.0757 H         1 UNK         0.0800 
    133 H133        5.1878  -14.0383  -48.8027 H         1 UNK         0.0800 
    134 H134        5.0020  -16.8628  -49.1031 H         1 UNK         0.0800 
    135 H135        4.1932  -15.6989  -50.1201 H         1 UNK         0.0800 
    136 H136        1.5171  -15.9467  -50.1841 H         1 UNK         0.1150 
    137 H137        0.4198  -20.0029  -51.0144 H         1 UNK         0.1150 
    138 H138        4.2962  -19.1098  -49.4122 H         1 UNK         0.1150 
    139 H139        3.1061  -21.4247  -51.2911 H         1 UNK         0.0800 
    140 H140        3.6594  -21.3901  -49.6350 H         1 UNK         0.0800 
    141 H141        2.1865  -21.7993  -47.6032 H         1 UNK         0.0800 
    142 H142        0.7255  -20.9348  -47.9986 H         1 UNK         0.0800 
    143 H143        0.7789  -23.9750  -47.5686 H         1 UNK         0.0600 
    144 H144        0.9182  -21.9480  -45.5281 H         1 UNK         0.3000 
    145 H145       -0.5220  -23.0612  -43.0579 H         1 UNK         0.0600 
    146 H146        1.1030  -24.2257  -41.5477 H         1 UNK         0.0600 
    147 H147        0.2442  -25.3435  -42.5939 H         1 UNK         0.0600 
    148 H148        1.9086  -24.9185  -42.9557 H         1 UNK         0.0600 
    149 H149        0.8117  -21.3398  -42.9067 H         1 UNK         0.3000 
    150 H150        4.1374  -20.7198  -42.7424 H         1 UNK         0.0600 
    151 H151        4.2718  -20.5947  -45.2295 H         1 UNK         0.0600 
    152 H152        4.0326  -18.9924  -44.5507 H         1 UNK         0.0600 
    153 H153        2.6832  -19.8425  -45.2996 H         1 UNK         0.0600 
    154 H154        1.9232  -18.9285  -43.1455 H         1 UNK         0.3000 
    155 H155        0.5306  -19.2020  -39.8783 H         1 UNK         0.0600 
    156 H156        0.7682  -16.7286  -40.0526 H         1 UNK         0.0600 
    157 H157        1.9922  -16.9153  -41.3079 H         1 UNK         0.0600 
    158 H158        2.3091  -17.4831  -39.6754 H         1 UNK         0.0600 
    159 H159       -0.1778  -17.7372  -42.2536 H         1 UNK         0.3000 
    160 H160       -2.3089  -20.2311  -43.6511 H         1 UNK         0.0600 
    161 H161       -2.9784  -17.6119  -42.2126 H         1 UNK         0.0600 
    162 H162       -3.7435  -19.1726  -41.9494 H         1 UNK         0.0600 
    163 H163       -3.9439  -18.3508  -43.4898 H         1 UNK         0.0600 
    164 H164       -1.5168  -17.4732  -44.2386 H         1 UNK         0.3000 
    165 H165        1.0789  -18.4015  -46.5008 H         1 UNK         0.0600 
    166 H166       -1.7609  -17.4854  -47.2008 H         1 UNK         0.0600 
    167 H167       -0.3262  -17.1395  -48.1570 H         1 UNK         0.0600 
    168 H168       -0.8771  -18.8015  -47.9744 H         1 UNK         0.0600 
    169 H169       -0.1777  -15.9059  -46.0683 H         1 UNK         0.3000 
    170 H170        0.9441  -15.0092  -42.9251 H         1 UNK         0.0600 
    171 H171        3.1204  -14.6231  -44.1221 H         1 UNK         0.0600 
    172 H172        2.2366  -13.9870  -45.5035 H         1 UNK         0.0600 
    173 H173        2.1907  -13.1395  -43.9598 H         1 UNK         0.0600 
    174 H174       -0.1176  -13.4305  -45.0554 H         1 UNK         0.3000 
    175 H175       -3.5566  -14.3039  -44.6351 H         1 UNK         0.0600 
    176 H176       -3.6263  -11.8325  -44.4987 H         1 UNK         0.0600 
    177 H177       -2.9572  -12.5258  -43.0300 H         1 UNK         0.0600 
    178 H178       -1.8901  -11.7714  -44.2032 H         1 UNK         0.0600 
    179 H179       -3.2784  -14.0325  -46.7785 H         1 UNK         0.3000 
    180 H180       -1.8304  -13.9424  -48.8696 H         1 UNK         0.0600 
    181 H181       -3.0840  -11.1405  -48.5398 H         1 UNK         0.0600 
    182 H182       -3.2363  -12.1569  -49.9718 H         1 UNK         0.0600 
    183 H183       -3.9706  -12.6599  -48.4666 H         1 UNK         0.0600 
    184 H184       -0.0350  -11.8370  -48.3704 H         1 UNK         0.3000 
    185 H185        1.4444  -11.7603  -51.5832 H         1 UNK         0.0600 
    186 H186        1.6309   -9.3316  -51.0853 H         1 UNK         0.0600 
    187 H187        0.0126   -9.7236  -51.6465 H         1 UNK         0.0600 
    188 H188        0.3004   -9.4412  -49.9333 H         1 UNK         0.0600 
    189 H189        1.9585  -10.8746  -48.8035 H         1 UNK         0.3000 
    190 H190       -1.3846  -21.4095  -46.3645 H         1 UNK         0.3000 
    191 H191       -3.5509  -21.9820  -48.2086 H         1 UNK         0.0600 
    192 H192       -4.8256  -20.4189  -46.7977 H         1 UNK         0.0600 
    193 H193       -3.2246  -19.7528  -47.0924 H         1 UNK         0.0600 
    194 H194       -3.6055  -20.4834  -45.5379 H         1 UNK         0.0600 
    195 H195       -2.6212  -23.1266  -44.9875 H         1 UNK         0.3000 
    196 H196       -5.0864  -24.4488  -44.3369 H         1 UNK         0.0600 
    197 H197       -3.7751  -25.4189  -42.4799 H         1 UNK         0.0600 
    198 H198       -3.4321  -23.7015  -42.6162 H         1 UNK         0.0600 
    199 H199       -2.2691  -24.8876  -43.2099 H         1 UNK         0.0600 
    200 H200       -1.9762  -25.5706  -45.7430 H         1 UNK         0.3000 
    201 H201       -2.8123  -28.3049  -46.1340 H         1 UNK         0.0600 
    202 H202       -0.4291  -27.6162  -45.8816 H         1 UNK         0.0600 
    203 H203       -0.5252  -26.6694  -47.3651 H         1 UNK         0.0600 
    204 H204       -0.6749  -28.4223  -47.4227 H         1 UNK         0.0600 
    205 H205       -3.5847  -25.4367  -47.7785 H         1 UNK         0.3000 
    206 H206       -4.6034  -24.8299  -49.6216 H         1 UNK         0.0600 
    207 H207       -6.2057  -26.7151  -49.1883 H         1 UNK         0.0600 
    208 H208       -6.0435  -26.3423  -50.8962 H         1 UNK         0.0600 
    209 H209       -5.2450  -27.7598  -50.2359 H         1 UNK         0.0600 
    210 H210       -1.7272  -25.7157  -49.5694 H         1 UNK         0.3000 
    211 H211       -0.9325  -26.4147  -52.2612 H         1 UNK         0.0600 
    212 H212        0.5963  -25.2302  -49.8813 H         1 UNK         0.0600 
    213 H213        1.3450  -25.7847  -51.3743 H         1 UNK         0.0600 
    214 H214        0.5138  -26.9306  -50.3323 H         1 UNK         0.0600 
    215 H215       -1.7929  -23.4770  -50.6091 H         1 UNK         0.3000 
    216 H216       -0.7936  -21.5287  -52.4398 H         1 UNK         0.0600 
    217 H217       -2.4884  -20.0745  -51.2922 H         1 UNK         0.0600 
    218 H218       -1.5677  -21.0083  -50.1243 H         1 UNK         0.0600 
    219 H219       -3.2091  -21.4914  -50.5452 H         1 UNK         0.0600 
    220 H220       -3.3141  -23.8440  -52.8138 H         1 UNK         0.3000 
    221 H221       -4.7532  -24.3942  -54.3490 H         1 UNK         0.0600 
    222 H222       -3.5403  -22.2651  -56.1849 H         1 UNK         0.0600 
    223 H223       -2.9059  -23.8963  -55.9658 H         1 UNK         0.0600 
    224 H224       -4.4939  -23.6555  -56.6752 H         1 UNK         0.0600 
    225 H225       -5.0675  -21.5729  -52.7724 H         1 UNK         0.3000 
    226 H226       -7.8797  -21.3655  -53.0677 H         1 UNK         0.0600 
    227 H227       -7.8307  -18.9165  -53.8181 H         1 UNK         0.0600 
    228 H228       -6.1260  -19.1027  -54.2124 H         1 UNK         0.0600 
    229 H229       -7.3434  -20.0161  -55.0956 H         1 UNK         0.0600 
    230 H230       -8.6368  -19.7309  -51.4727 H         1 UNK         0.3000 
    231 H231       -7.3838  -19.9506  -48.9742 H         1 UNK         0.0600 
    232 H232       -9.1441  -18.3108  -48.2659 H         1 UNK         0.0600 
    233 H233       -9.8064  -19.6057  -49.2504 H         1 UNK         0.0600 
    234 H234       -9.5443  -18.0095  -49.9525 H         1 UNK         0.0600 
    235 H235       -5.3602  -19.2292  -48.7633 H         1 UNK         0.3000 
    236 H236       -3.5240  -18.0194  -48.6538 H         1 UNK         0.0600 
    237 H237       -5.3589  -15.6185  -48.1487 H         1 UNK         0.0600 
    238 H238       -4.8035  -16.7570  -46.9201 H         1 UNK         0.0600 
    239 H239       -3.6483  -15.7266  -47.7477 H         1 UNK         0.0600 
    240 H240       -4.3646  -18.5985  -51.1952 H         1 UNK         0.3000 
    241 H241       -3.8614  -18.2997  -53.3066 H         1 UNK         0.0600 
    242 H242       -6.7640  -15.6751  -53.2164 H         1 UNK         0.3800 
    243 H243       -6.1822  -16.5205  -51.8081 H         1 UNK         0.3800 
    244 H244       -2.2154  -15.8133  -52.5944 H         1 UNK         0.0800 
    245 H245       -2.3015  -16.5269  -54.1690 H         1 UNK         0.0800 
    246 H246       -0.6657  -16.3804  -50.9236 H         1 UNK         0.0800 
    247 H247       -1.3034  -17.9172  -50.3839 H         1 UNK         0.0800 
@<TRIPOS>BOND
     1    1    2 1    
     2    1  127 1    
     3    1  128 1    
     4    1  129 1    
     5    2    3 2    
     6    2    4 am   BACKBONE|DICT|INTERRES
     7    4    5 1    
     8    4  130 1    
     9    5    6 1    
    10    5   65 1    
    11    5  131 1    
    12    6    7 1    
    13    6  132 1    
    14    6  133 1    
    15    7    8 1    
    16    8    9 1    
    17    8  134 1    
    18    8  135 1    
    19    9   10 ar   
    20    9   14 ar   
    21   10   11 ar   
    22   10  136 1    
    23   11   12 ar   
    24   11  126 1    
    25   12   13 ar   
    26   12  137 1    
    27   13   14 ar   
    28   13   15 1    
    29   14  138 1    
    30   15   16 1    
    31   15  139 1    
    32   15  140 1    
    33   16   17 1    
    34   17   18 1    
    35   17  141 1    
    36   17  142 1    
    37   18   19 1    
    38   18   67 1    
    39   18  143 1    
    40   19   20 am   BACKBONE|DICT|INTERRES
    41   19  144 1    
    42   20   21 2    
    43   20   22 1    
    44   22   23 1    
    45   22   24 1    
    46   22  145 1    
    47   23  146 1    
    48   23  147 1    
    49   23  148 1    
    50   24   25 am   BACKBONE|DICT|INTERRES
    51   24  149 1    
    52   25   26 2    
    53   25   27 1    
    54   27   28 1    
    55   27   29 1    
    56   27  150 1    
    57   28  151 1    
    58   28  152 1    
    59   28  153 1    
    60   29   30 am   BACKBONE|DICT|INTERRES
    61   29  154 1    
    62   30   31 2    
    63   30   32 1    
    64   32   33 1    
    65   32   34 1    
    66   32  155 1    
    67   33  156 1    
    68   33  157 1    
    69   33  158 1    
    70   34   35 am   BACKBONE|DICT|INTERRES
    71   34  159 1    
    72   35   36 2    
    73   35   37 1    
    74   37   38 1    
    75   37   39 1    
    76   37  160 1    
    77   38  161 1    
    78   38  162 1    
    79   38  163 1    
    80   39   40 am   BACKBONE|DICT|INTERRES
    81   39  164 1    
    82   40   41 2    
    83   40   42 1    
    84   42   43 1    
    85   42   44 1    
    86   42  165 1    
    87   43  166 1    
    88   43  167 1    
    89   43  168 1    
    90   44   45 am   BACKBONE|DICT|INTERRES
    91   44  169 1    
    92   45   46 2    
    93   45   47 1    
    94   47   48 1    
    95   47   49 1    
    96   47  170 1    
    97   48  171 1    
    98   48  172 1    
    99   48  173 1    
   100   49   50 am   BACKBONE|DICT|INTERRES
   101   49  174 1    
   102   50   51 2    
   103   50   52 1    
   104   52   53 1    
   105   52   54 1    
   106   52  175 1    
   107   53  176 1    
   108   53  177 1    
   109   53  178 1    
   110   54   55 am   BACKBONE|DICT|INTERRES
   111   54  179 1    
   112   55   56 2    
   113   55   57 1    
   114   57   58 1    
   115   57   59 1    
   116   57  180 1    
   117   58  181 1    
   118   58  182 1    
   119   58  183 1    
   120   59   60 am   BACKBONE|DICT|INTERRES
   121   59  184 1    
   122   60   61 2    
   123   60   62 1    
   124   62   63 1    
   125   62   64 1    
   126   62  185 1    
   127   63  186 1    
   128   63  187 1    
   129   63  188 1    
   130   64   65 am   BACKBONE|DICT|INTERRES
   131   64  189 1    
   132   65   66 2    
   133   67   68 2    
   134   67   69 am   BACKBONE|DICT|INTERRES
   135   69   70 1    
   136   69  190 1    
   137   70   71 1    
   138   70   72 1    
   139   70  191 1    
   140   71  192 1    
   141   71  193 1    
   142   71  194 1    
   143   72   73 2    
   144   72   74 am   BACKBONE|DICT|INTERRES
   145   74   75 1    
   146   74  195 1    
   147   75   76 1    
   148   75   77 1    
   149   75  196 1    
   150   76  197 1    
   151   76  198 1    
   152   76  199 1    
   153   77   78 2    
   154   77   79 am   BACKBONE|DICT|INTERRES
   155   79   80 1    
   156   79  200 1    
   157   80   81 1    
   158   80   82 1    
   159   80  201 1    
   160   81  202 1    
   161   81  203 1    
   162   81  204 1    
   163   82   83 2    
   164   82   84 am   BACKBONE|DICT|INTERRES
   165   84   85 1    
   166   84  205 1    
   167   85   86 1    
   168   85   87 1    
   169   85  206 1    
   170   86  207 1    
   171   86  208 1    
   172   86  209 1    
   173   87   88 2    
   174   87   89 am   BACKBONE|DICT|INTERRES
   175   89   90 1    
   176   89  210 1    
   177   90   91 1    
   178   90   92 1    
   179   90  211 1    
   180   91  212 1    
   181   91  213 1    
   182   91  214 1    
   183   92   93 2    
   184   92   94 am   BACKBONE|DICT|INTERRES
   185   94   95 1    
   186   94  215 1    
   187   95   96 1    
   188   95   97 1    
   189   95  216 1    
   190   96  217 1    
   191   96  218 1    
   192   96  219 1    
   193   97   98 2    
   194   97   99 am   BACKBONE|DICT|INTERRES
   195   99  100 1    
   196   99  220 1    
   197  100  101 1    
   198  100  102 1    
   199  100  221 1    
   200  101  222 1    
   201  101  223 1    
   202  101  224 1    
   203  102  103 2    
   204  102  104 am   BACKBONE|DICT|INTERRES
   205  104  105 1    
   206  104  225 1    
   207  105  106 1    
   208  105  107 1    
   209  105  226 1    
   210  106  227 1    
   211  106  228 1    
   212  106  229 1    
   213  107  108 2    
   214  107  109 am   BACKBONE|DICT|INTERRES
   215  109  110 1    
   216  109  230 1    
   217  110  111 1    
   218  110  112 1    
   219  110  231 1    
   220  111  232 1    
   221  111  233 1    
   222  111  234 1    
   223  112  113 2    
   224  112  114 am   BACKBONE|DICT|INTERRES
   225  114  115 1    
   226  114  235 1    
   227  115  116 1    
   228  115  117 1    
   229  115  236 1    
   230  116  237 1    
   231  116  238 1    
   232  116  239 1    
   233  117  118 2    
   234  117  119 am   BACKBONE|DICT|INTERRES
   235  119  120 1    
   236  119  240 1    
   237  120  121 1    
   238  120  124 1    
   239  120  241 1    
   240  121  122 am   BACKBONE|DICT|INTERRES
   241  121  123 2    
   242  122  242 1    
   243  122  243 1    
   244  124  125 1    
   245  124  244 1    
   246  124  245 1    
   247  125  126 1    
   248  126  246 1    
   249  126  247 1    
@<TRIPOS>SUBSTRUCTURE
     1 UNK         1 GROUP             0       ****    0 ROOT    
