@<TRIPOS>MOLECULE
3R540
247   249    1
SMALL
USER_CHARGES


@<TRIPOS>ATOM
      1 CA          0.6445  -10.4803  -48.9950 C.3       0 UNK        -0.1800 
      2 C           2.0972  -10.6568  -48.5750 C.2       0 UNK         0.5000 
      3 O           2.9624   -9.9020  -49.0200 O.2       0 UNK        -0.5000 
      4 N           2.3646  -11.6570  -47.7284 N.am      1 UNK        -0.5000 
      5 CA          3.6841  -11.9732  -47.1700 C.3       1 UNK         0.1400 
      6 C6          3.7179  -13.3942  -46.5419 C.3       23 UNK        -0.0398 
      7 S7          2.9419  -14.6862  -47.5675 S.3       23 UNK        -0.2404 
      8 C8          4.3865  -15.5693  -48.2221 C.3       23 UNK        -0.0205 
      9 C9          3.9591  -16.7931  -49.0167 C.ar      23 UNK        -0.0193 
     10 C10         3.2776  -16.6392  -50.2267 C.ar      23 UNK        -0.1150 
     11 C11         2.8717  -17.7487  -50.9734 C.ar      23 UNK        -0.0193 
     12 C12         3.1931  -19.0302  -50.5021 C.ar      23 UNK        -0.1150 
     13 C13         3.8610  -19.2006  -49.2867 C.ar      23 UNK        -0.0193 
     14 C14         4.2395  -18.0780  -48.5463 C.ar      23 UNK        -0.1150 
     15 C15         4.1862  -20.5969  -48.7772 C.3       23 UNK        -0.0205 
     16 S16         2.9658  -21.1792  -47.5583 S.3       23 UNK        -0.2404 
     17 C17         1.5450  -21.6091  -48.6186 C.3       23 UNK        -0.0398 
     18 CA          0.5054  -22.4673  -47.8568 C.3       11 UNK         0.1400 
     19 N          -0.1869  -21.7286  -46.7947 N.am      11 UNK        -0.5000 
     20 C          -0.9766  -22.2974  -45.8718 C.2       10 UNK         0.5000 
     21 O          -1.1546  -23.5120  -45.7852 O.2       10 UNK        -0.5000 
     22 CA         -1.7465  -21.3604  -44.9216 C.3       10 UNK         0.1400 
     23 CB         -0.8869  -20.9773  -43.7084 C.3       10 UNK        -0.1800 
     24 N          -2.2502  -20.1576  -45.5878 N.am      10 UNK        -0.5000 
     25 C          -3.1327  -20.1686  -46.5975 C.2       9 UNK         0.5000 
     26 O          -3.6462  -21.1942  -47.0381 O.2       9 UNK        -0.5000 
     27 CA         -3.4419  -18.8279  -47.2847 C.3       9 UNK         0.1400 
     28 CB         -4.4814  -18.0235  -46.4936 C.3       9 UNK        -0.1800 
     29 N          -2.2411  -18.0234  -47.4968 N.am      9 UNK        -0.5000 
     30 C          -1.2030  -18.3973  -48.2582 C.2       8 UNK         0.5000 
     31 O          -1.1874  -19.4300  -48.9304 O.2       8 UNK        -0.5000 
     32 CA          0.0292  -17.4766  -48.2292 C.3       8 UNK         0.1400 
     33 CB         -0.1721  -16.2753  -49.1656 C.3       8 UNK        -0.1800 
     34 N           0.3217  -17.0070  -46.8730 N.am      8 UNK        -0.5000 
     35 C           0.7197  -17.8070  -45.8735 C.2       7 UNK         0.5000 
     36 O           0.9203  -19.0125  -46.0093 O.2       7 UNK        -0.5000 
     37 CA          0.8435  -17.1756  -44.4747 C.3       7 UNK         0.1400 
     38 CB          2.1980  -16.4819  -44.2822 C.3       7 UNK        -0.1800 
     39 N          -0.2401  -16.2335  -44.1930 N.am      7 UNK        -0.5000 
     40 C          -1.5092  -16.6093  -43.9721 C.2       6 UNK         0.5000 
     41 O          -1.8727  -17.7839  -43.9447 O.2       6 UNK        -0.5000 
     42 CA         -2.5615  -15.4970  -43.7935 C.3       6 UNK         0.1400 
     43 CB         -2.6700  -15.0939  -42.3156 C.3       6 UNK        -0.1800 
     44 N          -2.2855  -14.3052  -44.5931 N.am      6 UNK        -0.5000 
     45 C          -2.1581  -14.2755  -45.9267 C.2       5 UNK         0.5000 
     46 O          -2.3685  -15.2482  -46.6507 O.2       5 UNK        -0.5000 
     47 CA         -1.6618  -12.9571  -46.5552 C.3       5 UNK         0.1400 
     48 CB         -2.8150  -12.2301  -47.2619 C.3       5 UNK        -0.1800 
     49 N          -1.0205  -12.0341  -45.6083 N.am      5 UNK        -0.5000 
     50 C           0.0905  -12.2933  -44.9039 C.2       4 UNK         0.5000 
     51 O           0.6976  -13.3630  -44.9821 O.2       4 UNK        -0.5000 
     52 CA          0.5788  -11.1665  -43.9723 C.3       4 UNK         0.1400 
     53 CB         -0.4711  -10.8094  -42.8983 C.3       4 UNK        -0.1800 
     54 N           1.8917  -11.4400  -43.3754 N.am      4 UNK        -0.5000 
     55 C           2.2178  -12.3289  -42.4227 C.2       3 UNK         0.5000 
     56 O           1.3961  -13.0324  -41.8331 O.2       3 UNK        -0.5000 
     57 CA          3.7183  -12.4609  -42.0655 C.3       3 UNK         0.1400 
     58 CB          4.1190  -13.9268  -41.8233 C.3       3 UNK        -0.1800 
     59 N           4.5939  -11.9166  -43.1058 N.am      3 UNK        -0.5000 
     60 C           5.0955  -10.6746  -43.1545 C.2       2 UNK         0.5000 
     61 O           4.9496   -9.8394  -42.2624 O.2       2 UNK        -0.5000 
     62 CA          5.8423  -10.2913  -44.4533 C.3       2 UNK         0.1400 
     63 CB          7.3517  -10.5308  -44.2983 C.3       2 UNK        -0.1800 
     64 N           5.3553  -11.0221  -45.6328 N.am      2 UNK        -0.5000 
     65 C           4.1040  -10.9312  -46.1075 C.2       1 UNK         0.5000 
     66 O           3.2784  -10.1316  -45.6580 O.2       1 UNK        -0.5000 
     67 C          -0.4878  -23.1504  -48.8215 C.2       11 UNK         0.5000 
     68 O          -0.3086  -24.3311  -49.1191 O.2       11 UNK        -0.5000 
     69 N          -1.5449  -22.4394  -49.2472 N.am      12 UNK        -0.5000 
     70 CA         -2.6349  -23.0174  -50.0456 C.3       12 UNK         0.1400 
     71 CB         -3.5771  -21.9230  -50.5669 C.3       12 UNK        -0.1800 
     72 C          -3.4458  -24.0838  -49.2901 C.2       12 UNK         0.5000 
     73 O          -3.8162  -25.0976  -49.8840 O.2       12 UNK        -0.5000 
     74 N          -3.7161  -23.8382  -48.0020 N.am      13 UNK        -0.5000 
     75 CA         -4.4181  -24.7626  -47.1132 C.3       13 UNK         0.1400 
     76 CB         -4.7260  -24.0780  -45.7748 C.3       13 UNK        -0.1800 
     77 C          -3.6453  -26.0774  -46.9024 C.2       13 UNK         0.5000 
     78 O          -4.2531  -27.1466  -46.9249 O.2       13 UNK        -0.5000 
     79 N          -2.3186  -25.9806  -46.7523 N.am      14 UNK        -0.5000 
     80 CA         -1.4149  -27.1262  -46.6760 C.3       14 UNK         0.1400 
     81 CB         -0.0312  -26.6529  -46.2044 C.3       14 UNK        -0.1800 
     82 C          -1.3048  -27.8847  -48.0123 C.2       14 UNK         0.5000 
     83 O          -1.2997  -29.1164  -48.0092 O.2       14 UNK        -0.5000 
     84 N          -1.2054  -27.1412  -49.1229 N.am      15 UNK        -0.5000 
     85 CA         -1.0004  -27.6894  -50.4621 C.3       15 UNK         0.1400 
     86 CB         -0.4941  -26.5822  -51.4000 C.3       15 UNK        -0.1800 
     87 C          -2.2476  -28.3632  -51.0590 C.2       15 UNK         0.5000 
     88 O          -2.1296  -29.4653  -51.5973 O.2       15 UNK        -0.5000 
     89 N          -3.3990  -27.6800  -51.0014 N.am      16 UNK        -0.5000 
     90 CA         -4.5913  -28.0390  -51.7763 C.3       16 UNK         0.1400 
     91 CB         -4.6353  -27.1465  -53.0307 C.3       16 UNK        -0.1800 
     92 C          -5.9098  -27.9313  -50.9913 C.2       16 UNK         0.5000 
     93 O          -6.9552  -28.2578  -51.5541 O.2       16 UNK        -0.5000 
     94 N          -5.8635  -27.4530  -49.7380 N.am      17 UNK        -0.5000 
     95 CA         -7.0094  -27.1832  -48.8512 C.3       17 UNK         0.1400 
     96 CB         -7.8037  -28.4722  -48.5518 C.3       17 UNK        -0.1800 
     97 C          -7.9210  -26.0275  -49.3271 C.2       17 UNK         0.5000 
     98 O          -9.0082  -25.8461  -48.7774 O.2       17 UNK        -0.5000 
     99 N          -7.4703  -25.2621  -50.3306 N.am      18 UNK        -0.5000 
    100 CA        -8.2423  -24.2028  -50.9813 C.3       18 UNK         0.1400 
    101 CB        -7.7176  -24.0266  -52.4156 C.3       18 UNK        -0.1800 
    102 C         -8.1811  -22.8613  -50.2316 C.2       18 UNK         0.5000 
    103 O         -9.1258  -22.0775  -50.3193 O.2       18 UNK        -0.5000 
    104 N         -7.0515  -22.6086  -49.5519 N.am      19 UNK        -0.5000 
    105 CA        -6.6872  -21.3737  -48.8379 C.3       19 UNK         0.1400 
    106 CB        -7.6158  -21.1407  -47.6304 C.3       19 UNK        -0.1800 
    107 C         -6.5592  -20.1151  -49.7335 C.2       19 UNK         0.5000 
    108 O         -6.4576  -19.0019  -49.2172 O.2       19 UNK        -0.5000 
    109 N         -6.5299  -20.3037  -51.0595 N.am      20 UNK        -0.5000 
    110 CA        -6.5535  -19.2643  -52.0896 C.3       20 UNK         0.1400 
    111 CB        -7.1687  -19.8716  -53.3640 C.3       20 UNK        -0.1800 
    112 C         -5.1746  -18.6172  -52.3479 C.2       20 UNK         0.5000 
    113 O         -4.7187  -18.5785  -53.4927 O.2       20 UNK        -0.5000 
    114 N         -4.5347  -18.1197  -51.2790 N.am      21 UNK        -0.5000 
    115 CA        -3.3093  -17.3020  -51.2734 C.3       21 UNK         0.1400 
    116 CB        -3.6441  -15.8623  -51.7106 C.3       21 UNK        -0.1800 
    117 C         -2.1266  -17.9043  -52.0708 C.2       21 UNK         0.5000 
    118 O         -1.4175  -17.1841  -52.7731 O.2       21 UNK        -0.5000 
    119 N         -1.9660  -19.2258  -51.9532 N.am      22 UNK        -0.5000 
    120 CA        -0.9911  -20.0776  -52.6553 C.3       22 UNK         0.1400 
    121 C         -1.2229  -20.2508  -54.1900 C.2       22 UNK         0.5000 
    122 N         -2.3163  -19.7579  -54.7610 N.am      22 UNK        -0.7600 
    123 O         -0.4374  -20.9074  -54.8677 O.2       22 UNK        -0.5000 
    124 C124        0.4767  -19.8508  -52.1774 C.3       23 UNK        -0.0398 
    125 S125        1.6331  -18.9413  -53.2687 S.3       23 UNK        -0.2404 
    126 C126        2.0789  -17.4873  -52.2584 C.3       23 UNK        -0.0205 
    127 H127        0.0111  -11.2769  -48.6056 H         1 UNK         0.0600 
    128 H128        0.5637  -10.4852  -50.0820 H         1 UNK         0.0600 
    129 H129        0.2606   -9.5290  -48.6268 H         1 UNK         0.0600 
    130 H130        1.6166  -12.2528  -47.4061 H         1 UNK         0.3000 
    131 H131        4.4118  -11.9376  -47.9834 H         1 UNK         0.0600 
    132 H132        3.1970  -13.4023  -45.5839 H         1 UNK         0.0800 
    133 H133        4.7443  -13.6895  -46.3199 H         1 UNK         0.0800 
    134 H134        4.9633  -14.9007  -48.8627 H         1 UNK         0.0800 
    135 H135        5.0396  -15.8583  -47.3973 H         1 UNK         0.0800 
    136 H136        3.0457  -15.6435  -50.5787 H         1 UNK         0.1150 
    137 H137        2.9231  -19.9101  -51.0638 H         1 UNK         0.1150 
    138 H138        4.7551  -18.2082  -47.6052 H         1 UNK         0.1150 
    139 H139        4.2538  -21.3062  -49.6035 H         1 UNK         0.0800 
    140 H140        5.1707  -20.5884  -48.3073 H         1 UNK         0.0800 
    141 H141        1.9270  -22.1517  -49.4853 H         1 UNK         0.0800 
    142 H142        1.0954  -20.6923  -48.9994 H         1 UNK         0.0800 
    143 H143        1.0514  -23.2779  -47.3685 H         1 UNK         0.0600 
    144 H144       -0.0342  -20.7263  -46.7603 H         1 UNK         0.3000 
    145 H145       -2.6130  -21.9093  -44.5497 H         1 UNK         0.0600 
    146 H146       -1.4531  -20.3749  -42.9981 H         1 UNK         0.0600 
    147 H147       -0.5445  -21.8671  -43.1787 H         1 UNK         0.0600 
    148 H148       -0.0031  -20.4109  -43.9987 H         1 UNK         0.0600 
    149 H149       -1.9109  -19.2674  -45.2371 H         1 UNK         0.3000 
    150 H150       -3.8629  -19.0501  -48.2665 H         1 UNK         0.0600 
    151 H151       -5.4104  -18.5856  -46.3920 H         1 UNK         0.0600 
    152 H152       -4.7219  -17.0870  -46.9974 H         1 UNK         0.0600 
    153 H153       -4.1304  -17.7856  -45.4902 H         1 UNK         0.0600 
    154 H154       -2.1991  -17.1255  -47.0219 H         1 UNK         0.3000 
    155 H155        0.8891  -18.0494  -48.5831 H         1 UNK         0.0600 
    156 H156       -0.3208  -16.6079  -50.1912 H         1 UNK         0.0600 
    157 H157        0.6977  -15.6211  -49.1679 H         1 UNK         0.0600 
    158 H158       -1.0391  -15.6766  -48.8877 H         1 UNK         0.0600 
    159 H159        0.1578  -16.0305  -46.6786 H         1 UNK         0.3000 
    160 H160        0.7863  -17.9879  -43.7468 H         1 UNK         0.0600 
    161 H161        2.2793  -15.5837  -44.8910 H         1 UNK         0.0600 
    162 H162        3.0227  -17.1424  -44.5528 H         1 UNK         0.0600 
    163 H163        2.3376  -16.1913  -43.2414 H         1 UNK         0.0600 
    164 H164       -0.0116  -15.2463  -44.2390 H         1 UNK         0.3000 
    165 H165       -3.5261  -15.8950  -44.1133 H         1 UNK         0.0600 
    166 H166       -3.4681  -14.3676  -42.1615 H         1 UNK         0.0600 
    167 H167       -2.8941  -15.9593  -41.6904 H         1 UNK         0.0600 
    168 H168       -1.7404  -14.6555  -41.9492 H         1 UNK         0.0600 
    169 H169       -2.0886  -13.4574  -44.0835 H         1 UNK         0.3000 
    170 H170       -0.9181  -13.2290  -47.3069 H         1 UNK         0.0600 
    171 H171       -3.2911  -12.8769  -48.0004 H         1 UNK         0.0600 
    172 H172       -3.5847  -11.9163  -46.5557 H         1 UNK         0.0600 
    173 H173       -2.4612  -11.3443  -47.7897 H         1 UNK         0.0600 
    174 H174       -1.4698  -11.1367  -45.4940 H         1 UNK         0.3000 
    175 H175        0.7229  -10.2864  -44.6006 H         1 UNK         0.0600 
    176 H176       -0.7768  -11.6801  -42.3175 H         1 UNK         0.0600 
    177 H177       -0.0860  -10.0623  -42.2042 H         1 UNK         0.0600 
    178 H178       -1.3713  -10.3914  -43.3494 H         1 UNK         0.0600 
    179 H179        2.6496  -10.9362  -43.8196 H         1 UNK         0.3000 
    180 H180        3.8710  -11.9125  -41.1339 H         1 UNK         0.0600 
    181 H181        3.9889  -14.5299  -42.7218 H         1 UNK         0.0600 
    182 H182        3.5207  -14.3787  -41.0311 H         1 UNK         0.0600 
    183 H183        5.1630  -14.0028  -41.5189 H         1 UNK         0.0600 
    184 H184        4.7839  -12.5290  -43.8838 H         1 UNK         0.3000 
    185 H185        5.6799   -9.2251  -44.6251 H         1 UNK         0.0600 
    186 H186        7.7482   -9.9807  -43.4439 H         1 UNK         0.0600 
    187 H187        7.5789  -11.5862  -44.1431 H         1 UNK         0.0600 
    188 H188        7.8973  -10.1950  -45.1803 H         1 UNK         0.0600 
    189 H189        6.0011  -11.6771  -46.0503 H         1 UNK         0.3000 
    190 H190       -1.6260  -21.4677  -48.9660 H         1 UNK         0.3000 
    191 H191       -2.1935  -23.5158  -50.9112 H         1 UNK         0.0600 
    192 H192       -3.2126  -21.4925  -51.4924 H         1 UNK         0.0600 
    193 H193       -4.5566  -22.3317  -50.8132 H         1 UNK         0.0600 
    194 H194       -3.7162  -21.1220  -49.8416 H         1 UNK         0.0600 
    195 H195       -3.4428  -22.9426  -47.6035 H         1 UNK         0.3000 
    196 H196       -5.3704  -24.9985  -47.5869 H         1 UNK         0.0600 
    197 H197       -5.3155  -24.7315  -45.1308 H         1 UNK         0.0600 
    198 H198       -5.2990  -23.1621  -45.9211 H         1 UNK         0.0600 
    199 H199       -3.8152  -23.8231  -45.2347 H         1 UNK         0.0600 
    200 H200       -1.8977  -25.0585  -46.6762 H         1 UNK         0.3000 
    201 H201       -1.8074  -27.8199  -45.9294 H         1 UNK         0.0600 
    202 H202       -0.0900  -26.1846  -45.2217 H         1 UNK         0.0600 
    203 H203        0.4030  -25.9274  -46.8931 H         1 UNK         0.0600 
    204 H204        0.6634  -27.4901  -46.1257 H         1 UNK         0.0600 
    205 H205       -1.1562  -26.1311  -49.0347 H         1 UNK         0.3000 
    206 H206       -0.2171  -28.4480  -50.3981 H         1 UNK         0.0600 
    207 H207        0.4545  -26.1741  -51.0507 H         1 UNK         0.0600 
    208 H208       -0.3298  -26.9661  -52.4076 H         1 UNK         0.0600 
    209 H209       -1.2059  -25.7595  -51.4736 H         1 UNK         0.0600 
    210 H210       -3.4117  -26.7667  -50.5519 H         1 UNK         0.3000 
    211 H211       -4.5332  -29.0795  -52.1018 H         1 UNK         0.0600 
    212 H212       -4.7009  -26.0900  -52.7671 H         1 UNK         0.0600 
    213 H213       -5.4952  -27.3838  -53.6585 H         1 UNK         0.0600 
    214 H214       -3.7435  -27.2832  -53.6426 H         1 UNK         0.0600 
    215 H215       -4.9574  -27.2177  -49.3556 H         1 UNK         0.3000 
    216 H216       -6.5973  -26.8541  -47.9004 H         1 UNK         0.0600 
    217 H217       -8.5291  -28.3068  -47.7544 H         1 UNK         0.0600 
    218 H218       -7.1427  -29.2744  -48.2236 H         1 UNK         0.0600 
    219 H219       -8.3570  -28.8255  -49.4219 H         1 UNK         0.0600 
    220 H220       -6.5677  -25.4835  -50.7247 H         1 UNK         0.3000 
    221 H221       -9.2900  -24.5066  -51.0377 H         1 UNK         0.0600 
    222 H222       -6.6652  -23.7399  -52.4311 H         1 UNK         0.0600 
    223 H223       -7.8200  -24.9497  -52.9868 H         1 UNK         0.0600 
    224 H224       -8.2770  -23.2546  -52.9461 H         1 UNK         0.0600 
    225 H225       -6.3585  -23.3419  -49.5344 H         1 UNK         0.3000 
    226 H226       -5.6911  -21.5554  -48.4419 H         1 UNK         0.0600 
    227 H227       -7.6657  -22.0262  -46.9967 H         1 UNK         0.0600 
    228 H228       -7.2528  -20.3210  -47.0095 H         1 UNK         0.0600 
    229 H229       -8.6305  -20.8907  -47.9408 H         1 UNK         0.0600 
    230 H230       -6.5937  -21.2517  -51.3954 H         1 UNK         0.3000 
    231 H231       -7.2169  -18.4636  -51.7561 H         1 UNK         0.0600 
    232 H232       -6.5552  -20.6814  -53.7610 H         1 UNK         0.0600 
    233 H233       -7.2710  -19.1203  -54.1482 H         1 UNK         0.0600 
    234 H234       -8.1647  -20.2703  -53.1694 H         1 UNK         0.0600 
    235 H235       -5.0065  -18.2238  -50.3860 H         1 UNK         0.3000 
    236 H236       -2.9832  -17.2535  -50.2353 H         1 UNK         0.0600 
    237 H237       -4.4449  -15.4417  -51.1023 H         1 UNK         0.0600 
    238 H238       -2.7792  -15.2067  -51.6015 H         1 UNK         0.0600 
    239 H239       -3.9587  -15.8228  -52.7541 H         1 UNK         0.0600 
    240 H240       -2.6031  -19.7128  -51.3422 H         1 UNK         0.3000 
    241 H241       -1.2314  -21.0731  -52.2857 H         1 UNK         0.0600 
    242 H242       -2.4616  -19.9004  -55.7474 H         1 UNK         0.3800 
    243 H243       -3.0143  -19.2534  -54.2231 H         1 UNK         0.3800 
    244 H244        0.4727  -19.3894  -51.1894 H         1 UNK         0.0800 
    245 H245        0.9346  -20.8289  -52.0233 H         1 UNK         0.0800 
    246 H246        1.1655  -16.9485  -52.0076 H         1 UNK         0.0800 
    247 H247        2.6624  -16.8161  -52.8900 H         1 UNK         0.0800 
@<TRIPOS>BOND
     1    1    2 1    
     2    1  127 1    
     3    1  128 1    
     4    1  129 1    
     5    2    3 2    
     6    2    4 am   BACKBONE|DICT|INTERRES
     7    4    5 1    
     8    4  130 1    
     9    5    6 1    
    10    5   65 1    
    11    5  131 1    
    12    6    7 1    
    13    6  132 1    
    14    6  133 1    
    15    7    8 1    
    16    8    9 1    
    17    8  134 1    
    18    8  135 1    
    19    9   10 ar   
    20    9   14 ar   
    21   10   11 ar   
    22   10  136 1    
    23   11   12 ar   
    24   11  126 1    
    25   12   13 ar   
    26   12  137 1    
    27   13   14 ar   
    28   13   15 1    
    29   14  138 1    
    30   15   16 1    
    31   15  139 1    
    32   15  140 1    
    33   16   17 1    
    34   17   18 1    
    35   17  141 1    
    36   17  142 1    
    37   18   19 1    
    38   18   67 1    
    39   18  143 1    
    40   19   20 am   BACKBONE|DICT|INTERRES
    41   19  144 1    
    42   20   21 2    
    43   20   22 1    
    44   22   23 1    
    45   22   24 1    
    46   22  145 1    
    47   23  146 1    
    48   23  147 1    
    49   23  148 1    
    50   24   25 am   BACKBONE|DICT|INTERRES
    51   24  149 1    
    52   25   26 2    
    53   25   27 1    
    54   27   28 1    
    55   27   29 1    
    56   27  150 1    
    57   28  151 1    
    58   28  152 1    
    59   28  153 1    
    60   29   30 am   BACKBONE|DICT|INTERRES
    61   29  154 1    
    62   30   31 2    
    63   30   32 1    
    64   32   33 1    
    65   32   34 1    
    66   32  155 1    
    67   33  156 1    
    68   33  157 1    
    69   33  158 1    
    70   34   35 am   BACKBONE|DICT|INTERRES
    71   34  159 1    
    72   35   36 2    
    73   35   37 1    
    74   37   38 1    
    75   37   39 1    
    76   37  160 1    
    77   38  161 1    
    78   38  162 1    
    79   38  163 1    
    80   39   40 am   BACKBONE|DICT|INTERRES
    81   39  164 1    
    82   40   41 2    
    83   40   42 1    
    84   42   43 1    
    85   42   44 1    
    86   42  165 1    
    87   43  166 1    
    88   43  167 1    
    89   43  168 1    
    90   44   45 am   BACKBONE|DICT|INTERRES
    91   44  169 1    
    92   45   46 2    
    93   45   47 1    
    94   47   48 1    
    95   47   49 1    
    96   47  170 1    
    97   48  171 1    
    98   48  172 1    
    99   48  173 1    
   100   49   50 am   BACKBONE|DICT|INTERRES
   101   49  174 1    
   102   50   51 2    
   103   50   52 1    
   104   52   53 1    
   105   52   54 1    
   106   52  175 1    
   107   53  176 1    
   108   53  177 1    
   109   53  178 1    
   110   54   55 am   BACKBONE|DICT|INTERRES
   111   54  179 1    
   112   55   56 2    
   113   55   57 1    
   114   57   58 1    
   115   57   59 1    
   116   57  180 1    
   117   58  181 1    
   118   58  182 1    
   119   58  183 1    
   120   59   60 am   BACKBONE|DICT|INTERRES
   121   59  184 1    
   122   60   61 2    
   123   60   62 1    
   124   62   63 1    
   125   62   64 1    
   126   62  185 1    
   127   63  186 1    
   128   63  187 1    
   129   63  188 1    
   130   64   65 am   BACKBONE|DICT|INTERRES
   131   64  189 1    
   132   65   66 2    
   133   67   68 2    
   134   67   69 am   BACKBONE|DICT|INTERRES
   135   69   70 1    
   136   69  190 1    
   137   70   71 1    
   138   70   72 1    
   139   70  191 1    
   140   71  192 1    
   141   71  193 1    
   142   71  194 1    
   143   72   73 2    
   144   72   74 am   BACKBONE|DICT|INTERRES
   145   74   75 1    
   146   74  195 1    
   147   75   76 1    
   148   75   77 1    
   149   75  196 1    
   150   76  197 1    
   151   76  198 1    
   152   76  199 1    
   153   77   78 2    
   154   77   79 am   BACKBONE|DICT|INTERRES
   155   79   80 1    
   156   79  200 1    
   157   80   81 1    
   158   80   82 1    
   159   80  201 1    
   160   81  202 1    
   161   81  203 1    
   162   81  204 1    
   163   82   83 2    
   164   82   84 am   BACKBONE|DICT|INTERRES
   165   84   85 1    
   166   84  205 1    
   167   85   86 1    
   168   85   87 1    
   169   85  206 1    
   170   86  207 1    
   171   86  208 1    
   172   86  209 1    
   173   87   88 2    
   174   87   89 am   BACKBONE|DICT|INTERRES
   175   89   90 1    
   176   89  210 1    
   177   90   91 1    
   178   90   92 1    
   179   90  211 1    
   180   91  212 1    
   181   91  213 1    
   182   91  214 1    
   183   92   93 2    
   184   92   94 am   BACKBONE|DICT|INTERRES
   185   94   95 1    
   186   94  215 1    
   187   95   96 1    
   188   95   97 1    
   189   95  216 1    
   190   96  217 1    
   191   96  218 1    
   192   96  219 1    
   193   97   98 2    
   194   97   99 am   BACKBONE|DICT|INTERRES
   195   99  100 1    
   196   99  220 1    
   197  100  101 1    
   198  100  102 1    
   199  100  221 1    
   200  101  222 1    
   201  101  223 1    
   202  101  224 1    
   203  102  103 2    
   204  102  104 am   BACKBONE|DICT|INTERRES
   205  104  105 1    
   206  104  225 1    
   207  105  106 1    
   208  105  107 1    
   209  105  226 1    
   210  106  227 1    
   211  106  228 1    
   212  106  229 1    
   213  107  108 2    
   214  107  109 am   BACKBONE|DICT|INTERRES
   215  109  110 1    
   216  109  230 1    
   217  110  111 1    
   218  110  112 1    
   219  110  231 1    
   220  111  232 1    
   221  111  233 1    
   222  111  234 1    
   223  112  113 2    
   224  112  114 am   BACKBONE|DICT|INTERRES
   225  114  115 1    
   226  114  235 1    
   227  115  116 1    
   228  115  117 1    
   229  115  236 1    
   230  116  237 1    
   231  116  238 1    
   232  116  239 1    
   233  117  118 2    
   234  117  119 am   BACKBONE|DICT|INTERRES
   235  119  120 1    
   236  119  240 1    
   237  120  121 1    
   238  120  124 1    
   239  120  241 1    
   240  121  122 am   BACKBONE|DICT|INTERRES
   241  121  123 2    
   242  122  242 1    
   243  122  243 1    
   244  124  125 1    
   245  124  244 1    
   246  124  245 1    
   247  125  126 1    
   248  126  246 1    
   249  126  247 1    
@<TRIPOS>SUBSTRUCTURE
     1 UNK         1 GROUP             0       ****    0 ROOT    
