@<TRIPOS>MOLECULE
3R540
247   249    1
SMALL
USER_CHARGES


@<TRIPOS>ATOM
      1 CA         -1.0217   -8.9462  -44.6944 C.3       0 UNK        -0.1800 
      2 C          -0.7210   -9.6412  -46.0147 C.2       0 UNK         0.5000 
      3 O          -0.4376   -8.9726  -47.0089 O.2       0 UNK        -0.5000 
      4 N          -0.7817  -10.9790  -46.0276 N.am      1 UNK        -0.5000 
      5 CA         -0.5177  -11.8261  -47.2010 C.3       1 UNK         0.1400 
      6 C6         -1.0356  -13.2705  -46.9980 C.3       23 UNK        -0.0398 
      7 S7         -2.8324  -13.3194  -46.6736 S.3       23 UNK        -0.2404 
      8 C8         -3.4897  -13.9204  -48.2653 C.3       23 UNK        -0.0205 
      9 C9         -3.0945  -15.3652  -48.5334 C.ar      23 UNK        -0.0193 
     10 C10        -2.2895  -15.6925  -49.6292 C.ar      23 UNK        -0.1150 
     11 C11        -1.8880  -17.0150  -49.8443 C.ar      23 UNK        -0.0193 
     12 C12        -2.2904  -18.0078  -48.9469 C.ar      23 UNK        -0.1150 
     13 C13        -3.1123  -17.6958  -47.8608 C.ar      23 UNK        -0.0193 
     14 C14        -3.5210  -16.3750  -47.6674 C.ar      23 UNK        -0.1150 
     15 C15        -3.5009  -18.7664  -46.8559 C.3       23 UNK        -0.0205 
     16 S16        -4.5985  -20.0276  -47.5601 S.3       23 UNK        -0.2404 
     17 C17        -4.8534  -21.0968  -46.1026 C.3       23 UNK        -0.0398 
     18 CA         -3.8561  -22.2788  -46.0836 C.3       11 UNK         0.1400 
     19 N          -2.4984  -21.8655  -45.7057 N.am      11 UNK        -0.5000 
     20 C          -1.3961  -22.6144  -45.8519 C.2       10 UNK         0.5000 
     21 O          -1.4119  -23.7418  -46.3484 O.2       10 UNK        -0.5000 
     22 CA         -0.0673  -22.0453  -45.3186 C.3       10 UNK         0.1400 
     23 CB          0.7508  -21.4469  -46.4719 C.3       10 UNK        -0.1800 
     24 N          -0.2143  -21.0444  -44.2570 N.am      10 UNK        -0.5000 
     25 C          -0.8075  -21.2453  -43.0700 C.2       9 UNK         0.5000 
     26 O          -1.3546  -22.3026  -42.7546 O.2       9 UNK        -0.5000 
     27 CA         -0.8212  -20.0638  -42.0794 C.3       9 UNK         0.1400 
     28 CB          0.3610  -20.1673  -41.1055 C.3       9 UNK        -0.1800 
     29 N          -0.7941  -18.7534  -42.7326 N.am      9 UNK        -0.5000 
     30 C          -1.7787  -18.2635  -43.4982 C.2       8 UNK         0.5000 
     31 O          -2.8328  -18.8622  -43.7127 O.2       8 UNK        -0.5000 
     32 CA         -1.5278  -16.8966  -44.1618 C.3       8 UNK         0.1400 
     33 CB         -1.9391  -15.7456  -43.2321 C.3       8 UNK        -0.1800 
     34 N          -0.1307  -16.7273  -44.5604 N.am      8 UNK        -0.5000 
     35 C           0.4308  -17.3438  -45.6096 C.2       7 UNK         0.5000 
     36 O          -0.1754  -18.0991  -46.3646 O.2       7 UNK        -0.5000 
     37 CA          1.9342  -17.1071  -45.8298 C.3       7 UNK         0.1400 
     38 CB          2.1682  -15.7782  -46.5609 C.3       7 UNK        -0.1800 
     39 N           2.6953  -17.1209  -44.5798 N.am      7 UNK        -0.5000 
     40 C           2.8574  -18.2064  -43.8082 C.2       6 UNK         0.5000 
     41 O           2.4231  -19.3211  -44.0968 O.2       6 UNK        -0.5000 
     42 CA          3.5893  -18.0073  -42.4662 C.3       6 UNK         0.1400 
     43 CB          5.1000  -18.2205  -42.6429 C.3       6 UNK        -0.1800 
     44 N           3.3618  -16.6970  -41.8525 N.am      6 UNK        -0.5000 
     45 C           2.1688  -16.1690  -41.5426 C.2       5 UNK         0.5000 
     46 O           1.1006  -16.7510  -41.7321 O.2       5 UNK        -0.5000 
     47 CA          2.1551  -14.7486  -40.9420 C.3       5 UNK         0.1400 
     48 CB          1.7309  -14.7972  -39.4662 C.3       5 UNK        -0.1800 
     49 N           3.4336  -14.0357  -41.0449 N.am      5 UNK        -0.5000 
     50 C           3.9802  -13.5882  -42.1825 C.2       4 UNK         0.5000 
     51 O           3.4851  -13.7635  -43.2995 O.2       4 UNK        -0.5000 
     52 CA          5.3315  -12.8733  -42.0435 C.3       4 UNK         0.1400 
     53 CB          6.4831  -13.8918  -42.0590 C.3       4 UNK        -0.1800 
     54 N           5.4985  -11.9502  -43.1596 N.am      4 UNK        -0.5000 
     55 C           5.8454  -10.6610  -43.0656 C.2       3 UNK         0.5000 
     56 O           6.1510  -10.1126  -42.0057 O.2       3 UNK        -0.5000 
     57 CA          5.8590   -9.8345  -44.3709 C.3       3 UNK         0.1400 
     58 CB          7.3039   -9.5422  -44.8062 C.3       3 UNK        -0.1800 
     59 N           5.1520  -10.4700  -45.4879 N.am      3 UNK        -0.5000 
     60 C           3.8256  -10.6369  -45.5598 C.2       2 UNK         0.5000 
     61 O           3.0382  -10.2290  -44.7002 O.2       2 UNK        -0.5000 
     62 CA          3.3001  -11.4087  -46.7815 C.3       2 UNK         0.1400 
     63 CB          3.9703  -12.7904  -46.9186 C.3       2 UNK        -0.1800 
     64 N           1.8578  -11.5549  -46.6351 N.am      2 UNK        -0.5000 
     65 C           0.9756  -11.8401  -47.5984 C.2       1 UNK         0.5000 
     66 O           1.2916  -12.0944  -48.7613 O.2       1 UNK        -0.5000 
     67 C          -4.3866  -23.4709  -45.2539 C.2       11 UNK         0.5000 
     68 O          -5.3325  -24.1218  -45.6981 O.2       11 UNK        -0.5000 
     69 N          -3.7319  -23.8122  -44.1315 N.am      12 UNK        -0.5000 
     70 CA         -3.9380  -25.0708  -43.4048 C.3       12 UNK         0.1400 
     71 CB         -3.1440  -25.0309  -42.0911 C.3       12 UNK        -0.1800 
     72 C          -3.5529  -26.3213  -44.2291 C.2       12 UNK         0.5000 
     73 O          -4.1037  -27.3958  -43.9890 O.2       12 UNK        -0.5000 
     74 N          -2.6469  -26.1499  -45.2021 N.am      13 UNK        -0.5000 
     75 CA         -2.2498  -27.1428  -46.2017 C.3       13 UNK         0.1400 
     76 CB         -0.7237  -27.3275  -46.1272 C.3       13 UNK        -0.1800 
     77 C          -2.7060  -26.7047  -47.6107 C.2       13 UNK         0.5000 
     78 O          -2.0708  -27.0650  -48.6045 O.2       13 UNK        -0.5000 
     79 N          -3.7711  -25.8871  -47.6742 N.am      14 UNK        -0.5000 
     80 CA         -4.3776  -25.2882  -48.8716 C.3       14 UNK         0.1400 
     81 CB         -5.0578  -26.3759  -49.7285 C.3       14 UNK        -0.1800 
     82 C          -3.4105  -24.4150  -49.7013 C.2       14 UNK         0.5000 
     83 O          -3.6450  -24.2200  -50.8922 O.2       14 UNK        -0.5000 
     84 N          -2.3265  -23.9369  -49.0707 N.am      15 UNK        -0.5000 
     85 CA         -1.2065  -23.1971  -49.6581 C.3       15 UNK         0.1400 
     86 CB         -1.6698  -21.8061  -50.1339 C.3       15 UNK        -0.1800 
     87 C          -0.4467  -23.9985  -50.7378 C.2       15 UNK         0.5000 
     88 O           0.1323  -23.4000  -51.6434 O.2       15 UNK        -0.5000 
     89 N          -0.4631  -25.3378  -50.6182 N.am      16 UNK        -0.5000 
     90 CA          0.0076  -26.3158  -51.6065 C.3       16 UNK         0.1400 
     91 CB          1.5318  -26.2167  -51.8268 C.3       16 UNK        -0.1800 
     92 C          -0.8145  -26.2260  -52.9096 C.2       16 UNK         0.5000 
     93 O          -0.2596  -26.0890  -54.0019 O.2       16 UNK        -0.5000 
     94 N          -2.1431  -26.2665  -52.7412 N.am      17 UNK        -0.5000 
     95 CA         -3.2158  -26.1161  -53.7294 C.3       17 UNK         0.1400 
     96 CB         -3.1104  -27.1432  -54.8730 C.3       17 UNK        -0.1800 
     97 C          -3.3644  -24.6803  -54.2620 C.2       17 UNK         0.5000 
     98 O          -4.4699  -24.1429  -54.2012 O.2       17 UNK        -0.5000 
     99 N          -2.2646  -24.0978  -54.7678 N.am      18 UNK        -0.5000 
    100 CA        -2.1015  -22.7176  -55.2522 C.3       18 UNK         0.1400 
    101 CB        -1.8303  -21.7784  -54.0642 C.3       18 UNK        -0.1800 
    102 C         -3.2601  -22.2192  -56.1415 C.2       18 UNK         0.5000 
    103 O         -3.8401  -21.1630  -55.8716 O.2       18 UNK        -0.5000 
    104 N         -3.6168  -23.0413  -57.1396 N.am      19 UNK        -0.5000 
    105 CA        -4.7642  -22.9429  -58.0527 C.3       19 UNK         0.1400 
    106 CB        -4.7080  -21.6594  -58.9044 C.3       19 UNK        -0.1800 
    107 C         -6.1292  -23.0978  -57.3502 C.2       19 UNK         0.5000 
    108 O         -6.9154  -23.9648  -57.7336 O.2       19 UNK        -0.5000 
    109 N         -6.3728  -22.2708  -56.3313 N.am      20 UNK        -0.5000 
    110 CA        -7.5549  -22.2573  -55.4787 C.3       20 UNK         0.1400 
    111 CB        -8.7442  -21.6142  -56.2217 C.3       20 UNK        -0.1800 
    112 C         -7.2008  -21.5397  -54.1654 C.2       20 UNK         0.5000 
    113 O         -7.8378  -20.5448  -53.8140 O.2       20 UNK        -0.5000 
    114 N         -6.1463  -22.0251  -53.4926 N.am      21 UNK        -0.5000 
    115 CA        -5.5797  -21.5226  -52.2345 C.3       21 UNK         0.1400 
    116 CB        -6.4980  -21.8825  -51.0490 C.3       21 UNK        -0.1800 
    117 C         -5.2192  -20.0231  -52.2944 C.2       21 UNK         0.5000 
    118 O         -5.5746  -19.2618  -51.3940 O.2       21 UNK        -0.5000 
    119 N         -4.5597  -19.6307  -53.3929 N.am      22 UNK        -0.5000 
    120 CA        -4.1787  -18.2521  -53.7468 C.3       22 UNK         0.1400 
    121 C         -5.3650  -17.3467  -54.2011 C.2       22 UNK         0.5000 
    122 N         -6.5918  -17.8418  -54.3237 N.am      22 UNK        -0.7600 
    123 O         -5.1648  -16.1689  -54.4862 O.2       22 UNK        -0.5000 
    124 C124       -3.2887  -17.5440  -52.6830 C.3       23 UNK        -0.0398 
    125 S125       -1.8135  -18.5073  -52.2028 S.3       23 UNK        -0.2404 
    126 C126       -1.0028  -17.3681  -51.0327 C.3       23 UNK        -0.0205 
    127 H127       -0.1489   -8.3853  -44.3599 H         1 UNK         0.0600 
    128 H128       -1.2882   -9.6581  -43.9128 H         1 UNK         0.0600 
    129 H129       -1.8510   -8.2495  -44.8166 H         1 UNK         0.0600 
    130 H130       -1.0485  -11.4704  -45.1865 H         1 UNK         0.3000 
    131 H131       -1.0600  -11.3961  -48.0461 H         1 UNK         0.0600 
    132 H132       -0.8079  -13.8858  -47.8698 H         1 UNK         0.0800 
    133 H133       -0.5281  -13.7459  -46.1567 H         1 UNK         0.0800 
    134 H134       -3.1496  -13.2631  -49.0672 H         1 UNK         0.0800 
    135 H135       -4.5780  -13.8488  -48.2482 H         1 UNK         0.0800 
    136 H136       -1.9648  -14.9160  -50.3074 H         1 UNK         0.1150 
    137 H137       -1.9601  -19.0250  -49.0925 H         1 UNK         0.1150 
    138 H138       -4.1405  -16.1208  -46.8189 H         1 UNK         0.1150 
    139 H139       -2.5921  -19.2388  -46.4850 H         1 UNK         0.0800 
    140 H140       -3.9977  -18.3153  -45.9965 H         1 UNK         0.0800 
    141 H141       -5.8827  -21.4556  -46.1635 H         1 UNK         0.0800 
    142 H142       -4.7921  -20.5143  -45.1816 H         1 UNK         0.0800 
    143 H143       -3.7938  -22.6584  -47.1043 H         1 UNK         0.0600 
    144 H144       -2.4085  -20.9650  -45.2562 H         1 UNK         0.3000 
    145 H145        0.4966  -22.8799  -44.8978 H         1 UNK         0.0600 
    146 H146        1.6901  -21.0232  -46.1169 H         1 UNK         0.0600 
    147 H147        1.0029  -22.2109  -47.2074 H         1 UNK         0.0600 
    148 H148        0.2012  -20.6603  -46.9899 H         1 UNK         0.0600 
    149 H149        0.2416  -20.1547  -44.4147 H         1 UNK         0.3000 
    150 H150       -1.7454  -20.1288  -41.5017 H         1 UNK         0.0600 
    151 H151        0.3132  -21.0943  -40.5329 H         1 UNK         0.0600 
    152 H152        0.3622  -19.3425  -40.3923 H         1 UNK         0.0600 
    153 H153        1.3144  -20.1585  -41.6329 H         1 UNK         0.0600 
    154 H154        0.0133  -18.1649  -42.5504 H         1 UNK         0.3000 
    155 H155       -2.1487  -16.8388  -45.0572 H         1 UNK         0.0600 
    156 H156       -2.9885  -15.8326  -42.9479 H         1 UNK         0.0600 
    157 H157       -1.8157  -14.7804  -43.7237 H         1 UNK         0.0600 
    158 H158       -1.3505  -15.7341  -42.3143 H         1 UNK         0.0600 
    159 H159        0.4549  -16.1853  -43.9415 H         1 UNK         0.3000 
    160 H160        2.3070  -17.9146  -46.4637 H         1 UNK         0.0600 
    161 H161        1.8782  -14.9231  -45.9489 H         1 UNK         0.0600 
    162 H162        1.5919  -15.7311  -47.4861 H         1 UNK         0.0600 
    163 H163        3.2185  -15.6641  -46.8276 H         1 UNK         0.0600 
    164 H164        3.0734  -16.2391  -44.2616 H         1 UNK         0.3000 
    165 H165        3.2175  -18.7620  -41.7716 H         1 UNK         0.0600 
    166 H166        5.6198  -18.1780  -41.6856 H         1 UNK         0.0600 
    167 H167        5.3082  -19.1978  -43.0807 H         1 UNK         0.0600 
    168 H168        5.5391  -17.4666  -43.2977 H         1 UNK         0.0600 
    169 H169        4.1823  -16.1442  -41.6570 H         1 UNK         0.3000 
    170 H170        1.4052  -14.1775  -41.4933 H         1 UNK         0.0600 
    171 H171        0.7634  -15.2883  -39.3521 H         1 UNK         0.0600 
    172 H172        2.4511  -15.3464  -38.8585 H         1 UNK         0.0600 
    173 H173        1.6339  -13.7943  -39.0498 H         1 UNK         0.0600 
    174 H174        3.9162  -13.8663  -40.1737 H         1 UNK         0.3000 
    175 H175        5.3391  -12.3341  -41.0939 H         1 UNK         0.0600 
    176 H176        6.4949  -14.4732  -42.9821 H         1 UNK         0.0600 
    177 H177        7.4483  -13.3934  -41.9665 H         1 UNK         0.0600 
    178 H178        6.4002  -14.5934  -41.2281 H         1 UNK         0.0600 
    179 H179        5.1878  -12.3038  -44.0536 H         1 UNK         0.3000 
    180 H180        5.3686   -8.8827  -44.1558 H         1 UNK         0.0600 
    181 H181        7.8446  -10.4587  -45.0462 H         1 UNK         0.0600 
    182 H182        7.8563   -9.0332  -44.0152 H         1 UNK         0.0600 
    183 H183        7.3292   -8.8962  -45.6840 H         1 UNK         0.0600 
    184 H184        5.7311  -10.8282  -46.2337 H         1 UNK         0.3000 
    185 H185        3.5060  -10.8105  -47.6712 H         1 UNK         0.0600 
    186 H186        5.0400  -12.6992  -47.1073 H         1 UNK         0.0600 
    187 H187        3.8461  -13.3841  -46.0129 H         1 UNK         0.0600 
    188 H188        3.5523  -13.3550  -47.7516 H         1 UNK         0.0600 
    189 H189        1.5181  -11.2907  -45.7179 H         1 UNK         0.3000 
    190 H190       -2.9611  -23.2342  -43.8138 H         1 UNK         0.3000 
    191 H191       -4.9996  -25.1491  -43.1615 H         1 UNK         0.0600 
    192 H192       -3.4355  -24.1775  -41.4785 H         1 UNK         0.0600 
    193 H193       -3.3194  -25.9310  -41.5005 H         1 UNK         0.0600 
    194 H194       -2.0707  -24.9614  -42.2730 H         1 UNK         0.0600 
    195 H195       -2.2501  -25.2258  -45.3418 H         1 UNK         0.3000 
    196 H196       -2.7233  -28.1051  -45.9988 H         1 UNK         0.0600 
    197 H197       -0.3855  -28.1041  -46.8143 H         1 UNK         0.0600 
    198 H198       -0.4124  -27.6251  -45.1258 H         1 UNK         0.0600 
    199 H199       -0.1960  -26.4074  -46.3823 H         1 UNK         0.0600 
    200 H200       -4.2212  -25.6358  -46.8024 H         1 UNK         0.3000 
    201 H201       -5.1571  -24.6135  -48.5151 H         1 UNK         0.0600 
    202 H202       -5.7534  -26.9675  -49.1334 H         1 UNK         0.0600 
    203 H203       -4.3305  -27.0578  -50.1701 H         1 UNK         0.0600 
    204 H204       -5.6294  -25.9336  -50.5455 H         1 UNK         0.0600 
    205 H205       -2.2060  -24.1573  -48.0872 H         1 UNK         0.3000 
    206 H206       -0.4903  -23.0430  -48.8522 H         1 UNK         0.0600 
    207 H207       -2.2051  -21.2852  -49.3409 H         1 UNK         0.0600 
    208 H208       -0.8224  -21.1831  -50.4218 H         1 UNK         0.0600 
    209 H209       -2.3345  -21.8719  -50.9941 H         1 UNK         0.0600 
    210 H210       -0.9660  -25.7348  -49.8313 H         1 UNK         0.3000 
    211 H211       -0.1958  -27.3000  -51.1817 H         1 UNK         0.0600 
    212 H212        2.0713  -26.2829  -50.8821 H         1 UNK         0.0600 
    213 H213        1.8185  -25.2840  -52.3127 H         1 UNK         0.0600 
    214 H214        1.8838  -27.0318  -52.4601 H         1 UNK         0.0600 
    215 H215       -2.4728  -26.2905  -51.7866 H         1 UNK         0.3000 
    216 H216       -4.1350  -26.3378  -53.1843 H         1 UNK         0.0600 
    217 H217       -3.9838  -27.0858  -55.5237 H         1 UNK         0.0600 
    218 H218       -3.0609  -28.1605  -54.4849 H         1 UNK         0.0600 
    219 H219       -2.2322  -26.9790  -55.4975 H         1 UNK         0.0600 
    220 H220       -1.4170  -24.6573  -54.7454 H         1 UNK         0.3000 
    221 H221       -1.2126  -22.7111  -55.8842 H         1 UNK         0.0600 
    222 H222       -2.6397  -21.8089  -53.3371 H         1 UNK         0.0600 
    223 H223       -0.9099  -22.0519  -53.5526 H         1 UNK         0.0600 
    224 H224       -1.7133  -20.7443  -54.3903 H         1 UNK         0.0600 
    225 H225       -3.0903  -23.8996  -57.2236 H         1 UNK         0.3000 
    226 H226       -4.6678  -23.7876  -58.7367 H         1 UNK         0.0600 
    227 H227       -3.7658  -21.5894  -59.4479 H         1 UNK         0.0600 
    228 H228       -5.5107  -21.6501  -59.6426 H         1 UNK         0.0600 
    229 H229       -4.8138  -20.7577  -58.3009 H         1 UNK         0.0600 
    230 H230       -5.6241  -21.6335  -56.0686 H         1 UNK         0.3000 
    231 H231       -7.8174  -23.2852  -55.2207 H         1 UNK         0.0600 
    232 H232       -8.5192  -20.5914  -56.5262 H         1 UNK         0.0600 
    233 H233       -9.6309  -21.5834  -55.5876 H         1 UNK         0.0600 
    234 H234       -9.0084  -22.1786  -57.1158 H         1 UNK         0.0600 
    235 H235       -5.6523  -22.8298  -53.8793 H         1 UNK         0.3000 
    236 H236       -4.6397  -22.0543  -52.0892 H         1 UNK         0.0600 
    237 H237       -6.6804  -22.9564  -51.0074 H         1 UNK         0.0600 
    238 H238       -6.0403  -21.5965  -50.1010 H         1 UNK         0.0600 
    239 H239       -7.4620  -21.3775  -51.1164 H         1 UNK         0.0600 
    240 H240       -4.3452  -20.3207  -54.1049 H         1 UNK         0.3000 
    241 H241       -3.5676  -18.3638  -54.6430 H         1 UNK         0.0600 
    242 H242       -7.3353  -17.2360  -54.6319 H         1 UNK         0.3800 
    243 H243       -6.8052  -18.8000  -54.0710 H         1 UNK         0.3800 
    244 H244       -2.9426  -16.5807  -53.0608 H         1 UNK         0.0800 
    245 H245       -3.8718  -17.3240  -51.7879 H         1 UNK         0.0800 
    246 H246       -0.0878  -17.8343  -50.6650 H         1 UNK         0.0800 
    247 H247       -0.6952  -16.4694  -51.5694 H         1 UNK         0.0800 
@<TRIPOS>BOND
     1    1    2 1    
     2    1  127 1    
     3    1  128 1    
     4    1  129 1    
     5    2    3 2    
     6    2    4 am   BACKBONE|DICT|INTERRES
     7    4    5 1    
     8    4  130 1    
     9    5    6 1    
    10    5   65 1    
    11    5  131 1    
    12    6    7 1    
    13    6  132 1    
    14    6  133 1    
    15    7    8 1    
    16    8    9 1    
    17    8  134 1    
    18    8  135 1    
    19    9   10 ar   
    20    9   14 ar   
    21   10   11 ar   
    22   10  136 1    
    23   11   12 ar   
    24   11  126 1    
    25   12   13 ar   
    26   12  137 1    
    27   13   14 ar   
    28   13   15 1    
    29   14  138 1    
    30   15   16 1    
    31   15  139 1    
    32   15  140 1    
    33   16   17 1    
    34   17   18 1    
    35   17  141 1    
    36   17  142 1    
    37   18   19 1    
    38   18   67 1    
    39   18  143 1    
    40   19   20 am   BACKBONE|DICT|INTERRES
    41   19  144 1    
    42   20   21 2    
    43   20   22 1    
    44   22   23 1    
    45   22   24 1    
    46   22  145 1    
    47   23  146 1    
    48   23  147 1    
    49   23  148 1    
    50   24   25 am   BACKBONE|DICT|INTERRES
    51   24  149 1    
    52   25   26 2    
    53   25   27 1    
    54   27   28 1    
    55   27   29 1    
    56   27  150 1    
    57   28  151 1    
    58   28  152 1    
    59   28  153 1    
    60   29   30 am   BACKBONE|DICT|INTERRES
    61   29  154 1    
    62   30   31 2    
    63   30   32 1    
    64   32   33 1    
    65   32   34 1    
    66   32  155 1    
    67   33  156 1    
    68   33  157 1    
    69   33  158 1    
    70   34   35 am   BACKBONE|DICT|INTERRES
    71   34  159 1    
    72   35   36 2    
    73   35   37 1    
    74   37   38 1    
    75   37   39 1    
    76   37  160 1    
    77   38  161 1    
    78   38  162 1    
    79   38  163 1    
    80   39   40 am   BACKBONE|DICT|INTERRES
    81   39  164 1    
    82   40   41 2    
    83   40   42 1    
    84   42   43 1    
    85   42   44 1    
    86   42  165 1    
    87   43  166 1    
    88   43  167 1    
    89   43  168 1    
    90   44   45 am   BACKBONE|DICT|INTERRES
    91   44  169 1    
    92   45   46 2    
    93   45   47 1    
    94   47   48 1    
    95   47   49 1    
    96   47  170 1    
    97   48  171 1    
    98   48  172 1    
    99   48  173 1    
   100   49   50 am   BACKBONE|DICT|INTERRES
   101   49  174 1    
   102   50   51 2    
   103   50   52 1    
   104   52   53 1    
   105   52   54 1    
   106   52  175 1    
   107   53  176 1    
   108   53  177 1    
   109   53  178 1    
   110   54   55 am   BACKBONE|DICT|INTERRES
   111   54  179 1    
   112   55   56 2    
   113   55   57 1    
   114   57   58 1    
   115   57   59 1    
   116   57  180 1    
   117   58  181 1    
   118   58  182 1    
   119   58  183 1    
   120   59   60 am   BACKBONE|DICT|INTERRES
   121   59  184 1    
   122   60   61 2    
   123   60   62 1    
   124   62   63 1    
   125   62   64 1    
   126   62  185 1    
   127   63  186 1    
   128   63  187 1    
   129   63  188 1    
   130   64   65 am   BACKBONE|DICT|INTERRES
   131   64  189 1    
   132   65   66 2    
   133   67   68 2    
   134   67   69 am   BACKBONE|DICT|INTERRES
   135   69   70 1    
   136   69  190 1    
   137   70   71 1    
   138   70   72 1    
   139   70  191 1    
   140   71  192 1    
   141   71  193 1    
   142   71  194 1    
   143   72   73 2    
   144   72   74 am   BACKBONE|DICT|INTERRES
   145   74   75 1    
   146   74  195 1    
   147   75   76 1    
   148   75   77 1    
   149   75  196 1    
   150   76  197 1    
   151   76  198 1    
   152   76  199 1    
   153   77   78 2    
   154   77   79 am   BACKBONE|DICT|INTERRES
   155   79   80 1    
   156   79  200 1    
   157   80   81 1    
   158   80   82 1    
   159   80  201 1    
   160   81  202 1    
   161   81  203 1    
   162   81  204 1    
   163   82   83 2    
   164   82   84 am   BACKBONE|DICT|INTERRES
   165   84   85 1    
   166   84  205 1    
   167   85   86 1    
   168   85   87 1    
   169   85  206 1    
   170   86  207 1    
   171   86  208 1    
   172   86  209 1    
   173   87   88 2    
   174   87   89 am   BACKBONE|DICT|INTERRES
   175   89   90 1    
   176   89  210 1    
   177   90   91 1    
   178   90   92 1    
   179   90  211 1    
   180   91  212 1    
   181   91  213 1    
   182   91  214 1    
   183   92   93 2    
   184   92   94 am   BACKBONE|DICT|INTERRES
   185   94   95 1    
   186   94  215 1    
   187   95   96 1    
   188   95   97 1    
   189   95  216 1    
   190   96  217 1    
   191   96  218 1    
   192   96  219 1    
   193   97   98 2    
   194   97   99 am   BACKBONE|DICT|INTERRES
   195   99  100 1    
   196   99  220 1    
   197  100  101 1    
   198  100  102 1    
   199  100  221 1    
   200  101  222 1    
   201  101  223 1    
   202  101  224 1    
   203  102  103 2    
   204  102  104 am   BACKBONE|DICT|INTERRES
   205  104  105 1    
   206  104  225 1    
   207  105  106 1    
   208  105  107 1    
   209  105  226 1    
   210  106  227 1    
   211  106  228 1    
   212  106  229 1    
   213  107  108 2    
   214  107  109 am   BACKBONE|DICT|INTERRES
   215  109  110 1    
   216  109  230 1    
   217  110  111 1    
   218  110  112 1    
   219  110  231 1    
   220  111  232 1    
   221  111  233 1    
   222  111  234 1    
   223  112  113 2    
   224  112  114 am   BACKBONE|DICT|INTERRES
   225  114  115 1    
   226  114  235 1    
   227  115  116 1    
   228  115  117 1    
   229  115  236 1    
   230  116  237 1    
   231  116  238 1    
   232  116  239 1    
   233  117  118 2    
   234  117  119 am   BACKBONE|DICT|INTERRES
   235  119  120 1    
   236  119  240 1    
   237  120  121 1    
   238  120  124 1    
   239  120  241 1    
   240  121  122 am   BACKBONE|DICT|INTERRES
   241  121  123 2    
   242  122  242 1    
   243  122  243 1    
   244  124  125 1    
   245  124  244 1    
   246  124  245 1    
   247  125  126 1    
   248  126  246 1    
   249  126  247 1    
@<TRIPOS>SUBSTRUCTURE
     1 UNK         1 GROUP             0       ****    0 ROOT    
