@<TRIPOS>MOLECULE
3R540
247   249    1
SMALL
USER_CHARGES


@<TRIPOS>ATOM
      1 CA         -2.7686  -14.4993  -48.8881 C.3       0 UNK        -0.1800 
      2 C          -1.9490  -13.3060  -48.4194 C.2       0 UNK         0.5000 
      3 O          -2.5077  -12.3492  -47.8819 O.2       0 UNK        -0.5000 
      4 N          -0.6308  -13.3549  -48.6371 N.am      1 UNK        -0.5000 
      5 CA          0.3234  -12.3126  -48.2466 C.3       1 UNK         0.1400 
      6 C6          1.6516  -12.4425  -49.0308 C.3       23 UNK        -0.0398 
      7 S7          1.3989  -12.1672  -50.8161 S.3       23 UNK        -0.2404 
      8 C8          2.3360  -13.5441  -51.5550 C.3       23 UNK        -0.0205 
      9 C9          1.7186  -14.9186  -51.3161 C.ar      23 UNK        -0.0193 
     10 C10         0.3698  -15.1620  -51.5978 C.ar      23 UNK        -0.1150 
     11 C11        -0.1687  -16.4437  -51.4479 C.ar      23 UNK        -0.0193 
     12 C12         0.6582  -17.4909  -51.0337 C.ar      23 UNK        -0.1150 
     13 C13         2.0062  -17.2641  -50.7412 C.ar      23 UNK        -0.0193 
     14 C14         2.5248  -15.9723  -50.8748 C.ar      23 UNK        -0.1150 
     15 C15         2.9229  -18.4132  -50.3378 C.3       23 UNK        -0.0205 
     16 S16         2.4536  -19.1802  -48.7526 S.3       23 UNK        -0.2404 
     17 C17         1.5290  -20.6555  -49.3094 C.3       23 UNK        -0.0398 
     18 CA          0.2827  -20.9923  -48.4547 C.3       11 UNK         0.1400 
     19 N           0.6089  -21.1451  -47.0364 N.am      11 UNK        -0.5000 
     20 C          -0.1401  -21.7804  -46.1270 C.2       10 UNK         0.5000 
     21 O          -1.2144  -22.3236  -46.3933 O.2       10 UNK        -0.5000 
     22 CA          0.3605  -21.7566  -44.6649 C.3       10 UNK         0.1400 
     23 CB          1.8338  -21.3130  -44.5186 C.3       10 UNK        -0.1800 
     24 N          -0.4868  -20.9253  -43.8044 N.am      10 UNK        -0.5000 
     25 C          -0.8730  -19.6636  -44.0364 C.2       9 UNK         0.5000 
     26 O          -0.5859  -19.0393  -45.0553 O.2       9 UNK        -0.5000 
     27 CA         -1.7126  -18.9662  -42.9553 C.3       9 UNK         0.1400 
     28 CB         -3.1365  -19.5476  -42.8686 C.3       9 UNK        -0.1800 
     29 N          -1.0449  -18.9104  -41.6510 N.am      9 UNK        -0.5000 
     30 C          -0.7815  -19.9098  -40.7990 C.2       8 UNK         0.5000 
     31 O          -1.1193  -21.0822  -40.9769 O.2       8 UNK        -0.5000 
     32 CA          0.0324  -19.5008  -39.5578 C.3       8 UNK         0.1400 
     33 CB          0.2437  -20.6489  -38.5478 C.3       8 UNK        -0.1800 
     34 N           1.3011  -18.8748  -39.9447 N.am      8 UNK        -0.5000 
     35 C           2.3454  -19.4470  -40.5663 C.2       7 UNK         0.5000 
     36 O           2.4034  -20.6461  -40.8406 O.2       7 UNK        -0.5000 
     37 CA          3.5304  -18.5296  -40.9418 C.3       7 UNK         0.1400 
     38 CB          4.1725  -18.9349  -42.2813 C.3       7 UNK        -0.1800 
     39 N           3.1363  -17.1211  -41.0125 N.am      7 UNK        -0.5000 
     40 C           3.2329  -16.2367  -40.0107 C.2       6 UNK         0.5000 
     41 O           3.7108  -16.5117  -38.9099 O.2       6 UNK        -0.5000 
     42 CA          2.6865  -14.8136  -40.2537 C.3       6 UNK         0.1400 
     43 CB          3.8453  -13.8385  -40.5122 C.3       6 UNK        -0.1800 
     44 N           1.7252  -14.7063  -41.3539 N.am      6 UNK        -0.5000 
     45 C           0.5249  -15.3008  -41.4081 C.2       5 UNK         0.5000 
     46 O           0.0723  -16.0277  -40.5217 O.2       5 UNK        -0.5000 
     47 CA         -0.2651  -15.1226  -42.7188 C.3       5 UNK         0.1400 
     48 CB         -0.9530  -13.7510  -42.7667 C.3       5 UNK        -0.1800 
     49 N           0.5557  -15.3063  -43.9191 N.am      5 UNK        -0.5000 
     50 C           1.3040  -16.3874  -44.1905 C.2       4 UNK         0.5000 
     51 O           1.4030  -17.3553  -43.4387 O.2       4 UNK        -0.5000 
     52 CA          2.1416  -16.3389  -45.4775 C.3       4 UNK         0.1400 
     53 CB          1.2680  -16.5178  -46.7301 C.3       4 UNK        -0.1800 
     54 N           2.8703  -15.0750  -45.5567 N.am      4 UNK        -0.5000 
     55 C           3.9689  -14.7916  -44.8418 C.2       3 UNK         0.5000 
     56 O           4.5395  -15.6026  -44.1125 O.2       3 UNK        -0.5000 
     57 CA          4.5137  -13.3530  -44.9411 C.3       3 UNK         0.1400 
     58 CB          5.5590  -13.2514  -46.0622 C.3       3 UNK        -0.1800 
     59 N           3.4682  -12.3539  -45.1710 N.am      3 UNK        -0.5000 
     60 C           2.5100  -12.0349  -44.2893 C.2       2 UNK         0.5000 
     61 O           2.4264  -12.5241  -43.1636 O.2       2 UNK        -0.5000 
     62 CA          1.4308  -11.0457  -44.7725 C.3       2 UNK         0.1400 
     63 CB          1.8762   -9.5977  -44.5209 C.3       2 UNK        -0.1800 
     64 N           1.0775  -11.2082  -46.1880 N.am      2 UNK        -0.5000 
     65 C           0.5861  -12.3333  -46.7267 C.2       1 UNK         0.5000 
     66 O           0.3973  -13.3643  -46.0772 O.2       1 UNK        -0.5000 
     67 C          -0.9068  -20.0450  -48.7386 C.2       11 UNK         0.5000 
     68 O          -1.4079  -20.0618  -49.8595 O.2       11 UNK        -0.5000 
     69 N          -1.3725  -19.2668  -47.7494 N.am      12 UNK        -0.5000 
     70 CA         -2.6289  -18.5186  -47.8446 C.3       12 UNK         0.1400 
     71 CB         -2.6630  -17.4005  -46.7909 C.3       12 UNK        -0.1800 
     72 C          -3.8580  -19.4335  -47.6857 C.2       12 UNK         0.5000 
     73 O          -4.9146  -19.1152  -48.2338 O.2       12 UNK        -0.5000 
     74 N          -3.7019  -20.5380  -46.9392 N.am      13 UNK        -0.5000 
     75 CA         -4.7209  -21.5705  -46.7679 C.3       13 UNK         0.1400 
     76 CB         -4.5812  -22.2246  -45.3836 C.3       13 UNK        -0.1800 
     77 C          -4.6170  -22.6094  -47.8933 C.2       13 UNK         0.5000 
     78 O          -5.6115  -22.8571  -48.5744 O.2       13 UNK        -0.5000 
     79 N          -3.4119  -23.1765  -48.0719 N.am      14 UNK        -0.5000 
     80 CA         -2.9781  -24.0350  -49.1833 C.3       14 UNK         0.1400 
     81 CB         -2.6412  -23.1563  -50.4032 C.3       14 UNK        -0.1800 
     82 C          -3.9189  -25.2097  -49.5339 C.2       14 UNK         0.5000 
     83 O          -4.0874  -25.5243  -50.7127 O.2       14 UNK        -0.5000 
     84 N          -4.5149  -25.8341  -48.5064 N.am      15 UNK        -0.5000 
     85 CA         -5.4871  -26.9319  -48.5997 C.3       15 UNK         0.1400 
     86 CB         -4.8106  -28.2160  -49.1263 C.3       15 UNK        -0.1800 
     87 C          -6.7375  -26.5294  -49.4122 C.2       15 UNK         0.5000 
     88 O          -7.0781  -27.1826  -50.3998 O.2       15 UNK        -0.5000 
     89 N          -7.3697  -25.4259  -48.9852 N.am      16 UNK        -0.5000 
     90 CA         -8.4896  -24.7363  -49.6376 C.3       16 UNK         0.1400 
     91 CB         -9.7449  -25.6317  -49.7127 C.3       16 UNK        -0.1800 
     92 C          -8.0707  -24.1427  -50.9979 C.2       16 UNK         0.5000 
     93 O          -8.7384  -24.3547  -52.0109 O.2       16 UNK        -0.5000 
     94 N          -6.9379  -23.4284  -50.9765 N.am      17 UNK        -0.5000 
     95 CA         -6.2560  -22.7197  -52.0635 C.3       17 UNK         0.1400 
     96 CB         -7.1697  -21.6515  -52.6960 C.3       17 UNK        -0.1800 
     97 C          -5.6041  -23.6083  -53.1406 C.2       17 UNK         0.5000 
     98 O          -4.8361  -23.0860  -53.9480 O.2       17 UNK        -0.5000 
     99 N          -5.8893  -24.9156  -53.1465 N.am      18 UNK        -0.5000 
    100 CA        -5.4972  -25.8807  -54.1749 C.3       18 UNK         0.1400 
    101 CB        -6.0471  -27.2618  -53.7886 C.3       18 UNK        -0.1800 
    102 C         -3.9849  -25.9696  -54.4568 C.2       18 UNK         0.5000 
    103 O         -3.6006  -26.1776  -55.6086 O.2       18 UNK        -0.5000 
    104 N         -3.1571  -25.8158  -53.4161 N.am      19 UNK        -0.5000 
    105 CA        -1.7028  -25.9531  -53.5060 C.3       19 UNK         0.1400 
    106 CB        -1.1615  -26.4415  -52.1515 C.3       19 UNK        -0.1800 
    107 C         -0.9706  -24.6734  -53.9613 C.2       19 UNK         0.5000 
    108 O          0.2198  -24.7644  -54.2662 O.2       19 UNK        -0.5000 
    109 N         -1.6502  -23.5159  -53.9837 N.am      20 UNK        -0.5000 
    110 CA        -1.0262  -22.2120  -54.2559 C.3       20 UNK         0.1400 
    111 CB        -0.8597  -21.4493  -52.9305 C.3       20 UNK        -0.1800 
    112 C         -1.7877  -21.3449  -55.2735 C.2       20 UNK         0.5000 
    113 O         -1.1983  -20.3988  -55.7962 O.2       20 UNK        -0.5000 
    114 N         -3.0690  -21.6519  -55.5235 N.am      21 UNK        -0.5000 
    115 CA        -4.0415  -20.8621  -56.2916 C.3       21 UNK         0.1400 
    116 CB        -3.5982  -20.6632  -57.7566 C.3       21 UNK        -0.1800 
    117 C         -4.4401  -19.5430  -55.5900 C.2       21 UNK         0.5000 
    118 O         -4.9431  -18.6260  -56.2413 O.2       21 UNK        -0.5000 
    119 N         -4.2399  -19.4847  -54.2698 N.am      22 UNK        -0.5000 
    120 CA        -4.5869  -18.3834  -53.3674 C.3       22 UNK         0.1400 
    121 C         -4.6062  -18.8748  -51.8938 C.2       22 UNK         0.5000 
    122 N         -5.1122  -18.0785  -50.9619 N.am      22 UNK        -0.7600 
    123 O         -4.1786  -19.9827  -51.5856 O.2       22 UNK        -0.5000 
    124 C124       -3.7205  -17.1095  -53.5828 C.3       23 UNK        -0.0398 
    125 S125       -1.9139  -17.3467  -53.4055 S.3       23 UNK        -0.2404 
    126 C126       -1.6421  -16.6944  -51.7294 C.3       23 UNK        -0.0205 
    127 H127       -3.2606  -14.2680  -49.8326 H         1 UNK         0.0600 
    128 H128       -2.1456  -15.3826  -49.0295 H         1 UNK         0.0600 
    129 H129       -3.5380  -14.7382  -48.1547 H         1 UNK         0.0600 
    130 H130       -0.2288  -14.1689  -49.0783 H         1 UNK         0.3000 
    131 H131       -0.1199  -11.3429  -48.4845 H         1 UNK         0.0600 
    132 H132        2.1041  -13.4215  -48.8618 H         1 UNK         0.0800 
    133 H133        2.3817  -11.7051  -48.6929 H         1 UNK         0.0800 
    134 H134        3.3614  -13.5069  -51.1839 H         1 UNK         0.0800 
    135 H135        2.3964  -13.3810  -52.6317 H         1 UNK         0.0800 
    136 H136       -0.2586  -14.3542  -51.9462 H         1 UNK         0.1150 
    137 H137        0.2505  -18.4860  -50.9521 H         1 UNK         0.1150 
    138 H138        3.5711  -15.7938  -50.6695 H         1 UNK         0.1150 
    139 H139        2.9447  -19.1583  -51.1339 H         1 UNK         0.0800 
    140 H140        3.9495  -18.0569  -50.2406 H         1 UNK         0.0800 
    141 H141        1.2500  -20.5551  -50.3595 H         1 UNK         0.0800 
    142 H142        2.2201  -21.4987  -49.2779 H         1 UNK         0.0800 
    143 H143       -0.0522  -21.9754  -48.7897 H         1 UNK         0.0600 
    144 H144        1.4459  -20.6719  -46.7273 H         1 UNK         0.3000 
    145 H145        0.2795  -22.7795  -44.2951 H         1 UNK         0.0600 
    146 H146        2.1674  -21.4204  -43.4866 H         1 UNK         0.0600 
    147 H147        2.4966  -21.9244  -45.1323 H         1 UNK         0.0600 
    148 H148        1.9806  -20.2689  -44.7989 H         1 UNK         0.0600 
    149 H149       -0.7625  -21.3320  -42.9158 H         1 UNK         0.3000 
    150 H150       -1.8194  -17.9301  -43.2745 H         1 UNK         0.0600 
    151 H151       -3.6493  -19.4471  -43.8258 H         1 UNK         0.0600 
    152 H152       -3.7328  -19.0197  -42.1246 H         1 UNK         0.0600 
    153 H153       -3.1378  -20.6066  -42.6102 H         1 UNK         0.0600 
    154 H154       -0.6586  -18.0051  -41.4136 H         1 UNK         0.3000 
    155 H155       -0.5464  -18.7276  -39.0501 H         1 UNK         0.0600 
    156 H156       -0.7136  -21.0167  -38.1770 H         1 UNK         0.0600 
    157 H157        0.8192  -20.3137  -37.6851 H         1 UNK         0.0600 
    158 H158        0.7652  -21.4978  -38.9900 H         1 UNK         0.0600 
    159 H159        1.3411  -17.8730  -39.8104 H         1 UNK         0.3000 
    160 H160        4.2868  -18.6584  -40.1653 H         1 UNK         0.0600 
    161 H161        3.4486  -18.9303  -43.0958 H         1 UNK         0.0600 
    162 H162        4.5943  -19.9390  -42.2267 H         1 UNK         0.0600 
    163 H163        4.9829  -18.2577  -42.5519 H         1 UNK         0.0600 
    164 H164        2.6770  -16.8427  -41.8729 H         1 UNK         0.3000 
    165 H165        2.1764  -14.5039  -39.3395 H         1 UNK         0.0600 
    166 H166        4.5798  -13.8757  -39.7066 H         1 UNK         0.0600 
    167 H167        4.3640  -14.0725  -41.4429 H         1 UNK         0.0600 
    168 H168        3.4885  -12.8104  -40.5770 H         1 UNK         0.0600 
    169 H169        1.9968  -14.1004  -42.1239 H         1 UNK         0.3000 
    170 H170       -1.0446  -15.8830  -42.7403 H         1 UNK         0.0600 
    171 H171       -1.6435  -13.6334  -41.9308 H         1 UNK         0.0600 
    172 H172       -0.2321  -12.9364  -42.7105 H         1 UNK         0.0600 
    173 H173       -1.5278  -13.6279  -43.6850 H         1 UNK         0.0600 
    174 H174        0.5292  -14.5582  -44.6072 H         1 UNK         0.3000 
    175 H175        2.8613  -17.1602  -45.4501 H         1 UNK         0.0600 
    176 H176        0.4499  -15.8011  -46.7750 H         1 UNK         0.0600 
    177 H177        1.8551  -16.4081  -47.6418 H         1 UNK         0.0600 
    178 H178        0.8233  -17.5123  -46.7485 H         1 UNK         0.0600 
    179 H179        2.4190  -14.3312  -46.0692 H         1 UNK         0.3000 
    180 H180        5.0028  -13.1190  -43.9930 H         1 UNK         0.0600 
    181 H181        5.1219  -13.4548  -47.0407 H         1 UNK         0.0600 
    182 H182        6.0088  -12.2589  -46.0939 H         1 UNK         0.0600 
    183 H183        6.3669  -13.9681  -45.9083 H         1 UNK         0.0600 
    184 H184        3.4671  -11.8944  -46.0690 H         1 UNK         0.3000 
    185 H185        0.5290  -11.2292  -44.1860 H         1 UNK         0.0600 
    186 H186        1.0840   -8.8919  -44.7714 H         1 UNK         0.0600 
    187 H187        2.1260   -9.4434  -43.4702 H         1 UNK         0.0600 
    188 H188        2.7570   -9.3380  -45.1094 H         1 UNK         0.0600 
    189 H189        1.2074  -10.3966  -46.7752 H         1 UNK         0.3000 
    190 H190       -0.9124  -19.2670  -46.8409 H         1 UNK         0.3000 
    191 H191       -2.6851  -18.0507  -48.8289 H         1 UNK         0.0600 
    192 H192       -3.5418  -16.7707  -46.9282 H         1 UNK         0.0600 
    193 H193       -1.7849  -16.7593  -46.8586 H         1 UNK         0.0600 
    194 H194       -2.7161  -17.7965  -45.7777 H         1 UNK         0.0600 
    195 H195       -2.7807  -20.7506  -46.5799 H         1 UNK         0.3000 
    196 H196       -5.7134  -21.1175  -46.8208 H         1 UNK         0.0600 
    197 H197       -5.3056  -23.0303  -45.2590 H         1 UNK         0.0600 
    198 H198       -4.7661  -21.5016  -44.5899 H         1 UNK         0.0600 
    199 H199       -3.5895  -22.6479  -45.2238 H         1 UNK         0.0600 
    200 H200       -2.6720  -22.9145  -47.4243 H         1 UNK         0.3000 
    201 H201       -2.0490  -24.5069  -48.8608 H         1 UNK         0.0600 
    202 H202       -1.7293  -22.5940  -50.2266 H         1 UNK         0.0600 
    203 H203       -3.4303  -22.4386  -50.6172 H         1 UNK         0.0600 
    204 H204       -2.4702  -23.7327  -51.3093 H         1 UNK         0.0600 
    205 H205       -4.3202  -25.4939  -47.5755 H         1 UNK         0.3000 
    206 H206       -5.8295  -27.1348  -47.5840 H         1 UNK         0.0600 
    207 H207       -3.9491  -28.4861  -48.5157 H         1 UNK         0.0600 
    208 H208       -5.5032  -29.0581  -49.1013 H         1 UNK         0.0600 
    209 H209       -4.4695  -28.1064  -50.1563 H         1 UNK         0.0600 
    210 H210       -6.9639  -24.9321  -48.2021 H         1 UNK         0.3000 
    211 H211       -8.7362  -23.8864  -48.9995 H         1 UNK         0.0600 
    212 H212       -9.6087  -26.4754  -50.3895 H         1 UNK         0.0600 
    213 H213      -10.6034  -25.0640  -50.0731 H         1 UNK         0.0600 
    214 H214      -10.0063  -26.0271  -48.7313 H         1 UNK         0.0600 
    215 H215       -6.4694  -23.3349  -50.0755 H         1 UNK         0.3000 
    216 H216       -5.4361  -22.1956  -51.5791 H         1 UNK         0.0600 
    217 H217       -8.0135  -22.0958  -53.2240 H         1 UNK         0.0600 
    218 H218       -6.6199  -21.0460  -53.4170 H         1 UNK         0.0600 
    219 H219       -7.5623  -20.9724  -51.9391 H         1 UNK         0.0600 
    220 H220       -6.4939  -25.2644  -52.4161 H         1 UNK         0.3000 
    221 H221       -5.9803  -25.5697  -55.1031 H         1 UNK         0.0600 
    222 H222       -5.6251  -27.6083  -52.8439 H         1 UNK         0.0600 
    223 H223       -7.1318  -27.2398  -53.6810 H         1 UNK         0.0600 
    224 H224       -5.8099  -28.0069  -54.5491 H         1 UNK         0.0600 
    225 H225       -3.5541  -25.6634  -52.4900 H         1 UNK         0.3000 
    226 H226       -1.4713  -26.7268  -54.2412 H         1 UNK         0.0600 
    227 H227       -1.6614  -27.3568  -51.8338 H         1 UNK         0.0600 
    228 H228       -0.0949  -26.6605  -52.2141 H         1 UNK         0.0600 
    229 H229       -1.2937  -25.6998  -51.3654 H         1 UNK         0.0600 
    230 H230       -2.6334  -23.5245  -53.7449 H         1 UNK         0.3000 
    231 H231       -0.0315  -22.3521  -54.6834 H         1 UNK         0.0600 
    232 H232       -0.2478  -22.0097  -52.2240 H         1 UNK         0.0600 
    233 H233       -1.8225  -21.2506  -52.4587 H         1 UNK         0.0600 
    234 H234       -0.3728  -20.4854  -53.0861 H         1 UNK         0.0600 
    235 H235       -3.4962  -22.4185  -55.0110 H         1 UNK         0.3000 
    236 H236       -4.9500  -21.4657  -56.3125 H         1 UNK         0.0600 
    237 H237       -3.3007  -21.6080  -58.2111 H         1 UNK         0.0600 
    238 H238       -4.4133  -20.2578  -58.3569 H         1 UNK         0.0600 
    239 H239       -2.7614  -19.9697  -57.8401 H         1 UNK         0.0600 
    240 H240       -3.8518  -20.2883  -53.7934 H         1 UNK         0.3000 
    241 H241       -5.6221  -18.1224  -53.5942 H         1 UNK         0.0600 
    242 H242       -5.1313  -18.4239  -50.0065 H         1 UNK         0.3800 
    243 H243       -5.5067  -17.1769  -51.1749 H         1 UNK         0.3800 
    244 H244       -4.0539  -16.3077  -52.9233 H         1 UNK         0.0800 
    245 H245       -3.8930  -16.7280  -54.5894 H         1 UNK         0.0800 
    246 H246       -2.2019  -15.7675  -51.6018 H         1 UNK         0.0800 
    247 H247       -2.0417  -17.4033  -51.0036 H         1 UNK         0.0800 
@<TRIPOS>BOND
     1    1    2 1    
     2    1  127 1    
     3    1  128 1    
     4    1  129 1    
     5    2    3 2    
     6    2    4 am   BACKBONE|DICT|INTERRES
     7    4    5 1    
     8    4  130 1    
     9    5    6 1    
    10    5   65 1    
    11    5  131 1    
    12    6    7 1    
    13    6  132 1    
    14    6  133 1    
    15    7    8 1    
    16    8    9 1    
    17    8  134 1    
    18    8  135 1    
    19    9   10 ar   
    20    9   14 ar   
    21   10   11 ar   
    22   10  136 1    
    23   11   12 ar   
    24   11  126 1    
    25   12   13 ar   
    26   12  137 1    
    27   13   14 ar   
    28   13   15 1    
    29   14  138 1    
    30   15   16 1    
    31   15  139 1    
    32   15  140 1    
    33   16   17 1    
    34   17   18 1    
    35   17  141 1    
    36   17  142 1    
    37   18   19 1    
    38   18   67 1    
    39   18  143 1    
    40   19   20 am   BACKBONE|DICT|INTERRES
    41   19  144 1    
    42   20   21 2    
    43   20   22 1    
    44   22   23 1    
    45   22   24 1    
    46   22  145 1    
    47   23  146 1    
    48   23  147 1    
    49   23  148 1    
    50   24   25 am   BACKBONE|DICT|INTERRES
    51   24  149 1    
    52   25   26 2    
    53   25   27 1    
    54   27   28 1    
    55   27   29 1    
    56   27  150 1    
    57   28  151 1    
    58   28  152 1    
    59   28  153 1    
    60   29   30 am   BACKBONE|DICT|INTERRES
    61   29  154 1    
    62   30   31 2    
    63   30   32 1    
    64   32   33 1    
    65   32   34 1    
    66   32  155 1    
    67   33  156 1    
    68   33  157 1    
    69   33  158 1    
    70   34   35 am   BACKBONE|DICT|INTERRES
    71   34  159 1    
    72   35   36 2    
    73   35   37 1    
    74   37   38 1    
    75   37   39 1    
    76   37  160 1    
    77   38  161 1    
    78   38  162 1    
    79   38  163 1    
    80   39   40 am   BACKBONE|DICT|INTERRES
    81   39  164 1    
    82   40   41 2    
    83   40   42 1    
    84   42   43 1    
    85   42   44 1    
    86   42  165 1    
    87   43  166 1    
    88   43  167 1    
    89   43  168 1    
    90   44   45 am   BACKBONE|DICT|INTERRES
    91   44  169 1    
    92   45   46 2    
    93   45   47 1    
    94   47   48 1    
    95   47   49 1    
    96   47  170 1    
    97   48  171 1    
    98   48  172 1    
    99   48  173 1    
   100   49   50 am   BACKBONE|DICT|INTERRES
   101   49  174 1    
   102   50   51 2    
   103   50   52 1    
   104   52   53 1    
   105   52   54 1    
   106   52  175 1    
   107   53  176 1    
   108   53  177 1    
   109   53  178 1    
   110   54   55 am   BACKBONE|DICT|INTERRES
   111   54  179 1    
   112   55   56 2    
   113   55   57 1    
   114   57   58 1    
   115   57   59 1    
   116   57  180 1    
   117   58  181 1    
   118   58  182 1    
   119   58  183 1    
   120   59   60 am   BACKBONE|DICT|INTERRES
   121   59  184 1    
   122   60   61 2    
   123   60   62 1    
   124   62   63 1    
   125   62   64 1    
   126   62  185 1    
   127   63  186 1    
   128   63  187 1    
   129   63  188 1    
   130   64   65 am   BACKBONE|DICT|INTERRES
   131   64  189 1    
   132   65   66 2    
   133   67   68 2    
   134   67   69 am   BACKBONE|DICT|INTERRES
   135   69   70 1    
   136   69  190 1    
   137   70   71 1    
   138   70   72 1    
   139   70  191 1    
   140   71  192 1    
   141   71  193 1    
   142   71  194 1    
   143   72   73 2    
   144   72   74 am   BACKBONE|DICT|INTERRES
   145   74   75 1    
   146   74  195 1    
   147   75   76 1    
   148   75   77 1    
   149   75  196 1    
   150   76  197 1    
   151   76  198 1    
   152   76  199 1    
   153   77   78 2    
   154   77   79 am   BACKBONE|DICT|INTERRES
   155   79   80 1    
   156   79  200 1    
   157   80   81 1    
   158   80   82 1    
   159   80  201 1    
   160   81  202 1    
   161   81  203 1    
   162   81  204 1    
   163   82   83 2    
   164   82   84 am   BACKBONE|DICT|INTERRES
   165   84   85 1    
   166   84  205 1    
   167   85   86 1    
   168   85   87 1    
   169   85  206 1    
   170   86  207 1    
   171   86  208 1    
   172   86  209 1    
   173   87   88 2    
   174   87   89 am   BACKBONE|DICT|INTERRES
   175   89   90 1    
   176   89  210 1    
   177   90   91 1    
   178   90   92 1    
   179   90  211 1    
   180   91  212 1    
   181   91  213 1    
   182   91  214 1    
   183   92   93 2    
   184   92   94 am   BACKBONE|DICT|INTERRES
   185   94   95 1    
   186   94  215 1    
   187   95   96 1    
   188   95   97 1    
   189   95  216 1    
   190   96  217 1    
   191   96  218 1    
   192   96  219 1    
   193   97   98 2    
   194   97   99 am   BACKBONE|DICT|INTERRES
   195   99  100 1    
   196   99  220 1    
   197  100  101 1    
   198  100  102 1    
   199  100  221 1    
   200  101  222 1    
   201  101  223 1    
   202  101  224 1    
   203  102  103 2    
   204  102  104 am   BACKBONE|DICT|INTERRES
   205  104  105 1    
   206  104  225 1    
   207  105  106 1    
   208  105  107 1    
   209  105  226 1    
   210  106  227 1    
   211  106  228 1    
   212  106  229 1    
   213  107  108 2    
   214  107  109 am   BACKBONE|DICT|INTERRES
   215  109  110 1    
   216  109  230 1    
   217  110  111 1    
   218  110  112 1    
   219  110  231 1    
   220  111  232 1    
   221  111  233 1    
   222  111  234 1    
   223  112  113 2    
   224  112  114 am   BACKBONE|DICT|INTERRES
   225  114  115 1    
   226  114  235 1    
   227  115  116 1    
   228  115  117 1    
   229  115  236 1    
   230  116  237 1    
   231  116  238 1    
   232  116  239 1    
   233  117  118 2    
   234  117  119 am   BACKBONE|DICT|INTERRES
   235  119  120 1    
   236  119  240 1    
   237  120  121 1    
   238  120  124 1    
   239  120  241 1    
   240  121  122 am   BACKBONE|DICT|INTERRES
   241  121  123 2    
   242  122  242 1    
   243  122  243 1    
   244  124  125 1    
   245  124  244 1    
   246  124  245 1    
   247  125  126 1    
   248  126  246 1    
   249  126  247 1    
@<TRIPOS>SUBSTRUCTURE
     1 UNK         1 GROUP             0       ****    0 ROOT    
