@<TRIPOS>MOLECULE
3R540
247   249    1
SMALL
USER_CHARGES


@<TRIPOS>ATOM
      1 CA         -4.1362  -15.0273  -45.6220 C.3       0 UNK        -0.1800 
      2 C          -3.5293  -13.6406  -45.7586 C.2       0 UNK         0.5000 
      3 O          -3.2459  -12.9901  -44.7535 O.2       0 UNK        -0.5000 
      4 N          -3.3431  -13.1811  -47.0027 N.am      1 UNK        -0.5000 
      5 CA         -2.8364  -11.8428  -47.3234 C.3       1 UNK         0.1400 
      6 C6         -3.2450  -11.3959  -48.7506 C.3       23 UNK        -0.0398 
      7 S7         -2.3082  -12.1339  -50.1376 S.3       23 UNK        -0.2404 
      8 C8         -3.2637  -13.6318  -50.5444 C.3       23 UNK        -0.0205 
      9 C9         -2.6647  -14.8889  -49.9264 C.ar      23 UNK        -0.0193 
     10 C10        -1.3417  -15.2428  -50.2133 C.ar      23 UNK        -0.1150 
     11 C11        -0.7937  -16.4229  -49.7070 C.ar      23 UNK        -0.0193 
     12 C12        -1.5782  -17.2554  -48.9085 C.ar      23 UNK        -0.1150 
     13 C13        -2.9059  -16.9281  -48.6310 C.ar      23 UNK        -0.0193 
     14 C14        -3.4430  -15.7352  -49.1280 C.ar      23 UNK        -0.1150 
     15 C15        -3.7566  -17.8944  -47.8271 C.3       23 UNK        -0.0205 
     16 S16        -4.3600  -19.2525  -48.8732 S.3       23 UNK        -0.2404 
     17 C17        -5.1482  -20.3193  -47.6239 C.3       23 UNK        -0.0398 
     18 CA         -4.4129  -21.6703  -47.4650 C.3       11 UNK         0.1400 
     19 N          -3.0365  -21.5203  -46.9785 N.am      11 UNK        -0.5000 
     20 C          -2.1231  -22.5014  -46.9477 C.2       10 UNK         0.5000 
     21 O          -2.3275  -23.6397  -47.3744 O.2       10 UNK        -0.5000 
     22 CA         -0.7672  -22.1729  -46.2990 C.3       10 UNK         0.1400 
     23 CB          0.2441  -21.7149  -47.3583 C.3       10 UNK        -0.1800 
     24 N          -0.8548  -21.1770  -45.2272 N.am      10 UNK        -0.5000 
     25 C          -1.5362  -21.3540  -44.0833 C.2       9 UNK         0.5000 
     26 O          -2.2378  -22.3433  -43.8674 O.2       9 UNK        -0.5000 
     27 CA         -1.4331  -20.2647  -42.9988 C.3       9 UNK         0.1400 
     28 CB         -0.5963  -20.7714  -41.8145 C.3       9 UNK        -0.1800 
     29 N          -0.8583  -19.0131  -43.4937 N.am      9 UNK        -0.5000 
     30 C          -1.5464  -18.0958  -44.1890 C.2       8 UNK         0.5000 
     31 O          -2.7465  -18.2016  -44.4409 O.2       8 UNK        -0.5000 
     32 CA         -0.7732  -16.8668  -44.7136 C.3       8 UNK         0.1400 
     33 CB         -0.9657  -15.6759  -43.7646 C.3       8 UNK        -0.1800 
     34 N           0.6591  -17.0982  -44.9169 N.am      8 UNK        -0.5000 
     35 C           1.1668  -18.0074  -45.7615 C.2       7 UNK         0.5000 
     36 O           0.4718  -18.6877  -46.5130 O.2       7 UNK        -0.5000 
     37 CA          2.6875  -18.2544  -45.7232 C.3       7 UNK         0.1400 
     38 CB          3.3882  -17.4878  -46.8538 C.3       7 UNK        -0.1800 
     39 N           3.3347  -17.9140  -44.4541 N.am      7 UNK        -0.5000 
     40 C           3.0287  -18.3949  -43.2392 C.2       6 UNK         0.5000 
     41 O           2.1086  -19.1862  -43.0336 O.2       6 UNK        -0.5000 
     42 CA          3.8833  -17.8992  -42.0524 C.3       6 UNK         0.1400 
     43 CB          4.8021  -19.0220  -41.5471 C.3       6 UNK        -0.1800 
     44 N           4.7023  -16.7260  -42.3781 N.am      6 UNK        -0.5000 
     45 C           4.2152  -15.4952  -42.5817 C.2       5 UNK         0.5000 
     46 O           3.0276  -15.2036  -42.4209 O.2       5 UNK        -0.5000 
     47 CA          5.2216  -14.4477  -43.0884 C.3       5 UNK         0.1400 
     48 CB          5.7677  -14.8314  -44.4762 C.3       5 UNK        -0.1800 
     49 N           4.5674  -13.1504  -43.2018 N.am      5 UNK        -0.5000 
     50 C           5.0225  -11.9927  -42.7077 C.2       4 UNK         0.5000 
     51 O           6.0995  -11.8783  -42.1205 O.2       4 UNK        -0.5000 
     52 CA          4.1372  -10.7420  -42.9033 C.3       4 UNK         0.1400 
     53 CB          4.7334   -9.8242  -43.9821 C.3       4 UNK        -0.1800 
     54 N           2.7571  -11.0610  -43.2722 N.am      4 UNK        -0.5000 
     55 C           1.8537  -11.6212  -42.4575 C.2       3 UNK         0.5000 
     56 O           2.0477  -11.8079  -41.2557 O.2       3 UNK        -0.5000 
     57 CA          0.5167  -12.0620  -43.0852 C.3       3 UNK         0.1400 
     58 CB         -0.6298  -11.1568  -42.6090 C.3       3 UNK        -0.1800 
     59 N           0.4996  -12.1003  -44.5518 N.am      3 UNK        -0.5000 
     60 C           1.2028  -12.9222  -45.3428 C.2       2 UNK         0.5000 
     61 O           2.0717  -13.6847  -44.9199 O.2       2 UNK        -0.5000 
     62 CA          0.8624  -12.8947  -46.8504 C.3       2 UNK         0.1400 
     63 CB          1.4075  -14.1248  -47.5975 C.3       2 UNK        -0.1800 
     64 N          -0.5783  -12.8043  -47.1029 N.am      2 UNK        -0.5000 
     65 C          -1.3243  -11.6920  -47.0437 C.2       1 UNK         0.5000 
     66 O          -0.8692  -10.5891  -46.7380 O.2       1 UNK        -0.5000 
     67 C          -5.2399  -22.6308  -46.5859 C.2       11 UNK         0.5000 
     68 O          -6.0759  -23.3615  -47.1165 O.2       11 UNK        -0.5000 
     69 N          -4.9802  -22.6350  -45.2720 N.am      12 UNK        -0.5000 
     70 CA         -5.6056  -23.5553  -44.3246 C.3       12 UNK         0.1400 
     71 CB         -5.5925  -22.9298  -42.9208 C.3       12 UNK        -0.1800 
     72 C          -4.9013  -24.9225  -44.3200 C.2       12 UNK         0.5000 
     73 O          -5.5734  -25.9501  -44.2276 O.2       12 UNK        -0.5000 
     74 N          -3.5641  -24.9073  -44.4082 N.am      13 UNK        -0.5000 
     75 CA         -2.7167  -26.0934  -44.3116 C.3       13 UNK         0.1400 
     76 CB         -1.2600  -25.6634  -44.0819 C.3       13 UNK        -0.1800 
     77 C          -2.8152  -27.0339  -45.5258 C.2       13 UNK         0.5000 
     78 O          -2.9090  -28.2471  -45.3320 O.2       13 UNK        -0.5000 
     79 N          -2.7617  -26.4789  -46.7453 N.am      14 UNK        -0.5000 
     80 CA         -2.6343  -27.2624  -47.9793 C.3       14 UNK         0.1400 
     81 CB         -1.1537  -27.6429  -48.1923 C.3       14 UNK        -0.1800 
     82 C          -3.2232  -26.5498  -49.2093 C.2       14 UNK         0.5000 
     83 O          -2.8069  -26.8446  -50.3322 O.2       14 UNK        -0.5000 
     84 N          -4.1480  -25.5998  -48.9974 N.am      15 UNK        -0.5000 
     85 CA         -4.7738  -24.7581  -50.0296 C.3       15 UNK         0.1400 
     86 CB         -5.7416  -25.5919  -50.8946 C.3       15 UNK        -0.1800 
     87 C          -3.7396  -23.9754  -50.8692 C.2       15 UNK         0.5000 
     88 O          -3.8945  -23.8540  -52.0837 O.2       15 UNK        -0.5000 
     89 N          -2.6700  -23.5142  -50.2029 N.am      16 UNK        -0.5000 
     90 CA         -1.4820  -22.8632  -50.7644 C.3       16 UNK         0.1400 
     91 CB         -1.8118  -21.4335  -51.2311 C.3       16 UNK        -0.1800 
     92 C          -0.7766  -23.7304  -51.8299 C.2       16 UNK         0.5000 
     93 O          -0.3829  -23.2285  -52.8824 O.2       16 UNK        -0.5000 
     94 N          -0.6553  -25.0307  -51.5183 N.am      17 UNK        -0.5000 
     95 CA         -0.1522  -26.1154  -52.3670 C.3       17 UNK         0.1400 
     96 CB          1.3302  -25.9002  -52.7394 C.3       17 UNK        -0.1800 
     97 C          -1.0680  -26.3611  -53.5835 C.2       17 UNK         0.5000 
     98 O          -0.5855  -26.4780  -54.7115 O.2       17 UNK        -0.5000 
     99 N          -2.3810  -26.4287  -53.3117 N.am      18 UNK        -0.5000 
    100 CA        -3.4831  -26.5925  -54.2681 C.3       18 UNK         0.1400 
    101 CB        -3.4730  -28.0148  -54.8652 C.3       18 UNK        -0.1800 
    102 C         -3.5181  -25.4816  -55.3412 C.2       18 UNK         0.5000 
    103 O         -3.6826  -25.7630  -56.5302 O.2       18 UNK        -0.5000 
    104 N         -3.3519  -24.2342  -54.8928 N.am      19 UNK        -0.5000 
    105 CA        -3.2772  -23.0297  -55.7127 C.3       19 UNK         0.1400 
    106 CB        -1.8870  -22.9184  -56.3714 C.3       19 UNK        -0.1800 
    107 C         -3.6179  -21.8319  -54.8161 C.2       19 UNK         0.5000 
    108 O         -2.7670  -20.9696  -54.5892 O.2       19 UNK        -0.5000 
    109 N         -4.8466  -21.8515  -54.2768 N.am      20 UNK        -0.5000 
    110 CA        -5.3717  -20.9688  -53.2300 C.3       20 UNK         0.1400 
    111 CB        -6.8821  -21.2077  -53.0857 C.3       20 UNK        -0.1800 
    112 C         -5.0759  -19.4716  -53.4394 C.2       20 UNK         0.5000 
    113 O         -5.1966  -18.9699  -54.5593 O.2       20 UNK        -0.5000 
    114 N         -4.6935  -18.8065  -52.3413 N.am      21 UNK        -0.5000 
    115 CA        -4.2070  -17.4259  -52.2656 C.3       21 UNK         0.1400 
    116 CB        -5.2811  -16.4140  -52.7174 C.3       21 UNK        -0.1800 
    117 C         -2.8356  -17.2201  -52.9460 C.2       21 UNK         0.5000 
    118 O         -2.5489  -16.1206  -53.4228 O.2       21 UNK        -0.5000 
    119 N         -2.0126  -18.2797  -52.9591 N.am      22 UNK        -0.5000 
    120 CA        -0.6671  -18.3367  -53.5556 C.3       22 UNK         0.1400 
    121 C         -0.6685  -18.0503  -55.0868 C.2       22 UNK         0.5000 
    122 N         -1.5256  -18.7219  -55.8439 N.am      22 UNK        -0.7600 
    123 O          0.0990  -17.2369  -55.5961 O.2       22 UNK        -0.5000 
    124 C124        0.3853  -17.5105  -52.7621 C.3       23 UNK        -0.0398 
    125 S125        0.7456  -18.2451  -51.1287 S.3       23 UNK        -0.2404 
    126 C126        0.6430  -16.8075  -50.0164 C.3       23 UNK        -0.0205 
    127 H127       -3.3873  -15.7890  -45.8268 H         1 UNK         0.0600 
    128 H128       -4.9657  -15.1575  -46.3168 H         1 UNK         0.0600 
    129 H129       -4.5148  -15.1859  -44.6121 H         1 UNK         0.0600 
    130 H130       -3.5635  -13.7694  -47.7931 H         1 UNK         0.3000 
    131 H131       -3.3332  -11.1516  -46.6385 H         1 UNK         0.0600 
    132 H132       -4.3123  -11.5598  -48.9044 H         1 UNK         0.0800 
    133 H133       -3.1141  -10.3153  -48.8284 H         1 UNK         0.0800 
    134 H134       -4.3093  -13.5061  -50.2604 H         1 UNK         0.0800 
    135 H135       -3.2579  -13.7546  -51.6284 H         1 UNK         0.0800 
    136 H136       -0.7433  -14.6020  -50.8455 H         1 UNK         0.1150 
    137 H137       -1.1617  -18.1785  -48.5297 H         1 UNK         0.1150 
    138 H138       -4.4783  -15.4939  -48.9319 H         1 UNK         0.1150 
    139 H139       -3.1629  -18.3029  -47.0099 H         1 UNK         0.0800 
    140 H140       -4.6068  -17.3817  -47.3764 H         1 UNK         0.0800 
    141 H141       -6.1782  -20.4807  -47.9478 H         1 UNK         0.0800 
    142 H142       -5.2105  -19.7975  -46.6671 H         1 UNK         0.0800 
    143 H143       -4.3545  -22.1229  -48.4549 H         1 UNK         0.0600 
    144 H144       -2.7792  -20.6151  -46.6137 H         1 UNK         0.3000 
    145 H145       -0.3834  -23.0906  -45.8528 H         1 UNK         0.0600 
    146 H146        0.4788  -22.5278  -48.0448 H         1 UNK         0.0600 
    147 H147       -0.1350  -20.8789  -47.9482 H         1 UNK         0.0600 
    148 H148        1.1843  -21.4050  -46.9018 H         1 UNK         0.0600 
    149 H149       -0.3380  -20.3171  -45.3673 H         1 UNK         0.3000 
    150 H150       -2.4441  -20.0698  -42.6349 H         1 UNK         0.0600 
    151 H151       -0.5169  -20.0155  -41.0332 H         1 UNK         0.0600 
    152 H152        0.4135  -21.0452  -42.1219 H         1 UNK         0.0600 
    153 H153       -1.0512  -21.6558  -41.3663 H         1 UNK         0.0600 
    154 H154        0.1375  -18.8839  -43.3417 H         1 UNK         0.3000 
    155 H155       -1.2016  -16.6081  -45.6837 H         1 UNK         0.0600 
    156 H156       -2.0147  -15.5457  -43.4955 H         1 UNK         0.0600 
    157 H157       -0.6454  -14.7502  -44.2360 H         1 UNK         0.0600 
    158 H158       -0.4020  -15.7999  -42.8392 H         1 UNK         0.0600 
    159 H159        1.2956  -16.5712  -44.3344 H         1 UNK         0.3000 
    160 H160        2.8420  -19.3226  -45.8873 H         1 UNK         0.0600 
    161 H161        2.9831  -17.7688  -47.8259 H         1 UNK         0.0600 
    162 H162        4.4560  -17.7060  -46.8776 H         1 UNK         0.0600 
    163 H163        3.2684  -16.4099  -46.7414 H         1 UNK         0.0600 
    164 H164        4.1027  -17.2634  -44.5117 H         1 UNK         0.3000 
    165 H165        3.1967  -17.6303  -41.2469 H         1 UNK         0.0600 
    166 H166        5.3637  -18.7068  -40.6675 H         1 UNK         0.0600 
    167 H167        4.2240  -19.9024  -41.2626 H         1 UNK         0.0600 
    168 H168        5.5171  -19.3318  -42.3104 H         1 UNK         0.0600 
    169 H169        5.6896  -16.8929  -42.5124 H         1 UNK         0.3000 
    170 H170        6.0448  -14.4053  -42.3725 H         1 UNK         0.0600 
    171 H171        6.4623  -14.0764  -44.8450 H         1 UNK         0.0600 
    172 H172        6.3096  -15.7771  -44.4487 H         1 UNK         0.0600 
    173 H173        4.9653  -14.9290  -45.2092 H         1 UNK         0.0600 
    174 H174        3.6423  -13.1827  -43.6201 H         1 UNK         0.3000 
    175 H175        4.1241  -10.1972  -41.9570 H         1 UNK         0.0600 
    176 H176        4.7660  -10.3161  -44.9551 H         1 UNK         0.0600 
    177 H177        4.1519   -8.9080  -44.0870 H         1 UNK         0.0600 
    178 H178        5.7532   -9.5323  -43.7277 H         1 UNK         0.0600 
    179 H179        2.5069  -10.9412  -44.2424 H         1 UNK         0.3000 
    180 H180        0.3231  -13.0746  -42.7266 H         1 UNK         0.0600 
    181 H181       -1.5932  -11.5209  -42.9667 H         1 UNK         0.0600 
    182 H182       -0.5051  -10.1326  -42.9627 H         1 UNK         0.0600 
    183 H183       -0.6809  -11.1256  -41.5199 H         1 UNK         0.0600 
    184 H184       -0.1611  -11.4816  -45.0074 H         1 UNK         0.3000 
    185 H185        1.3464  -12.0102  -47.2690 H         1 UNK         0.0600 
    186 H186        0.9798  -15.0514  -47.2124 H         1 UNK         0.0600 
    187 H187        1.1819  -14.0678  -48.6623 H         1 UNK         0.0600 
    188 H188        2.4917  -14.1942  -47.5028 H         1 UNK         0.0600 
    189 H189       -1.0452  -13.6683  -47.3351 H         1 UNK         0.3000 
    190 H190       -4.2351  -22.0538  -44.9126 H         1 UNK         0.3000 
    191 H191       -6.6481  -23.7135  -44.6097 H         1 UNK         0.0600 
    192 H192       -4.5779  -22.7494  -42.5643 H         1 UNK         0.0600 
    193 H193       -6.0810  -23.5853  -42.1988 H         1 UNK         0.0600 
    194 H194       -6.1255  -21.9790  -42.9087 H         1 UNK         0.0600 
    195 H195       -3.0902  -24.0095  -44.4169 H         1 UNK         0.3000 
    196 H196       -3.0370  -26.6561  -43.4319 H         1 UNK         0.0600 
    197 H197       -0.6210  -26.5307  -43.9115 H         1 UNK         0.0600 
    198 H198       -1.1696  -25.0156  -43.2096 H         1 UNK         0.0600 
    199 H199       -0.8594  -25.1285  -44.9418 H         1 UNK         0.0600 
    200 H200       -2.6616  -25.4709  -46.8348 H         1 UNK         0.3000 
    201 H201       -3.2126  -28.1831  -47.8797 H         1 UNK         0.0600 
    202 H202       -0.7612  -28.2059  -47.3456 H         1 UNK         0.0600 
    203 H203       -0.5304  -26.7574  -48.3220 H         1 UNK         0.0600 
    204 H204       -1.0256  -28.2702  -49.0754 H         1 UNK         0.0600 
    205 H205       -4.4373  -25.4179  -48.0465 H         1 UNK         0.3000 
    206 H206       -5.3718  -24.0077  -49.5160 H         1 UNK         0.0600 
    207 H207       -6.2664  -24.9641  -51.6158 H         1 UNK         0.0600 
    208 H208       -5.2216  -26.3698  -51.4529 H         1 UNK         0.0600 
    209 H209       -6.4987  -26.0755  -50.2776 H         1 UNK         0.0600 
    210 H210       -2.6278  -23.6932  -49.2025 H         1 UNK         0.3000 
    211 H211       -0.7691  -22.7742  -49.9467 H         1 UNK         0.0600 
    212 H212       -2.5401  -21.4360  -52.0379 H         1 UNK         0.0600 
    213 H213       -0.9183  -20.9246  -51.5928 H         1 UNK         0.0600 
    214 H214       -2.2147  -20.8367  -50.4132 H         1 UNK         0.0600 
    215 H215       -1.0795  -25.3394  -50.6543 H         1 UNK         0.3000 
    216 H216       -0.2056  -27.0217  -51.7618 H         1 UNK         0.0600 
    217 H217        1.7324  -26.7758  -53.2501 H         1 UNK         0.0600 
    218 H218        1.9397  -25.7344  -51.8512 H         1 UNK         0.0600 
    219 H219        1.4655  -25.0469  -53.4042 H         1 UNK         0.0600 
    220 H220       -2.6570  -26.3425  -52.3389 H         1 UNK         0.3000 
    221 H221       -4.4046  -26.4845  -53.6956 H         1 UNK         0.0600 
    222 H222       -2.5943  -28.1872  -55.4874 H         1 UNK         0.0600 
    223 H223       -3.4819  -28.7709  -54.0802 H         1 UNK         0.0600 
    224 H224       -4.3528  -28.1838  -55.4872 H         1 UNK         0.0600 
    225 H225       -3.2974  -24.0815  -53.8870 H         1 UNK         0.3000 
    226 H226       -4.0345  -23.0766  -56.4978 H         1 UNK         0.0600 
    227 H227       -1.6966  -23.7553  -57.0432 H         1 UNK         0.0600 
    228 H228       -1.8047  -22.0042  -56.9603 H         1 UNK         0.0600 
    229 H229       -1.0921  -22.9037  -55.6245 H         1 UNK         0.0600 
    230 H230       -5.4481  -22.6201  -54.5321 H         1 UNK         0.3000 
    231 H231       -4.8978  -21.2812  -52.2982 H         1 UNK         0.0600 
    232 H232       -7.4137  -20.9748  -54.0092 H         1 UNK         0.0600 
    233 H233       -7.0948  -22.2450  -52.8259 H         1 UNK         0.0600 
    234 H234       -7.3044  -20.5837  -52.2969 H         1 UNK         0.0600 
    235 H235       -4.6612  -19.3073  -51.4632 H         1 UNK         0.3000 
    236 H236       -4.0328  -17.2520  -51.2078 H         1 UNK         0.0600 
    237 H237       -5.4561  -16.4582  -53.7923 H         1 UNK         0.0600 
    238 H238       -6.2300  -16.5942  -52.2124 H         1 UNK         0.0600 
    239 H239       -4.9784  -15.3939  -52.4805 H         1 UNK         0.0600 
    240 H240       -2.3564  -19.1526  -52.5896 H         1 UNK         0.3000 
    241 H241       -0.3603  -19.3812  -53.4875 H         1 UNK         0.0600 
    242 H242       -1.5550  -18.5593  -56.8371 H         1 UNK         0.3800 
    243 H243       -2.1149  -19.4384  -55.4238 H         1 UNK         0.3800 
    244 H244        1.3333  -17.4748  -53.3009 H         1 UNK         0.0800 
    245 H245        0.0604  -16.4752  -52.6537 H         1 UNK         0.0800 
    246 H246        1.1946  -15.9694  -50.4447 H         1 UNK         0.0800 
    247 H247        1.1415  -17.0554  -49.0796 H         1 UNK         0.0800 
@<TRIPOS>BOND
     1    1    2 1    
     2    1  127 1    
     3    1  128 1    
     4    1  129 1    
     5    2    3 2    
     6    2    4 am   BACKBONE|DICT|INTERRES
     7    4    5 1    
     8    4  130 1    
     9    5    6 1    
    10    5   65 1    
    11    5  131 1    
    12    6    7 1    
    13    6  132 1    
    14    6  133 1    
    15    7    8 1    
    16    8    9 1    
    17    8  134 1    
    18    8  135 1    
    19    9   10 ar   
    20    9   14 ar   
    21   10   11 ar   
    22   10  136 1    
    23   11   12 ar   
    24   11  126 1    
    25   12   13 ar   
    26   12  137 1    
    27   13   14 ar   
    28   13   15 1    
    29   14  138 1    
    30   15   16 1    
    31   15  139 1    
    32   15  140 1    
    33   16   17 1    
    34   17   18 1    
    35   17  141 1    
    36   17  142 1    
    37   18   19 1    
    38   18   67 1    
    39   18  143 1    
    40   19   20 am   BACKBONE|DICT|INTERRES
    41   19  144 1    
    42   20   21 2    
    43   20   22 1    
    44   22   23 1    
    45   22   24 1    
    46   22  145 1    
    47   23  146 1    
    48   23  147 1    
    49   23  148 1    
    50   24   25 am   BACKBONE|DICT|INTERRES
    51   24  149 1    
    52   25   26 2    
    53   25   27 1    
    54   27   28 1    
    55   27   29 1    
    56   27  150 1    
    57   28  151 1    
    58   28  152 1    
    59   28  153 1    
    60   29   30 am   BACKBONE|DICT|INTERRES
    61   29  154 1    
    62   30   31 2    
    63   30   32 1    
    64   32   33 1    
    65   32   34 1    
    66   32  155 1    
    67   33  156 1    
    68   33  157 1    
    69   33  158 1    
    70   34   35 am   BACKBONE|DICT|INTERRES
    71   34  159 1    
    72   35   36 2    
    73   35   37 1    
    74   37   38 1    
    75   37   39 1    
    76   37  160 1    
    77   38  161 1    
    78   38  162 1    
    79   38  163 1    
    80   39   40 am   BACKBONE|DICT|INTERRES
    81   39  164 1    
    82   40   41 2    
    83   40   42 1    
    84   42   43 1    
    85   42   44 1    
    86   42  165 1    
    87   43  166 1    
    88   43  167 1    
    89   43  168 1    
    90   44   45 am   BACKBONE|DICT|INTERRES
    91   44  169 1    
    92   45   46 2    
    93   45   47 1    
    94   47   48 1    
    95   47   49 1    
    96   47  170 1    
    97   48  171 1    
    98   48  172 1    
    99   48  173 1    
   100   49   50 am   BACKBONE|DICT|INTERRES
   101   49  174 1    
   102   50   51 2    
   103   50   52 1    
   104   52   53 1    
   105   52   54 1    
   106   52  175 1    
   107   53  176 1    
   108   53  177 1    
   109   53  178 1    
   110   54   55 am   BACKBONE|DICT|INTERRES
   111   54  179 1    
   112   55   56 2    
   113   55   57 1    
   114   57   58 1    
   115   57   59 1    
   116   57  180 1    
   117   58  181 1    
   118   58  182 1    
   119   58  183 1    
   120   59   60 am   BACKBONE|DICT|INTERRES
   121   59  184 1    
   122   60   61 2    
   123   60   62 1    
   124   62   63 1    
   125   62   64 1    
   126   62  185 1    
   127   63  186 1    
   128   63  187 1    
   129   63  188 1    
   130   64   65 am   BACKBONE|DICT|INTERRES
   131   64  189 1    
   132   65   66 2    
   133   67   68 2    
   134   67   69 am   BACKBONE|DICT|INTERRES
   135   69   70 1    
   136   69  190 1    
   137   70   71 1    
   138   70   72 1    
   139   70  191 1    
   140   71  192 1    
   141   71  193 1    
   142   71  194 1    
   143   72   73 2    
   144   72   74 am   BACKBONE|DICT|INTERRES
   145   74   75 1    
   146   74  195 1    
   147   75   76 1    
   148   75   77 1    
   149   75  196 1    
   150   76  197 1    
   151   76  198 1    
   152   76  199 1    
   153   77   78 2    
   154   77   79 am   BACKBONE|DICT|INTERRES
   155   79   80 1    
   156   79  200 1    
   157   80   81 1    
   158   80   82 1    
   159   80  201 1    
   160   81  202 1    
   161   81  203 1    
   162   81  204 1    
   163   82   83 2    
   164   82   84 am   BACKBONE|DICT|INTERRES
   165   84   85 1    
   166   84  205 1    
   167   85   86 1    
   168   85   87 1    
   169   85  206 1    
   170   86  207 1    
   171   86  208 1    
   172   86  209 1    
   173   87   88 2    
   174   87   89 am   BACKBONE|DICT|INTERRES
   175   89   90 1    
   176   89  210 1    
   177   90   91 1    
   178   90   92 1    
   179   90  211 1    
   180   91  212 1    
   181   91  213 1    
   182   91  214 1    
   183   92   93 2    
   184   92   94 am   BACKBONE|DICT|INTERRES
   185   94   95 1    
   186   94  215 1    
   187   95   96 1    
   188   95   97 1    
   189   95  216 1    
   190   96  217 1    
   191   96  218 1    
   192   96  219 1    
   193   97   98 2    
   194   97   99 am   BACKBONE|DICT|INTERRES
   195   99  100 1    
   196   99  220 1    
   197  100  101 1    
   198  100  102 1    
   199  100  221 1    
   200  101  222 1    
   201  101  223 1    
   202  101  224 1    
   203  102  103 2    
   204  102  104 am   BACKBONE|DICT|INTERRES
   205  104  105 1    
   206  104  225 1    
   207  105  106 1    
   208  105  107 1    
   209  105  226 1    
   210  106  227 1    
   211  106  228 1    
   212  106  229 1    
   213  107  108 2    
   214  107  109 am   BACKBONE|DICT|INTERRES
   215  109  110 1    
   216  109  230 1    
   217  110  111 1    
   218  110  112 1    
   219  110  231 1    
   220  111  232 1    
   221  111  233 1    
   222  111  234 1    
   223  112  113 2    
   224  112  114 am   BACKBONE|DICT|INTERRES
   225  114  115 1    
   226  114  235 1    
   227  115  116 1    
   228  115  117 1    
   229  115  236 1    
   230  116  237 1    
   231  116  238 1    
   232  116  239 1    
   233  117  118 2    
   234  117  119 am   BACKBONE|DICT|INTERRES
   235  119  120 1    
   236  119  240 1    
   237  120  121 1    
   238  120  124 1    
   239  120  241 1    
   240  121  122 am   BACKBONE|DICT|INTERRES
   241  121  123 2    
   242  122  242 1    
   243  122  243 1    
   244  124  125 1    
   245  124  244 1    
   246  124  245 1    
   247  125  126 1    
   248  126  246 1    
   249  126  247 1    
@<TRIPOS>SUBSTRUCTURE
     1 UNK         1 GROUP             0       ****    0 ROOT    
