@<TRIPOS>MOLECULE
3R540
247   249    1
SMALL
USER_CHARGES


@<TRIPOS>ATOM
      1 CA          2.1647   -9.8852  -51.5609 C.3       0 UNK        -0.1800 
      2 C           1.9585  -11.3416  -51.1687 C.2       0 UNK         0.5000 
      3 O           2.1833  -12.2341  -51.9868 O.2       0 UNK        -0.5000 
      4 N           1.5219  -11.5822  -49.9272 N.am      1 UNK        -0.5000 
      5 CA          1.3131  -12.9172  -49.3591 C.3       1 UNK         0.1400 
      6 C6          0.3798  -12.8819  -48.1197 C.3       23 UNK        -0.0398 
      7 S7         -1.2598  -12.1089  -48.3543 S.3       23 UNK        -0.2404 
      8 C8         -1.8325  -12.7315  -49.9718 C.3       23 UNK        -0.0205 
      9 C9         -1.8715  -14.2530  -50.0706 C.ar      23 UNK        -0.0193 
     10 C10        -1.2379  -14.8939  -51.1395 C.ar      23 UNK        -0.1150 
     11 C11        -1.2947  -16.2855  -51.2817 C.ar      23 UNK        -0.0193 
     12 C12        -1.9724  -17.0363  -50.3179 C.ar      23 UNK        -0.1150 
     13 C13        -2.6092  -16.4109  -49.2423 C.ar      23 UNK        -0.0193 
     14 C14        -2.5638  -15.0189  -49.1275 C.ar      23 UNK        -0.1150 
     15 C15        -3.3598  -17.2448  -48.2196 C.3       23 UNK        -0.0205 
     16 S16        -2.3309  -17.5834  -46.7592 S.3       23 UNK        -0.2404 
     17 C17        -3.1278  -19.1045  -46.1462 C.3       23 UNK        -0.0398 
     18 CA         -2.3399  -20.3558  -46.6021 C.3       11 UNK         0.1400 
     19 N          -1.0608  -20.4651  -45.9069 N.am      11 UNK        -0.5000 
     20 C           0.1265  -20.6499  -46.4952 C.2       10 UNK         0.5000 
     21 O           0.2819  -20.7323  -47.7128 O.2       10 UNK        -0.5000 
     22 CA          1.3569  -20.7720  -45.5747 C.3       10 UNK         0.1400 
     23 CB          2.2714  -19.5476  -45.7274 C.3       10 UNK        -0.1800 
     24 N           1.0046  -20.9651  -44.1632 N.am      10 UNK        -0.5000 
     25 C           0.5674  -22.1345  -43.6742 C.2       9 UNK         0.5000 
     26 O           0.4052  -23.1354  -44.3708 O.2       9 UNK        -0.5000 
     27 CA          0.1952  -22.2062  -42.1805 C.3       9 UNK         0.1400 
     28 CB          1.4043  -22.6528  -41.3462 C.3       9 UNK        -0.1800 
     29 N          -0.3668  -20.9789  -41.6109 N.am      9 UNK        -0.5000 
     30 C          -1.4538  -20.3390  -42.0613 C.2       8 UNK         0.5000 
     31 O          -2.0456  -20.6597  -43.0944 O.2       8 UNK        -0.5000 
     32 CA         -1.9773  -19.1476  -41.2437 C.3       8 UNK         0.1400 
     33 CB         -1.0467  -18.6879  -40.1027 C.3       8 UNK        -0.1800 
     34 N          -2.1998  -18.0433  -42.1648 N.am      8 UNK        -0.5000 
     35 C          -3.2559  -17.2220  -42.1775 C.2       7 UNK         0.5000 
     36 O          -4.1869  -17.2994  -41.3740 O.2       7 UNK        -0.5000 
     37 CA         -3.2884  -16.1458  -43.2883 C.3       7 UNK         0.1400 
     38 CB         -3.9346  -14.8247  -42.8218 C.3       7 UNK        -0.1800 
     39 N          -1.9803  -15.9069  -43.9133 N.am      7 UNK        -0.5000 
     40 C          -0.8790  -15.4215  -43.3246 C.2       6 UNK         0.5000 
     41 O          -0.8333  -14.9959  -42.1682 O.2       6 UNK        -0.5000 
     42 CA          0.4032  -15.4490  -44.1728 C.3       6 UNK         0.1400 
     43 CB          0.7523  -14.0381  -44.6691 C.3       6 UNK        -0.1800 
     44 N           1.5294  -16.0011  -43.4189 N.am      6 UNK        -0.5000 
     45 C           1.5992  -17.2575  -42.9573 C.2       5 UNK         0.5000 
     46 O           0.7294  -18.1102  -43.1579 O.2       5 UNK        -0.5000 
     47 CA          2.8705  -17.6204  -42.1723 C.3       5 UNK         0.1400 
     48 CB          2.9584  -19.1192  -41.8139 C.3       5 UNK        -0.1800 
     49 N           4.0560  -17.1862  -42.9117 N.am      5 UNK        -0.5000 
     50 C           5.2790  -17.0421  -42.3810 C.2       4 UNK         0.5000 
     51 O           5.5500  -17.2920  -41.2057 O.2       4 UNK        -0.5000 
     52 CA          6.3903  -16.5034  -43.3059 C.3       4 UNK         0.1400 
     53 CB          7.0871  -17.6613  -44.0369 C.3       4 UNK        -0.1800 
     54 N           5.9093  -15.5374  -44.2940 N.am      4 UNK        -0.5000 
     55 C           5.3172  -14.3700  -44.0105 C.2       3 UNK         0.5000 
     56 O           5.2006  -13.9277  -42.8670 O.2       3 UNK        -0.5000 
     57 CA          4.7352  -13.5574  -45.1846 C.3       3 UNK         0.1400 
     58 CB          5.5838  -12.3010  -45.4361 C.3       3 UNK        -0.1800 
     59 N           4.5642  -14.2598  -46.4625 N.am      3 UNK        -0.5000 
     60 C           3.9013  -15.3989  -46.7037 C.2       2 UNK         0.5000 
     61 O           3.4475  -16.1334  -45.8250 O.2       2 UNK        -0.5000 
     62 CA          3.6706  -15.7284  -48.1936 C.3       2 UNK         0.1400 
     63 CB          3.3235  -17.2089  -48.4200 C.3       2 UNK        -0.1800 
     64 N           2.5870  -14.9107  -48.7396 N.am      2 UNK        -0.5000 
     65 C           2.6494  -13.5960  -48.9909 C.2       1 UNK         0.5000 
     66 O           3.6857  -12.9320  -48.8915 O.2       1 UNK        -0.5000 
     67 C          -3.1576  -21.6413  -46.3950 C.2       11 UNK         0.5000 
     68 O          -3.6263  -22.2227  -47.3758 O.2       11 UNK        -0.5000 
     69 N          -3.3213  -22.0507  -45.1303 N.am      12 UNK        -0.5000 
     70 CA         -4.1871  -23.1496  -44.7157 C.3       12 UNK         0.1400 
     71 CB         -4.6809  -22.8910  -43.2822 C.3       12 UNK        -0.1800 
     72 C          -3.4961  -24.5166  -44.8275 C.2       12 UNK         0.5000 
     73 O          -3.9691  -25.3701  -45.5766 O.2       12 UNK        -0.5000 
     74 N          -2.3990  -24.7108  -44.0807 N.am      13 UNK        -0.5000 
     75 CA         -1.6985  -25.9972  -43.9711 C.3       13 UNK         0.1400 
     76 CB         -0.7363  -25.9755  -42.7730 C.3       13 UNK        -0.1800 
     77 C          -0.9666  -26.3925  -45.2658 C.2       13 UNK         0.5000 
     78 O          -0.9852  -27.5638  -45.6450 O.2       13 UNK        -0.5000 
     79 N          -0.3820  -25.3975  -45.9452 N.am      14 UNK        -0.5000 
     80 CA          0.2134  -25.5254  -47.2774 C.3       14 UNK         0.1400 
     81 CB          1.1169  -24.3102  -47.5303 C.3       14 UNK        -0.1800 
     82 C          -0.8350  -25.6589  -48.4031 C.2       14 UNK         0.5000 
     83 O          -0.4670  -26.0003  -49.5271 O.2       14 UNK        -0.5000 
     84 N          -2.1089  -25.3800  -48.0845 N.am      15 UNK        -0.5000 
     85 CA         -3.2990  -25.4749  -48.9355 C.3       15 UNK         0.1400 
     86 CB         -3.5390  -26.9310  -49.3854 C.3       15 UNK        -0.1800 
     87 C          -3.3239  -24.4815  -50.1133 C.2       15 UNK         0.5000 
     88 O          -4.1014  -24.6748  -51.0473 O.2       15 UNK        -0.5000 
     89 N          -2.5198  -23.4116  -50.0437 N.am      16 UNK        -0.5000 
     90 CA         -2.4391  -22.3592  -51.0589 C.3       16 UNK         0.1400 
     91 CB         -1.2886  -21.4039  -50.7133 C.3       16 UNK        -0.1800 
     92 C          -3.7554  -21.5795  -51.2290 C.2       16 UNK         0.5000 
     93 O          -4.0863  -21.1930  -52.3510 O.2       16 UNK        -0.5000 
     94 N          -4.4968  -21.3947  -50.1266 N.am      17 UNK        -0.5000 
     95 CA         -5.8239  -20.7786  -50.1304 C.3       17 UNK         0.1400 
     96 CB         -6.2106  -20.3818  -48.6982 C.3       17 UNK        -0.1800 
     97 C          -6.8954  -21.7008  -50.7391 C.2       17 UNK         0.5000 
     98 O          -7.7701  -21.2208  -51.4593 O.2       17 UNK        -0.5000 
     99 N          -6.7980  -23.0062  -50.4508 N.am      18 UNK        -0.5000 
    100 CA        -7.7127  -24.0381  -50.9435 C.3       18 UNK         0.1400 
    101 CB        -7.5405  -25.3146  -50.1062 C.3       18 UNK        -0.1800 
    102 C         -7.5086  -24.3302  -52.4402 C.2       18 UNK         0.5000 
    103 O         -8.4869  -24.4790  -53.1731 O.2       18 UNK        -0.5000 
    104 N         -6.2404  -24.3762  -52.8686 N.am      19 UNK        -0.5000 
    105 CA        -5.8287  -24.5415  -54.2629 C.3       19 UNK         0.1400 
    106 CB        -4.3443  -24.9391  -54.2935 C.3       19 UNK        -0.1800 
    107 C         -6.0537  -23.2793  -55.1179 C.2       19 UNK         0.5000 
    108 O         -6.0677  -23.3857  -56.3447 O.2       19 UNK        -0.5000 
    109 N         -6.2028  -22.1195  -54.4584 N.am      20 UNK        -0.5000 
    110 CA        -6.2979  -20.7725  -55.0277 C.3       20 UNK         0.1400 
    111 CB        -7.5972  -20.6016  -55.8416 C.3       20 UNK        -0.1800 
    112 C         -5.0232  -20.4108  -55.8154 C.2       20 UNK         0.5000 
    113 O         -5.0912  -20.0297  -56.9856 O.2       20 UNK        -0.5000 
    114 N         -3.8717  -20.5766  -55.1492 N.am      21 UNK        -0.5000 
    115 CA        -2.5343  -20.3489  -55.7029 C.3       21 UNK         0.1400 
    116 CB        -1.4909  -20.9009  -54.7205 C.3       21 UNK        -0.1800 
    117 C         -2.2452  -18.8689  -56.0215 C.2       21 UNK         0.5000 
    118 O         -1.4374  -18.5866  -56.9075 O.2       21 UNK        -0.5000 
    119 N         -2.9220  -17.9654  -55.3063 N.am      22 UNK        -0.5000 
    120 CA        -2.9341  -16.5180  -55.5368 C.3       22 UNK         0.1400 
    121 C         -4.3816  -16.0603  -55.8523 C.2       22 UNK         0.5000 
    122 N         -4.5545  -15.0993  -56.7492 N.am      22 UNK        -0.7600 
    123 O         -5.3488  -16.5435  -55.2660 O.2       22 UNK        -0.5000 
    124 C124       -2.3824  -15.7432  -54.3161 C.3       23 UNK        -0.0398 
    125 S125       -0.6065  -16.0554  -54.0205 S.3       23 UNK        -0.2404 
    126 C126       -0.6387  -17.0064  -52.4600 C.3       23 UNK        -0.0205 
    127 H127        1.9150   -9.2062  -50.7450 H         1 UNK         0.0600 
    128 H128        1.5370   -9.6342  -52.4160 H         1 UNK         0.0600 
    129 H129        3.2050   -9.7153  -51.8381 H         1 UNK         0.0600 
    130 H130        1.3698  -10.8096  -49.2953 H         1 UNK         0.3000 
    131 H131        0.8581  -13.5405  -50.1267 H         1 UNK         0.0600 
    132 H132        0.8682  -12.3536  -47.2988 H         1 UNK         0.0800 
    133 H133        0.1952  -13.8944  -47.7563 H         1 UNK         0.0800 
    134 H134       -1.2071  -12.3038  -50.7567 H         1 UNK         0.0800 
    135 H135       -2.8386  -12.3503  -50.1506 H         1 UNK         0.0800 
    136 H136       -0.7093  -14.3007  -51.8721 H         1 UNK         0.1150 
    137 H137       -2.0132  -18.1130  -50.4089 H         1 UNK         0.1150 
    138 H138       -3.0635  -14.5320  -48.3016 H         1 UNK         0.1150 
    139 H139       -3.6687  -18.1844  -48.6796 H         1 UNK         0.0800 
    140 H140       -4.2739  -16.7349  -47.9119 H         1 UNK         0.0800 
    141 H141       -3.1802  -19.0546  -45.0574 H         1 UNK         0.0800 
    142 H142       -4.1618  -19.1323  -46.4914 H         1 UNK         0.0800 
    143 H143       -2.1775  -20.2655  -47.6770 H         1 UNK         0.0600 
    144 H144       -1.0971  -20.4327  -44.8952 H         1 UNK         0.3000 
    145 H145        1.9229  -21.6452  -45.9064 H         1 UNK         0.0600 
    146 H146        2.6895  -19.5152  -46.7330 H         1 UNK         0.0600 
    147 H147        3.1121  -19.5788  -45.0356 H         1 UNK         0.0600 
    148 H148        1.7322  -18.6133  -45.5719 H         1 UNK         0.0600 
    149 H149        1.0287  -20.1442  -43.5683 H         1 UNK         0.3000 
    150 H150       -0.5747  -22.9733  -42.0829 H         1 UNK         0.0600 
    151 H151        2.2105  -21.9201  -41.3761 H         1 UNK         0.0600 
    152 H152        1.8075  -23.5959  -41.7180 H         1 UNK         0.0600 
    153 H153        1.1295  -22.8093  -40.3030 H         1 UNK         0.0600 
    154 H154        0.0680  -20.6389  -40.7661 H         1 UNK         0.3000 
    155 H155       -2.9261  -19.4694  -40.8101 H         1 UNK         0.0600 
    156 H156       -1.4785  -17.8398  -39.5710 H         1 UNK         0.0600 
    157 H157       -0.0705  -18.3757  -40.4744 H         1 UNK         0.0600 
    158 H158       -0.8945  -19.4786  -39.3672 H         1 UNK         0.0600 
    159 H159       -1.4754  -17.9219  -42.8621 H         1 UNK         0.3000 
    160 H160       -3.9223  -16.5551  -44.0761 H         1 UNK         0.0600 
    161 H161       -3.4110  -14.3941  -41.9681 H         1 UNK         0.0600 
    162 H162       -4.9709  -14.9818  -42.5207 H         1 UNK         0.0600 
    163 H163       -3.9399  -14.0843  -43.6218 H         1 UNK         0.0600 
    164 H164       -1.9049  -16.2368  -44.8679 H         1 UNK         0.3000 
    165 H165        0.2411  -16.0882  -45.0439 H         1 UNK         0.0600 
    166 H166        1.5688  -14.0659  -45.3882 H         1 UNK         0.0600 
    167 H167       -0.1015  -13.5781  -45.1684 H         1 UNK         0.0600 
    168 H168        1.0438  -13.3819  -43.8482 H         1 UNK         0.0600 
    169 H169        2.2796  -15.3637  -43.2004 H         1 UNK         0.3000 
    170 H170        2.8194  -17.0539  -41.2402 H         1 UNK         0.0600 
    171 H171        3.7945  -19.3231  -41.1458 H         1 UNK         0.0600 
    172 H172        3.0869  -19.7401  -42.6990 H         1 UNK         0.0600 
    173 H173        2.0586  -19.4515  -41.2974 H         1 UNK         0.0600 
    174 H174        3.9060  -16.9370  -43.8855 H         1 UNK         0.3000 
    175 H175        7.1279  -15.9986  -42.6786 H         1 UNK         0.0600 
    176 H176        7.4780  -18.3920  -43.3276 H         1 UNK         0.0600 
    177 H177        6.4017  -18.1857  -44.7044 H         1 UNK         0.0600 
    178 H178        7.9286  -17.3043  -44.6310 H         1 UNK         0.0600 
    179 H179        5.9393  -15.8248  -45.2608 H         1 UNK         0.3000 
    180 H180        3.7435  -13.2306  -44.8690 H         1 UNK         0.0600 
    181 H181        6.5812  -12.5578  -45.7950 H         1 UNK         0.0600 
    182 H182        5.7033  -11.7150  -44.5237 H         1 UNK         0.0600 
    183 H183        5.1170  -11.6511  -46.1768 H         1 UNK         0.0600 
    184 H184        4.8208  -13.7186  -47.2801 H         1 UNK         0.3000 
    185 H185        4.5924  -15.5107  -48.7372 H         1 UNK         0.0600 
    186 H186        4.0893  -17.8592  -47.9953 H         1 UNK         0.0600 
    187 H187        2.3702  -17.4728  -47.9604 H         1 UNK         0.0600 
    188 H188        3.2552  -17.4392  -49.4833 H         1 UNK         0.0600 
    189 H189        1.6996  -15.3819  -48.8393 H         1 UNK         0.3000 
    190 H190       -2.8797  -21.5229  -44.3790 H         1 UNK         0.3000 
    191 H191       -5.0648  -23.1693  -45.3660 H         1 UNK         0.0600 
    192 H192       -5.2584  -21.9678  -43.2288 H         1 UNK         0.0600 
    193 H193       -5.3285  -23.6990  -42.9394 H         1 UNK         0.0600 
    194 H194       -3.8567  -22.8060  -42.5731 H         1 UNK         0.0600 
    195 H195       -2.0429  -23.9467  -43.5280 H         1 UNK         0.3000 
    196 H196       -2.4501  -26.7651  -43.7747 H         1 UNK         0.0600 
    197 H197       -0.2977  -26.9614  -42.6144 H         1 UNK         0.0600 
    198 H198       -1.2527  -25.6994  -41.8536 H         1 UNK         0.0600 
    199 H199        0.0873  -25.2785  -42.9210 H         1 UNK         0.0600 
    200 H200       -0.3258  -24.4831  -45.5036 H         1 UNK         0.3000 
    201 H201        0.8333  -26.4240  -47.2949 H         1 UNK         0.0600 
    202 H202        1.6386  -24.3995  -48.4839 H         1 UNK         0.0600 
    203 H203        1.8738  -24.2091  -46.7522 H         1 UNK         0.0600 
    204 H204        0.5377  -23.3885  -47.5588 H         1 UNK         0.0600 
    205 H205       -2.3016  -25.1274  -47.1244 H         1 UNK         0.3000 
    206 H206       -4.1390  -25.1895  -48.3011 H         1 UNK         0.0600 
    207 H207       -3.5388  -27.6104  -48.5329 H         1 UNK         0.0600 
    208 H208       -4.5038  -27.0377  -49.8815 H         1 UNK         0.0600 
    209 H209       -2.7759  -27.2701  -50.0863 H         1 UNK         0.0600 
    210 H210       -1.9435  -23.3031  -49.2226 H         1 UNK         0.3000 
    211 H211       -2.2130  -22.8360  -52.0148 H         1 UNK         0.0600 
    212 H212       -1.4594  -20.8987  -49.7642 H         1 UNK         0.0600 
    213 H213       -1.1737  -20.6309  -51.4728 H         1 UNK         0.0600 
    214 H214       -0.3391  -21.9350  -50.6434 H         1 UNK         0.0600 
    215 H215       -4.1572  -21.7550  -49.2397 H         1 UNK         0.3000 
    216 H216       -5.7825  -19.8698  -50.7351 H         1 UNK         0.0600 
    217 H217       -7.2069  -19.9387  -48.6704 H         1 UNK         0.0600 
    218 H218       -6.2137  -21.2408  -48.0261 H         1 UNK         0.0600 
    219 H219       -5.5199  -19.6432  -48.2977 H         1 UNK         0.0600 
    220 H220       -6.0242  -23.3180  -49.8840 H         1 UNK         0.3000 
    221 H221       -8.7361  -23.6812  -50.8092 H         1 UNK         0.0600 
    222 H222       -6.5321  -25.7196  -50.1895 H         1 UNK         0.0600 
    223 H223       -7.7399  -25.1250  -49.0514 H         1 UNK         0.0600 
    224 H224       -8.2331  -26.0911  -50.4334 H         1 UNK         0.0600 
    225 H225       -5.4894  -24.3193  -52.1830 H         1 UNK         0.3000 
    226 H226       -6.4129  -25.3517  -54.7039 H         1 UNK         0.0600 
    227 H227       -4.0051  -25.1134  -55.3153 H         1 UNK         0.0600 
    228 H228       -3.7124  -24.1596  -53.8654 H         1 UNK         0.0600 
    229 H229       -4.1698  -25.8569  -53.7315 H         1 UNK         0.0600 
    230 H230       -6.1437  -22.1560  -53.4504 H         1 UNK         0.3000 
    231 H231       -6.3464  -20.0837  -54.1828 H         1 UNK         0.0600 
    232 H232       -7.6090  -21.2301  -56.7324 H         1 UNK         0.0600 
    233 H233       -7.7146  -19.5683  -56.1703 H         1 UNK         0.0600 
    234 H234       -8.4718  -20.8534  -55.2417 H         1 UNK         0.0600 
    235 H235       -3.9175  -20.8800  -54.1785 H         1 UNK         0.3000 
    236 H236       -2.4580  -20.9097  -56.6367 H         1 UNK         0.0600 
    237 H237       -1.5207  -20.3670  -53.7711 H         1 UNK         0.0600 
    238 H238       -1.6571  -21.9592  -54.5183 H         1 UNK         0.0600 
    239 H239       -0.4822  -20.7994  -55.1229 H         1 UNK         0.0600 
    240 H240       -3.6080  -18.2997  -54.6451 H         1 UNK         0.3000 
    241 H241       -2.3156  -16.2752  -56.4032 H         1 UNK         0.0600 
    242 H242       -3.7768  -14.6816  -57.2372 H         1 UNK         0.3800 
    243 H243       -5.4906  -14.7845  -56.9535 H         1 UNK         0.3800 
    244 H244       -2.9626  -15.9804  -53.4231 H         1 UNK         0.0800 
    245 H245       -2.4940  -14.6681  -54.4679 H         1 UNK         0.0800 
    246 H246       -1.1491  -17.9516  -52.6524 H         1 UNK         0.0800 
    247 H247        0.3858  -17.2583  -52.1841 H         1 UNK         0.0800 
@<TRIPOS>BOND
     1    1    2 1    
     2    1  127 1    
     3    1  128 1    
     4    1  129 1    
     5    2    3 2    
     6    2    4 am   BACKBONE|DICT|INTERRES
     7    4    5 1    
     8    4  130 1    
     9    5    6 1    
    10    5   65 1    
    11    5  131 1    
    12    6    7 1    
    13    6  132 1    
    14    6  133 1    
    15    7    8 1    
    16    8    9 1    
    17    8  134 1    
    18    8  135 1    
    19    9   10 ar   
    20    9   14 ar   
    21   10   11 ar   
    22   10  136 1    
    23   11   12 ar   
    24   11  126 1    
    25   12   13 ar   
    26   12  137 1    
    27   13   14 ar   
    28   13   15 1    
    29   14  138 1    
    30   15   16 1    
    31   15  139 1    
    32   15  140 1    
    33   16   17 1    
    34   17   18 1    
    35   17  141 1    
    36   17  142 1    
    37   18   19 1    
    38   18   67 1    
    39   18  143 1    
    40   19   20 am   BACKBONE|DICT|INTERRES
    41   19  144 1    
    42   20   21 2    
    43   20   22 1    
    44   22   23 1    
    45   22   24 1    
    46   22  145 1    
    47   23  146 1    
    48   23  147 1    
    49   23  148 1    
    50   24   25 am   BACKBONE|DICT|INTERRES
    51   24  149 1    
    52   25   26 2    
    53   25   27 1    
    54   27   28 1    
    55   27   29 1    
    56   27  150 1    
    57   28  151 1    
    58   28  152 1    
    59   28  153 1    
    60   29   30 am   BACKBONE|DICT|INTERRES
    61   29  154 1    
    62   30   31 2    
    63   30   32 1    
    64   32   33 1    
    65   32   34 1    
    66   32  155 1    
    67   33  156 1    
    68   33  157 1    
    69   33  158 1    
    70   34   35 am   BACKBONE|DICT|INTERRES
    71   34  159 1    
    72   35   36 2    
    73   35   37 1    
    74   37   38 1    
    75   37   39 1    
    76   37  160 1    
    77   38  161 1    
    78   38  162 1    
    79   38  163 1    
    80   39   40 am   BACKBONE|DICT|INTERRES
    81   39  164 1    
    82   40   41 2    
    83   40   42 1    
    84   42   43 1    
    85   42   44 1    
    86   42  165 1    
    87   43  166 1    
    88   43  167 1    
    89   43  168 1    
    90   44   45 am   BACKBONE|DICT|INTERRES
    91   44  169 1    
    92   45   46 2    
    93   45   47 1    
    94   47   48 1    
    95   47   49 1    
    96   47  170 1    
    97   48  171 1    
    98   48  172 1    
    99   48  173 1    
   100   49   50 am   BACKBONE|DICT|INTERRES
   101   49  174 1    
   102   50   51 2    
   103   50   52 1    
   104   52   53 1    
   105   52   54 1    
   106   52  175 1    
   107   53  176 1    
   108   53  177 1    
   109   53  178 1    
   110   54   55 am   BACKBONE|DICT|INTERRES
   111   54  179 1    
   112   55   56 2    
   113   55   57 1    
   114   57   58 1    
   115   57   59 1    
   116   57  180 1    
   117   58  181 1    
   118   58  182 1    
   119   58  183 1    
   120   59   60 am   BACKBONE|DICT|INTERRES
   121   59  184 1    
   122   60   61 2    
   123   60   62 1    
   124   62   63 1    
   125   62   64 1    
   126   62  185 1    
   127   63  186 1    
   128   63  187 1    
   129   63  188 1    
   130   64   65 am   BACKBONE|DICT|INTERRES
   131   64  189 1    
   132   65   66 2    
   133   67   68 2    
   134   67   69 am   BACKBONE|DICT|INTERRES
   135   69   70 1    
   136   69  190 1    
   137   70   71 1    
   138   70   72 1    
   139   70  191 1    
   140   71  192 1    
   141   71  193 1    
   142   71  194 1    
   143   72   73 2    
   144   72   74 am   BACKBONE|DICT|INTERRES
   145   74   75 1    
   146   74  195 1    
   147   75   76 1    
   148   75   77 1    
   149   75  196 1    
   150   76  197 1    
   151   76  198 1    
   152   76  199 1    
   153   77   78 2    
   154   77   79 am   BACKBONE|DICT|INTERRES
   155   79   80 1    
   156   79  200 1    
   157   80   81 1    
   158   80   82 1    
   159   80  201 1    
   160   81  202 1    
   161   81  203 1    
   162   81  204 1    
   163   82   83 2    
   164   82   84 am   BACKBONE|DICT|INTERRES
   165   84   85 1    
   166   84  205 1    
   167   85   86 1    
   168   85   87 1    
   169   85  206 1    
   170   86  207 1    
   171   86  208 1    
   172   86  209 1    
   173   87   88 2    
   174   87   89 am   BACKBONE|DICT|INTERRES
   175   89   90 1    
   176   89  210 1    
   177   90   91 1    
   178   90   92 1    
   179   90  211 1    
   180   91  212 1    
   181   91  213 1    
   182   91  214 1    
   183   92   93 2    
   184   92   94 am   BACKBONE|DICT|INTERRES
   185   94   95 1    
   186   94  215 1    
   187   95   96 1    
   188   95   97 1    
   189   95  216 1    
   190   96  217 1    
   191   96  218 1    
   192   96  219 1    
   193   97   98 2    
   194   97   99 am   BACKBONE|DICT|INTERRES
   195   99  100 1    
   196   99  220 1    
   197  100  101 1    
   198  100  102 1    
   199  100  221 1    
   200  101  222 1    
   201  101  223 1    
   202  101  224 1    
   203  102  103 2    
   204  102  104 am   BACKBONE|DICT|INTERRES
   205  104  105 1    
   206  104  225 1    
   207  105  106 1    
   208  105  107 1    
   209  105  226 1    
   210  106  227 1    
   211  106  228 1    
   212  106  229 1    
   213  107  108 2    
   214  107  109 am   BACKBONE|DICT|INTERRES
   215  109  110 1    
   216  109  230 1    
   217  110  111 1    
   218  110  112 1    
   219  110  231 1    
   220  111  232 1    
   221  111  233 1    
   222  111  234 1    
   223  112  113 2    
   224  112  114 am   BACKBONE|DICT|INTERRES
   225  114  115 1    
   226  114  235 1    
   227  115  116 1    
   228  115  117 1    
   229  115  236 1    
   230  116  237 1    
   231  116  238 1    
   232  116  239 1    
   233  117  118 2    
   234  117  119 am   BACKBONE|DICT|INTERRES
   235  119  120 1    
   236  119  240 1    
   237  120  121 1    
   238  120  124 1    
   239  120  241 1    
   240  121  122 am   BACKBONE|DICT|INTERRES
   241  121  123 2    
   242  122  242 1    
   243  122  243 1    
   244  124  125 1    
   245  124  244 1    
   246  124  245 1    
   247  125  126 1    
   248  126  246 1    
   249  126  247 1    
@<TRIPOS>SUBSTRUCTURE
     1 UNK         1 GROUP             0       ****    0 ROOT    
