@<TRIPOS>MOLECULE
3R540
247   249    1
SMALL
USER_CHARGES


@<TRIPOS>ATOM
      1 CA          5.7854  -14.4981  -48.9684 C.3       0 UNK        -0.1800 
      2 C           4.4993  -13.7161  -48.7447 C.2       0 UNK         0.5000 
      3 O           4.3573  -12.6109  -49.2678 O.2       0 UNK        -0.5000 
      4 N           3.5755  -14.2763  -47.9515 N.am      1 UNK        -0.5000 
      5 CA          2.2367  -13.7689  -47.5998 C.3       1 UNK         0.1400 
      6 C6          1.3044  -13.5036  -48.8137 C.3       23 UNK        -0.0398 
      7 S7          1.0894  -14.9623  -49.8880 S.3       23 UNK        -0.2404 
      8 C8         -0.2291  -15.8264  -48.9818 C.3       23 UNK        -0.0205 
      9 C9         -0.5477  -17.1921  -49.5690 C.ar      23 UNK        -0.0193 
     10 C10        -1.8460  -17.4922  -49.9888 C.ar      23 UNK        -0.1150 
     11 C11        -2.1558  -18.7612  -50.4839 C.ar      23 UNK        -0.0193 
     12 C12        -1.1575  -19.7380  -50.5438 C.ar      23 UNK        -0.1150 
     13 C13         0.1462  -19.4574  -50.1207 C.ar      23 UNK        -0.0193 
     14 C14         0.4446  -18.1735  -49.6498 C.ar      23 UNK        -0.1150 
     15 C15         1.2063  -20.5556  -50.2085 C.3       23 UNK        -0.0205 
     16 S16         2.5239  -20.5123  -48.9352 S.3       23 UNK        -0.2404 
     17 C17         1.6223  -20.3540  -47.3534 C.3       23 UNK        -0.0398 
     18 CA          1.1546  -21.6950  -46.7402 C.3       11 UNK         0.1400 
     19 N           0.9134  -21.5750  -45.3003 N.am      11 UNK        -0.5000 
     20 C           0.5772  -22.5821  -44.4817 C.2       10 UNK         0.5000 
     21 O           0.5013  -23.7591  -44.8342 O.2       10 UNK        -0.5000 
     22 CA          0.2105  -22.2023  -43.0358 C.3       10 UNK         0.1400 
     23 CB          1.4734  -22.0116  -42.1832 C.3       10 UNK        -0.1800 
     24 N          -0.6257  -21.0019  -42.9633 N.am      10 UNK        -0.5000 
     25 C          -1.8582  -20.9058  -43.4836 C.2       9 UNK         0.5000 
     26 O          -2.4367  -21.8362  -44.0433 O.2       9 UNK        -0.5000 
     27 CA         -2.5474  -19.5320  -43.4082 C.3       9 UNK         0.1400 
     28 CB         -3.1450  -19.2952  -42.0135 C.3       9 UNK        -0.1800 
     29 N          -1.6531  -18.4288  -43.7593 N.am      9 UNK        -0.5000 
     30 C          -1.0818  -18.2652  -44.9613 C.2       8 UNK         0.5000 
     31 O          -1.2757  -19.0135  -45.9192 O.2       8 UNK        -0.5000 
     32 CA         -0.0816  -17.1022  -45.0993 C.3       8 UNK         0.1400 
     33 CB         -0.8144  -15.7611  -45.2576 C.3       8 UNK        -0.1800 
     34 N           0.8484  -17.0240  -43.9720 N.am      8 UNK        -0.5000 
     35 C           1.7104  -17.9927  -43.6298 C.2       7 UNK         0.5000 
     36 O           1.8587  -19.0347  -44.2669 O.2       7 UNK        -0.5000 
     37 CA          2.4930  -17.7916  -42.3222 C.3       7 UNK         0.1400 
     38 CB          3.7047  -16.8701  -42.5341 C.3       7 UNK        -0.1800 
     39 N           1.6376  -17.2661  -41.2574 N.am      7 UNK        -0.5000 
     40 C           0.6481  -17.9605  -40.6754 C.2       6 UNK         0.5000 
     41 O           0.3838  -19.1311  -40.9467 O.2       6 UNK        -0.5000 
     42 CA         -0.2178  -17.2082  -39.6486 C.3       6 UNK         0.1400 
     43 CB          0.4469  -17.2265  -38.2642 C.3       6 UNK        -0.1800 
     44 N          -0.4778  -15.8237  -40.0430 N.am      6 UNK        -0.5000 
     45 C          -1.2082  -15.4588  -41.1070 C.2       5 UNK         0.5000 
     46 O          -1.7932  -16.2556  -41.8390 O.2       5 UNK        -0.5000 
     47 CA         -1.2376  -13.9543  -41.4384 C.3       5 UNK         0.1400 
     48 CB         -2.3717  -13.2533  -40.6763 C.3       5 UNK        -0.1800 
     49 N           0.0359  -13.2920  -41.1397 N.am      5 UNK        -0.5000 
     50 C           1.1869  -13.5665  -41.7663 C.2       4 UNK         0.5000 
     51 O           1.2844  -14.3666  -42.7009 O.2       4 UNK        -0.5000 
     52 CA          2.4480  -12.9089  -41.1955 C.3       4 UNK         0.1400 
     53 CB          2.9896  -13.7643  -40.0299 C.3       4 UNK        -0.1800 
     54 N           3.4327  -12.7894  -42.2661 N.am      4 UNK        -0.5000 
     55 C           4.6271  -12.1914  -42.1834 C.2       3 UNK         0.5000 
     56 O           5.0668  -11.6614  -41.1622 O.2       3 UNK        -0.5000 
     57 CA          5.4660  -12.1550  -43.4744 C.3       3 UNK         0.1400 
     58 CB          6.1206  -13.5212  -43.7360 C.3       3 UNK        -0.1800 
     59 N           4.6971  -11.7565  -44.6546 N.am      3 UNK        -0.5000 
     60 C           4.0784  -10.5777  -44.8225 C.2       2 UNK         0.5000 
     61 O           4.0902   -9.6742  -43.9856 O.2       2 UNK        -0.5000 
     62 CA          3.3365  -10.3531  -46.1560 C.3       2 UNK         0.1400 
     63 CB          4.0916   -9.3378  -47.0283 C.3       2 UNK        -0.1800 
     64 N           3.1409  -11.5777  -46.9339 N.am      2 UNK        -0.5000 
     65 C           2.2625  -12.5471  -46.6560 C.2       1 UNK         0.5000 
     66 O           1.5055  -12.5143  -45.6866 O.2       1 UNK        -0.5000 
     67 C          -0.0887  -22.2386  -47.4688 C.2       11 UNK         0.5000 
     68 O           0.0183  -23.2303  -48.1891 O.2       11 UNK        -0.5000 
     69 N          -1.2487  -21.6069  -47.2371 N.am      12 UNK        -0.5000 
     70 CA         -2.5326  -22.0022  -47.8132 C.3       12 UNK         0.1400 
     71 CB         -3.6062  -20.9684  -47.4469 C.3       12 UNK        -0.1800 
     72 C          -2.9628  -23.4209  -47.4018 C.2       12 UNK         0.5000 
     73 O          -3.4416  -24.1700  -48.2511 O.2       12 UNK        -0.5000 
     74 N          -2.7481  -23.7851  -46.1302 N.am      13 UNK        -0.5000 
     75 CA         -2.9917  -25.1280  -45.6034 C.3       13 UNK         0.1400 
     76 CB         -2.8160  -25.1307  -44.0774 C.3       13 UNK        -0.1800 
     77 C          -2.0974  -26.1925  -46.2647 C.2       13 UNK         0.5000 
     78 O          -2.6100  -27.2226  -46.7039 O.2       13 UNK        -0.5000 
     79 N          -0.7904  -25.9094  -46.3665 N.am      14 UNK        -0.5000 
     80 CA          0.2009  -26.7721  -47.0162 C.3       14 UNK         0.1400 
     81 CB          1.6094  -26.2139  -46.7625 C.3       14 UNK        -0.1800 
     82 C          -0.0487  -26.9506  -48.5260 C.2       14 UNK         0.5000 
     83 O           0.1426  -28.0480  -49.0509 O.2       14 UNK        -0.5000 
     84 N          -0.5025  -25.8785  -49.1864 N.am      15 UNK        -0.5000 
     85 CA         -0.8702  -25.8476  -50.6018 C.3       15 UNK         0.1400 
     86 CB         -0.7726  -24.3968  -51.0978 C.3       15 UNK        -0.1800 
     87 C          -2.2689  -26.4296  -50.8977 C.2       15 UNK         0.5000 
     88 O          -2.6622  -26.4562  -52.0646 O.2       15 UNK        -0.5000 
     89 N          -3.0066  -26.8573  -49.8602 N.am      16 UNK        -0.5000 
     90 CA         -4.3695  -27.4013  -49.9047 C.3       16 UNK         0.1400 
     91 CB         -4.3830  -28.7813  -50.5941 C.3       16 UNK        -0.1800 
     92 C          -5.3755  -26.4032  -50.5171 C.2       16 UNK         0.5000 
     93 O          -6.1246  -26.7478  -51.4319 O.2       16 UNK        -0.5000 
     94 N          -5.3201  -25.1632  -50.0136 N.am      17 UNK        -0.5000 
     95 CA         -6.0472  -23.9543  -50.4152 C.3       17 UNK         0.1400 
     96 CB         -7.5704  -24.1819  -50.4894 C.3       17 UNK        -0.1800 
     97 C          -5.5009  -23.2808  -51.6887 C.2       17 UNK         0.5000 
     98 O          -5.9320  -22.1693  -51.9931 O.2       17 UNK        -0.5000 
     99 N          -4.5639  -23.9310  -52.3962 N.am      18 UNK        -0.5000 
    100 CA        -3.8213  -23.5003  -53.5915 C.3       18 UNK         0.1400 
    101 CB        -2.9739  -22.2512  -53.2896 C.3       18 UNK        -0.1800 
    102 C         -4.6596  -23.2810  -54.8693 C.2       18 UNK         0.5000 
    103 O         -4.1784  -23.6029  -55.9568 O.2       18 UNK        -0.5000 
    104 N         -5.8766  -22.7416  -54.7214 N.am      19 UNK        -0.5000 
    105 CA        -6.7979  -22.2897  -55.7674 C.3       19 UNK         0.1400 
    106 CB        -7.2669  -23.4734  -56.6424 C.3       19 UNK        -0.1800 
    107 C         -6.2226  -21.1061  -56.5778 C.2       19 UNK         0.5000 
    108 O         -5.3381  -20.3992  -56.0864 O.2       19 UNK        -0.5000 
    109 N         -6.7641  -20.8769  -57.7839 N.am      20 UNK        -0.5000 
    110 CA        -6.4373  -19.7769  -58.6988 C.3       20 UNK         0.1400 
    111 CB        -5.0297  -19.9776  -59.3054 C.3       20 UNK        -0.1800 
    112 C         -6.6457  -18.4089  -58.0154 C.2       20 UNK         0.5000 
    113 O         -7.7833  -18.0809  -57.6722 O.2       20 UNK        -0.5000 
    114 N         -5.5574  -17.6648  -57.7751 N.am      21 UNK        -0.5000 
    115 CA        -5.5419  -16.3897  -57.0518 C.3       21 UNK         0.1400 
    116 CB        -4.1225  -15.8042  -57.1058 C.3       21 UNK        -0.1800 
    117 C         -6.0290  -16.4884  -55.5902 C.2       21 UNK         0.5000 
    118 O         -6.5350  -15.4991  -55.0585 O.2       21 UNK        -0.5000 
    119 N         -5.8940  -17.6727  -54.9799 N.am      22 UNK        -0.5000 
    120 CA        -6.4351  -17.9992  -53.6514 C.3       22 UNK         0.1400 
    121 C         -7.9332  -18.4301  -53.6771 C.2       22 UNK         0.5000 
    122 N         -8.5915  -18.5384  -54.8267 N.am      22 UNK        -0.7600 
    123 O         -8.5224  -18.6576  -52.6243 O.2       22 UNK        -0.5000 
    124 C124       -5.5653  -19.0569  -52.9258 C.3       23 UNK        -0.0398 
    125 S125       -3.8490  -18.4990  -52.6482 S.3       23 UNK        -0.2404 
    126 C126       -3.5709  -19.0740  -50.9442 C.3       23 UNK        -0.0205 
    127 H127        5.7778  -15.4523  -48.4412 H         1 UNK         0.0600 
    128 H128        6.6409  -13.9215  -48.6166 H         1 UNK         0.0600 
    129 H129        5.9212  -14.6982  -50.0312 H         1 UNK         0.0600 
    130 H130        3.7903  -15.1779  -47.5496 H         1 UNK         0.3000 
    131 H131        1.7854  -14.5728  -47.0171 H         1 UNK         0.0600 
    132 H132        0.3194  -13.1751  -48.4766 H         1 UNK         0.0800 
    133 H133        1.6935  -12.6898  -49.4273 H         1 UNK         0.0800 
    134 H134        0.0850  -15.9666  -47.9497 H         1 UNK         0.0800 
    135 H135       -1.1196  -15.1962  -48.9568 H         1 UNK         0.0800 
    136 H136       -2.6201  -16.7400  -49.9306 H         1 UNK         0.1150 
    137 H137       -1.3968  -20.7210  -50.9233 H         1 UNK         0.1150 
    138 H138        1.4482  -17.9349  -49.3282 H         1 UNK         0.1150 
    139 H139        0.7308  -21.5361  -50.1767 H         1 UNK         0.0800 
    140 H140        1.6806  -20.4878  -51.1881 H         1 UNK         0.0800 
    141 H141        0.7991  -19.6464  -47.4400 H         1 UNK         0.0800 
    142 H142        2.3304  -19.8805  -46.6735 H         1 UNK         0.0800 
    143 H143        1.9564  -22.4265  -46.8612 H         1 UNK         0.0600 
    144 H144        0.9976  -20.6416  -44.9071 H         1 UNK         0.3000 
    145 H145       -0.3611  -23.0302  -42.6116 H         1 UNK         0.0600 
    146 H146        1.2191  -21.8286  -41.1391 H         1 UNK         0.0600 
    147 H147        2.1032  -22.9016  -42.2134 H         1 UNK         0.0600 
    148 H148        2.0738  -21.1717  -42.5329 H         1 UNK         0.0600 
    149 H149       -0.2350  -20.2048  -42.4696 H         1 UNK         0.3000 
    150 H150       -3.3666  -19.5342  -44.1301 H         1 UNK         0.0600 
    151 H151       -3.7065  -18.3615  -41.9793 H         1 UNK         0.0600 
    152 H152       -3.8313  -20.0979  -41.7413 H         1 UNK         0.0600 
    153 H153       -2.3724  -19.2487  -41.2460 H         1 UNK         0.0600 
    154 H154       -1.4837  -17.7344  -43.0371 H         1 UNK         0.3000 
    155 H155        0.5088  -17.2811  -45.9998 H         1 UNK         0.0600 
    156 H156       -1.4064  -15.5178  -44.3762 H         1 UNK         0.0600 
    157 H157       -1.4969  -15.7853  -46.1079 H         1 UNK         0.0600 
    158 H158       -0.1131  -14.9428  -45.4207 H         1 UNK         0.0600 
    159 H159        0.8244  -16.1751  -43.4157 H         1 UNK         0.3000 
    160 H160        2.8664  -18.7675  -42.0048 H         1 UNK         0.0600 
    161 H161        3.4108  -15.8723  -42.8579 H         1 UNK         0.0600 
    162 H162        4.3702  -17.2755  -43.2973 H         1 UNK         0.0600 
    163 H163        4.2875  -16.7680  -41.6188 H         1 UNK         0.0600 
    164 H164        1.7570  -16.2951  -41.0150 H         1 UNK         0.3000 
    165 H165       -1.1760  -17.7268  -39.5754 H         1 UNK         0.0600 
    166 H166       -0.1925  -16.7611  -37.5138 H         1 UNK         0.0600 
    167 H167        0.6380  -18.2495  -37.9372 H         1 UNK         0.0600 
    168 H168        1.4016  -16.6987  -38.2666 H         1 UNK         0.0600 
    169 H169       -0.0431  -15.1020  -39.4882 H         1 UNK         0.3000 
    170 H170       -1.4301  -13.8524  -42.5084 H         1 UNK         0.0600 
    171 H171       -3.3341  -13.7168  -40.8974 H         1 UNK         0.0600 
    172 H172       -2.2241  -13.3019  -39.5967 H         1 UNK         0.0600 
    173 H173       -2.4460  -12.2030  -40.9587 H         1 UNK         0.0600 
    174 H174        0.0326  -12.6276  -40.3789 H         1 UNK         0.3000 
    175 H175        2.1956  -11.9087  -40.8381 H         1 UNK         0.0600 
    176 H176        3.3439  -14.7358  -40.3746 H         1 UNK         0.0600 
    177 H177        3.8166  -13.2730  -39.5184 H         1 UNK         0.0600 
    178 H178        2.2202  -13.9425  -39.2778 H         1 UNK         0.0600 
    179 H179        3.1289  -13.1821  -43.1488 H         1 UNK         0.3000 
    180 H180        6.2599  -11.4187  -43.3330 H         1 UNK         0.0600 
    181 H181        5.3779  -14.2956  -43.9317 H         1 UNK         0.0600 
    182 H182        6.7100  -13.8424  -42.8761 H         1 UNK         0.0600 
    183 H183        6.7943  -13.4785  -44.5921 H         1 UNK         0.0600 
    184 H184        4.6373  -12.4274  -45.4053 H         1 UNK         0.3000 
    185 H185        2.3559   -9.9367  -45.9164 H         1 UNK         0.0600 
    186 H186        4.2309   -8.3930  -46.5012 H         1 UNK         0.0600 
    187 H187        5.0788   -9.7066  -47.3098 H         1 UNK         0.0600 
    188 H188        3.5419   -9.1191  -47.9440 H         1 UNK         0.0600 
    189 H189        3.7161  -11.6959  -47.7647 H         1 UNK         0.3000 
    190 H190       -1.2528  -20.7793  -46.6457 H         1 UNK         0.3000 
    191 H191       -2.4189  -21.9979  -48.8990 H         1 UNK         0.0600 
    192 H192       -3.3330  -19.9755  -47.8053 H         1 UNK         0.0600 
    193 H193       -4.5661  -21.2250  -47.8967 H         1 UNK         0.0600 
    194 H194       -3.7519  -20.9050  -46.3682 H         1 UNK         0.0600 
    195 H195       -2.4037  -23.0912  -45.4715 H         1 UNK         0.3000 
    196 H196       -4.0299  -25.3858  -45.8225 H         1 UNK         0.0600 
    197 H197       -3.0059  -26.1217  -43.6637 H         1 UNK         0.0600 
    198 H198       -3.5120  -24.4403  -43.6006 H         1 UNK         0.0600 
    199 H199       -1.8066  -24.8403  -43.7860 H         1 UNK         0.0600 
    200 H200       -0.4409  -25.0438  -45.9637 H         1 UNK         0.3000 
    201 H201        0.1379  -27.7586  -46.5524 H         1 UNK         0.0600 
    202 H202        1.8279  -26.1673  -45.6956 H         1 UNK         0.0600 
    203 H203        1.7228  -25.2087  -47.1704 H         1 UNK         0.0600 
    204 H204        2.3701  -26.8448  -47.2237 H         1 UNK         0.0600 
    205 H205       -0.5614  -24.9935  -48.6887 H         1 UNK         0.3000 
    206 H206       -0.1484  -26.4447  -51.1624 H         1 UNK         0.0600 
    207 H207        0.2221  -23.9863  -50.9238 H         1 UNK         0.0600 
    208 H208       -0.9625  -24.3353  -52.1696 H         1 UNK         0.0600 
    209 H209       -1.4938  -23.7540  -50.5916 H         1 UNK         0.0600 
    210 H210       -2.6097  -26.7643  -48.9335 H         1 UNK         0.3000 
    211 H211       -4.6751  -27.5482  -48.8677 H         1 UNK         0.0600 
    212 H212       -4.1187  -28.7124  -51.6497 H         1 UNK         0.0600 
    213 H213       -5.3720  -29.2370  -50.5341 H         1 UNK         0.0600 
    214 H214       -3.6813  -29.4655  -50.1170 H         1 UNK         0.0600 
    215 H215       -4.6089  -24.9827  -49.3039 H         1 UNK         0.3000 
    216 H216       -5.8700  -23.2399  -49.6098 H         1 UNK         0.0600 
    217 H217       -8.0979  -23.2335  -50.5985 H         1 UNK         0.0600 
    218 H218       -7.9446  -24.6583  -49.5834 H         1 UNK         0.0600 
    219 H219       -7.8507  -24.8033  -51.3400 H         1 UNK         0.0600 
    220 H220       -4.3164  -24.8582  -52.0744 H         1 UNK         0.3000 
    221 H221       -3.1316  -24.3168  -53.8104 H         1 UNK         0.0600 
    222 H222       -3.5987  -21.3741  -53.1351 H         1 UNK         0.0600 
    223 H223       -2.3640  -22.3834  -52.3986 H         1 UNK         0.0600 
    224 H224       -2.3015  -22.0263  -54.1181 H         1 UNK         0.0600 
    225 H225       -6.1224  -22.4684  -53.7726 H         1 UNK         0.3000 
    226 H226       -7.6703  -21.8986  -55.2421 H         1 UNK         0.0600 
    227 H227       -7.5781  -24.3170  -56.0260 H         1 UNK         0.0600 
    228 H228       -8.1241  -23.1985  -57.2574 H         1 UNK         0.0600 
    229 H229       -6.4796  -23.8229  -57.3112 H         1 UNK         0.0600 
    230 H230       -7.5101  -21.4849  -58.0904 H         1 UNK         0.3000 
    231 H231       -7.1584  -19.8225  -59.5161 H         1 UNK         0.0600 
    232 H232       -4.2459  -19.9848  -58.5472 H         1 UNK         0.0600 
    233 H233       -4.7943  -19.1907  -60.0232 H         1 UNK         0.0600 
    234 H234       -4.9724  -20.9250  -59.8414 H         1 UNK         0.0600 
    235 H235       -4.6599  -18.0319  -58.0561 H         1 UNK         0.3000 
    236 H236       -6.2147  -15.7060  -57.5734 H         1 UNK         0.0600 
    237 H237       -3.7975  -15.6484  -58.1346 H         1 UNK         0.0600 
    238 H238       -4.0792  -14.8372  -56.6026 H         1 UNK         0.0600 
    239 H239       -3.3995  -16.4600  -56.6189 H         1 UNK         0.0600 
    240 H240       -5.4893  -18.4511  -55.4901 H         1 UNK         0.3000 
    241 H241       -6.4070  -17.0942  -53.0417 H         1 UNK         0.0600 
    242 H242       -8.1539  -18.3197  -55.7148 H         1 UNK         0.3800 
    243 H243       -9.5632  -18.8042  -54.8088 H         1 UNK         0.3800 
    244 H244       -6.0076  -19.3148  -51.9619 H         1 UNK         0.0800 
    245 H245       -5.5385  -19.9828  -53.4992 H         1 UNK         0.0800 
    246 H246       -4.2895  -18.5974  -50.2757 H         1 UNK         0.0800 
    247 H247       -3.7599  -20.1475  -50.8874 H         1 UNK         0.0800 
@<TRIPOS>BOND
     1    1    2 1    
     2    1  127 1    
     3    1  128 1    
     4    1  129 1    
     5    2    3 2    
     6    2    4 am   BACKBONE|DICT|INTERRES
     7    4    5 1    
     8    4  130 1    
     9    5    6 1    
    10    5   65 1    
    11    5  131 1    
    12    6    7 1    
    13    6  132 1    
    14    6  133 1    
    15    7    8 1    
    16    8    9 1    
    17    8  134 1    
    18    8  135 1    
    19    9   10 ar   
    20    9   14 ar   
    21   10   11 ar   
    22   10  136 1    
    23   11   12 ar   
    24   11  126 1    
    25   12   13 ar   
    26   12  137 1    
    27   13   14 ar   
    28   13   15 1    
    29   14  138 1    
    30   15   16 1    
    31   15  139 1    
    32   15  140 1    
    33   16   17 1    
    34   17   18 1    
    35   17  141 1    
    36   17  142 1    
    37   18   19 1    
    38   18   67 1    
    39   18  143 1    
    40   19   20 am   BACKBONE|DICT|INTERRES
    41   19  144 1    
    42   20   21 2    
    43   20   22 1    
    44   22   23 1    
    45   22   24 1    
    46   22  145 1    
    47   23  146 1    
    48   23  147 1    
    49   23  148 1    
    50   24   25 am   BACKBONE|DICT|INTERRES
    51   24  149 1    
    52   25   26 2    
    53   25   27 1    
    54   27   28 1    
    55   27   29 1    
    56   27  150 1    
    57   28  151 1    
    58   28  152 1    
    59   28  153 1    
    60   29   30 am   BACKBONE|DICT|INTERRES
    61   29  154 1    
    62   30   31 2    
    63   30   32 1    
    64   32   33 1    
    65   32   34 1    
    66   32  155 1    
    67   33  156 1    
    68   33  157 1    
    69   33  158 1    
    70   34   35 am   BACKBONE|DICT|INTERRES
    71   34  159 1    
    72   35   36 2    
    73   35   37 1    
    74   37   38 1    
    75   37   39 1    
    76   37  160 1    
    77   38  161 1    
    78   38  162 1    
    79   38  163 1    
    80   39   40 am   BACKBONE|DICT|INTERRES
    81   39  164 1    
    82   40   41 2    
    83   40   42 1    
    84   42   43 1    
    85   42   44 1    
    86   42  165 1    
    87   43  166 1    
    88   43  167 1    
    89   43  168 1    
    90   44   45 am   BACKBONE|DICT|INTERRES
    91   44  169 1    
    92   45   46 2    
    93   45   47 1    
    94   47   48 1    
    95   47   49 1    
    96   47  170 1    
    97   48  171 1    
    98   48  172 1    
    99   48  173 1    
   100   49   50 am   BACKBONE|DICT|INTERRES
   101   49  174 1    
   102   50   51 2    
   103   50   52 1    
   104   52   53 1    
   105   52   54 1    
   106   52  175 1    
   107   53  176 1    
   108   53  177 1    
   109   53  178 1    
   110   54   55 am   BACKBONE|DICT|INTERRES
   111   54  179 1    
   112   55   56 2    
   113   55   57 1    
   114   57   58 1    
   115   57   59 1    
   116   57  180 1    
   117   58  181 1    
   118   58  182 1    
   119   58  183 1    
   120   59   60 am   BACKBONE|DICT|INTERRES
   121   59  184 1    
   122   60   61 2    
   123   60   62 1    
   124   62   63 1    
   125   62   64 1    
   126   62  185 1    
   127   63  186 1    
   128   63  187 1    
   129   63  188 1    
   130   64   65 am   BACKBONE|DICT|INTERRES
   131   64  189 1    
   132   65   66 2    
   133   67   68 2    
   134   67   69 am   BACKBONE|DICT|INTERRES
   135   69   70 1    
   136   69  190 1    
   137   70   71 1    
   138   70   72 1    
   139   70  191 1    
   140   71  192 1    
   141   71  193 1    
   142   71  194 1    
   143   72   73 2    
   144   72   74 am   BACKBONE|DICT|INTERRES
   145   74   75 1    
   146   74  195 1    
   147   75   76 1    
   148   75   77 1    
   149   75  196 1    
   150   76  197 1    
   151   76  198 1    
   152   76  199 1    
   153   77   78 2    
   154   77   79 am   BACKBONE|DICT|INTERRES
   155   79   80 1    
   156   79  200 1    
   157   80   81 1    
   158   80   82 1    
   159   80  201 1    
   160   81  202 1    
   161   81  203 1    
   162   81  204 1    
   163   82   83 2    
   164   82   84 am   BACKBONE|DICT|INTERRES
   165   84   85 1    
   166   84  205 1    
   167   85   86 1    
   168   85   87 1    
   169   85  206 1    
   170   86  207 1    
   171   86  208 1    
   172   86  209 1    
   173   87   88 2    
   174   87   89 am   BACKBONE|DICT|INTERRES
   175   89   90 1    
   176   89  210 1    
   177   90   91 1    
   178   90   92 1    
   179   90  211 1    
   180   91  212 1    
   181   91  213 1    
   182   91  214 1    
   183   92   93 2    
   184   92   94 am   BACKBONE|DICT|INTERRES
   185   94   95 1    
   186   94  215 1    
   187   95   96 1    
   188   95   97 1    
   189   95  216 1    
   190   96  217 1    
   191   96  218 1    
   192   96  219 1    
   193   97   98 2    
   194   97   99 am   BACKBONE|DICT|INTERRES
   195   99  100 1    
   196   99  220 1    
   197  100  101 1    
   198  100  102 1    
   199  100  221 1    
   200  101  222 1    
   201  101  223 1    
   202  101  224 1    
   203  102  103 2    
   204  102  104 am   BACKBONE|DICT|INTERRES
   205  104  105 1    
   206  104  225 1    
   207  105  106 1    
   208  105  107 1    
   209  105  226 1    
   210  106  227 1    
   211  106  228 1    
   212  106  229 1    
   213  107  108 2    
   214  107  109 am   BACKBONE|DICT|INTERRES
   215  109  110 1    
   216  109  230 1    
   217  110  111 1    
   218  110  112 1    
   219  110  231 1    
   220  111  232 1    
   221  111  233 1    
   222  111  234 1    
   223  112  113 2    
   224  112  114 am   BACKBONE|DICT|INTERRES
   225  114  115 1    
   226  114  235 1    
   227  115  116 1    
   228  115  117 1    
   229  115  236 1    
   230  116  237 1    
   231  116  238 1    
   232  116  239 1    
   233  117  118 2    
   234  117  119 am   BACKBONE|DICT|INTERRES
   235  119  120 1    
   236  119  240 1    
   237  120  121 1    
   238  120  124 1    
   239  120  241 1    
   240  121  122 am   BACKBONE|DICT|INTERRES
   241  121  123 2    
   242  122  242 1    
   243  122  243 1    
   244  124  125 1    
   245  124  244 1    
   246  124  245 1    
   247  125  126 1    
   248  126  246 1    
   249  126  247 1    
@<TRIPOS>SUBSTRUCTURE
     1 UNK         1 GROUP             0       ****    0 ROOT    
