@<TRIPOS>MOLECULE
3R540
247   249    1
SMALL
USER_CHARGES


@<TRIPOS>ATOM
      1 CA          2.9378  -12.4743  -52.3206 C.3       0 UNK        -0.1800 
      2 C           2.7208  -12.5271  -50.8153 C.2       0 UNK         0.5000 
      3 O           2.4360  -11.5012  -50.1976 O.2       0 UNK        -0.5000 
      4 N           2.8405  -13.7227  -50.2240 N.am      1 UNK        -0.5000 
      5 CA          2.6853  -13.9685  -48.7832 C.3       1 UNK         0.1400 
      6 C6          3.3200  -15.3103  -48.3348 C.3       23 UNK        -0.0398 
      7 S7          5.0952  -15.4909  -48.7524 S.3       23 UNK        -0.2404 
      8 C8          5.1102  -16.3252  -50.3798 C.3       23 UNK        -0.0205 
      9 C9          4.3281  -17.6303  -50.3843 C.ar      23 UNK        -0.0193 
     10 C10         2.9934  -17.6340  -50.7933 C.ar      23 UNK        -0.1150 
     11 C11         2.2213  -18.7981  -50.7173 C.ar      23 UNK        -0.0193 
     12 C12         2.8305  -19.9854  -50.3016 C.ar      23 UNK        -0.1150 
     13 C13         4.1809  -20.0097  -49.9386 C.ar      23 UNK        -0.0193 
     14 C14         4.9236  -18.8252  -49.9724 C.ar      23 UNK        -0.1150 
     15 C15         4.8352  -21.3171  -49.5138 C.3       23 UNK        -0.0205 
     16 S16         5.2471  -21.3516  -47.7403 S.3       23 UNK        -0.2404 
     17 C17         3.6000  -21.2639  -46.9620 C.3       23 UNK        -0.0398 
     18 CA          3.1212  -22.6150  -46.3761 C.3       11 UNK         0.1400 
     19 N           2.1818  -22.3996  -45.2733 N.am      11 UNK        -0.5000 
     20 C           1.8403  -23.3069  -44.3492 C.2       10 UNK         0.5000 
     21 O           2.3487  -24.4251  -44.2664 O.2       10 UNK        -0.5000 
     22 CA          0.7400  -22.8948  -43.3492 C.3       10 UNK         0.1400 
     23 CB          1.3496  -22.2279  -42.1068 C.3       10 UNK        -0.1800 
     24 N          -0.2613  -22.0041  -43.9433 N.am      10 UNK        -0.5000 
     25 C          -1.1415  -22.3926  -44.8767 C.2       9 UNK         0.5000 
     26 O          -1.2450  -23.5534  -45.2664 O.2       9 UNK        -0.5000 
     27 CA         -2.0288  -21.3076  -45.5149 C.3       9 UNK         0.1400 
     28 CB         -3.2918  -21.0655  -44.6750 C.3       9 UNK        -0.1800 
     29 N          -1.3278  -20.0399  -45.7261 N.am      9 UNK        -0.5000 
     30 C          -0.2941  -19.8719  -46.5630 C.2       8 UNK         0.5000 
     31 O           0.1399  -20.7617  -47.2917 O.2       8 UNK        -0.5000 
     32 CA          0.4159  -18.5051  -46.5396 C.3       8 UNK         0.1400 
     33 CB         -0.3448  -17.4698  -47.3729 C.3       8 UNK        -0.1800 
     34 N           0.6096  -17.9903  -45.1847 N.am      8 UNK        -0.5000 
     35 C           1.3452  -18.5930  -44.2415 C.2       7 UNK         0.5000 
     36 O           1.9922  -19.6203  -44.4341 O.2       7 UNK        -0.5000 
     37 CA          1.3005  -17.9808  -42.8333 C.3       7 UNK         0.1400 
     38 CB          2.2705  -16.7955  -42.7146 C.3       7 UNK        -0.1800 
     39 N          -0.0548  -17.5584  -42.4807 N.am      7 UNK        -0.5000 
     40 C          -1.0504  -18.4041  -42.1796 C.2       6 UNK         0.5000 
     41 O          -0.9136  -19.6265  -42.1304 O.2       6 UNK        -0.5000 
     42 CA         -2.4376  -17.7846  -41.9229 C.3       6 UNK         0.1400 
     43 CB         -2.5606  -17.3201  -40.4641 C.3       6 UNK        -0.1800 
     44 N          -2.7371  -16.6633  -42.8155 N.am      6 UNK        -0.5000 
     45 C          -2.9193  -16.7814  -44.1379 C.2       5 UNK         0.5000 
     46 O          -2.8816  -17.8542  -44.7370 O.2       5 UNK        -0.5000 
     47 CA         -3.1288  -15.4807  -44.9357 C.3       5 UNK         0.1400 
     48 CB         -4.6153  -15.0977  -44.9602 C.3       5 UNK        -0.1800 
     49 N          -2.3394  -14.3374  -44.4658 N.am      5 UNK        -0.5000 
     50 C          -1.0092  -14.3220  -44.3034 C.2       4 UNK         0.5000 
     51 O          -0.2949  -15.3177  -44.4274 O.2       4 UNK        -0.5000 
     52 CA         -0.3850  -12.9493  -44.0113 C.3       4 UNK         0.1400 
     53 CB          1.0819  -13.0497  -43.5563 C.3       4 UNK        -0.1800 
     54 N          -0.4440  -12.1888  -45.2519 N.am      4 UNK        -0.5000 
     55 C          -1.2667  -11.1641  -45.5073 C.2       3 UNK         0.5000 
     56 O          -1.9865  -10.6367  -44.6587 O.2       3 UNK        -0.5000 
     57 CA         -1.3268  -10.6689  -46.9686 C.3       3 UNK         0.1400 
     58 CB         -0.3488   -9.5042  -47.1832 C.3       3 UNK        -0.1800 
     59 N          -1.0357  -11.7212  -47.9460 N.am      3 UNK        -0.5000 
     60 C          -1.7726  -12.8269  -48.1288 C.2       2 UNK         0.5000 
     61 O          -2.8584  -13.0183  -47.5813 O.2       2 UNK        -0.5000 
     62 CA         -1.1995  -13.9160  -49.0588 C.3       2 UNK         0.1400 
     63 CB         -1.8943  -13.8468  -50.4277 C.3       2 UNK        -0.1800 
     64 N           0.2553  -13.8802  -49.2640 N.am      2 UNK        -0.5000 
     65 C           1.2110  -13.9045  -48.3197 C.2       1 UNK         0.5000 
     66 O           0.9712  -13.8767  -47.1143 O.2       1 UNK        -0.5000 
     67 C           2.5306  -23.5398  -47.4669 C.2       11 UNK         0.5000 
     68 O           3.2716  -24.3165  -48.0721 O.2       11 UNK        -0.5000 
     69 N           1.2116  -23.4483  -47.6920 N.am      12 UNK        -0.5000 
     70 CA          0.4351  -24.2956  -48.5989 C.3       12 UNK         0.1400 
     71 CB         -0.9708  -23.6889  -48.7650 C.3       12 UNK        -0.1800 
     72 C           0.3514  -25.7662  -48.1320 C.2       12 UNK         0.5000 
     73 O           0.7267  -26.0961  -47.0050 O.2       12 UNK        -0.5000 
     74 N          -0.1561  -26.6318  -49.0209 N.am      13 UNK        -0.5000 
     75 CA         -0.2437  -28.0859  -48.8361 C.3       13 UNK         0.1400 
     76 CB         -0.6782  -28.7258  -50.1640 C.3       13 UNK        -0.1800 
     77 C          -1.1714  -28.5476  -47.6920 C.2       13 UNK         0.5000 
     78 O          -0.9945  -29.6574  -47.1871 O.2       13 UNK        -0.5000 
     79 N          -2.1315  -27.7017  -47.3029 N.am      14 UNK        -0.5000 
     80 CA         -3.0357  -27.9202  -46.1761 C.3       14 UNK         0.1400 
     81 CB         -4.1966  -28.8523  -46.5732 C.3       14 UNK        -0.1800 
     82 C          -3.5376  -26.5652  -45.6662 C.2       14 UNK         0.5000 
     83 O          -3.3261  -26.2355  -44.4994 O.2       14 UNK        -0.5000 
     84 N          -4.1578  -25.7994  -46.5720 N.am      15 UNK        -0.5000 
     85 CA         -4.5948  -24.4203  -46.3821 C.3       15 UNK         0.1400 
     86 CB         -5.7128  -24.2959  -45.3259 C.3       15 UNK        -0.1800 
     87 C          -5.0416  -23.8821  -47.7421 C.2       15 UNK         0.5000 
     88 O          -4.4107  -22.9698  -48.2756 O.2       15 UNK        -0.5000 
     89 N          -6.1058  -24.4923  -48.2878 N.am      16 UNK        -0.5000 
     90 CA         -6.6801  -24.2566  -49.6191 C.3       16 UNK         0.1400 
     91 CB         -5.7497  -24.8503  -50.6977 C.3       16 UNK        -0.1800 
     92 C          -7.0405  -22.7791  -49.8886 C.2       16 UNK         0.5000 
     93 O          -6.7984  -22.2810  -50.9874 O.2       16 UNK        -0.5000 
     94 N          -7.5703  -22.0924  -48.8636 N.am      17 UNK        -0.5000 
     95 CA         -7.8684  -20.6526  -48.8370 C.3       17 UNK         0.1400 
     96 CB         -9.0325  -20.3142  -49.7925 C.3       17 UNK        -0.1800 
     97 C          -6.6090  -19.7950  -49.0918 C.2       17 UNK         0.5000 
     98 O          -6.6293  -18.8854  -49.9239 O.2       17 UNK        -0.5000 
     99 N          -5.5177  -20.1529  -48.3971 N.am      18 UNK        -0.5000 
    100 CA        -4.1605  -19.6171  -48.5453 C.3       18 UNK         0.1400 
    101 CB        -4.1020  -18.1395  -48.1021 C.3       18 UNK        -0.1800 
    102 C         -3.6119  -19.8503  -49.9669 C.2       18 UNK         0.5000 
    103 O         -3.1012  -18.9202  -50.5867 O.2       18 UNK        -0.5000 
    104 N         -3.7892  -21.0790  -50.4770 N.am      19 UNK        -0.5000 
    105 CA        -3.5120  -21.5090  -51.8553 C.3       19 UNK         0.1400 
    106 CB        -1.9912  -21.5956  -52.0959 C.3       19 UNK        -0.1800 
    107 C         -4.2454  -20.6448  -52.9085 C.2       19 UNK         0.5000 
    108 O         -3.6375  -20.2001  -53.8846 O.2       19 UNK        -0.5000 
    109 N         -5.5390  -20.3969  -52.6566 N.am      20 UNK        -0.5000 
    110 CA        -6.4466  -19.5103  -53.3920 C.3       20 UNK         0.1400 
    111 CB        -6.7871  -20.1138  -54.7701 C.3       20 UNK        -0.1800 
    112 C         -5.9141  -18.0632  -53.4745 C.2       20 UNK         0.5000 
    113 O         -5.8765  -17.4783  -54.5588 O.2       20 UNK        -0.5000 
    114 N         -5.4798  -17.5356  -52.3193 N.am      21 UNK        -0.5000 
    115 CA        -4.7542  -16.2711  -52.1388 C.3       21 UNK         0.1400 
    116 CB        -5.6736  -15.0634  -52.4123 C.3       21 UNK        -0.1800 
    117 C         -3.4347  -16.2332  -52.9435 C.2       21 UNK         0.5000 
    118 O         -3.1336  -15.2426  -53.6124 O.2       21 UNK        -0.5000 
    119 N         -2.6849  -17.3359  -52.8500 N.am      22 UNK        -0.5000 
    120 CA        -1.4069  -17.6247  -53.5138 C.3       22 UNK         0.1400 
    121 C         -1.4770  -17.5387  -55.0637 C.2       22 UNK         0.5000 
    122 N         -2.4100  -18.2542  -55.6779 N.am      22 UNK        -0.7600 
    123 O         -0.6945  -16.8471  -55.7109 O.2       22 UNK        -0.5000 
    124 C124       -0.2082  -16.8666  -52.8834 C.3       23 UNK        -0.0398 
    125 S125       -0.0841  -17.1824  -51.0892 S.3       23 UNK        -0.2404 
    126 C126        0.7329  -18.8187  -51.0587 C.3       23 UNK        -0.0205 
    127 H127        2.0401  -12.1046  -52.8162 H         1 UNK         0.0600 
    128 H128        3.1733  -13.4563  -52.7318 H         1 UNK         0.0600 
    129 H129        3.7613  -11.8004  -52.5570 H         1 UNK         0.0600 
    130 H130        3.0811  -14.5274  -50.7815 H         1 UNK         0.3000 
    131 H131        3.2094  -13.1687  -48.2553 H         1 UNK         0.0600 
    132 H132        3.2587  -15.3899  -47.2476 H         1 UNK         0.0800 
    133 H133        2.7459  -16.1576  -48.7023 H         1 UNK         0.0800 
    134 H134        4.7267  -15.6479  -51.1433 H         1 UNK         0.0800 
    135 H135        6.1465  -16.5240  -50.6568 H         1 UNK         0.0800 
    136 H136        2.5520  -16.7082  -51.1280 H         1 UNK         0.1150 
    137 H137        2.2468  -20.8945  -50.2530 H         1 UNK         0.1150 
    138 H138        5.9606  -18.8328  -49.6672 H         1 UNK         0.1150 
    139 H139        4.1954  -22.1682  -49.7517 H         1 UNK         0.0800 
    140 H140        5.7516  -21.4576  -50.0887 H         1 UNK         0.0800 
    141 H141        2.8609  -20.8399  -47.6417 H         1 UNK         0.0800 
    142 H142        3.7043  -20.5322  -46.1607 H         1 UNK         0.0800 
    143 H143        3.9877  -23.1275  -45.9525 H         1 UNK         0.0600 
    144 H144        1.7771  -21.4722  -45.2018 H         1 UNK         0.3000 
    145 H145        0.2316  -23.8056  -43.0257 H         1 UNK         0.0600 
    146 H146        0.5812  -21.9845  -41.3728 H         1 UNK         0.0600 
    147 H147        2.0657  -22.8916  -41.6207 H         1 UNK         0.0600 
    148 H148        1.8755  -21.3072  -42.3581 H         1 UNK         0.0600 
    149 H149       -0.2699  -21.0428  -43.6231 H         1 UNK         0.3000 
    150 H150       -2.3396  -21.6831  -46.4917 H         1 UNK         0.0600 
    151 H151       -3.8199  -21.9977  -44.4742 H         1 UNK         0.0600 
    152 H152       -3.9860  -20.4021  -45.1912 H         1 UNK         0.0600 
    153 H153       -3.0512  -20.6140  -43.7122 H         1 UNK         0.0600 
    154 H154       -1.6768  -19.2385  -45.2064 H         1 UNK         0.3000 
    155 H155        1.4004  -18.6428  -46.9921 H         1 UNK         0.0600 
    156 H156        0.2681  -16.5881  -47.5515 H         1 UNK         0.0600 
    157 H157       -1.2556  -17.1465  -46.8733 H         1 UNK         0.0600 
    158 H158       -0.6263  -17.8775  -48.3431 H         1 UNK         0.0600 
    159 H159        0.1435  -17.1182  -44.9479 H         1 UNK         0.3000 
    160 H160        1.6179  -18.7468  -42.1225 H         1 UNK         0.0600 
    161 H161        2.0435  -16.0083  -43.4334 H         1 UNK         0.0600 
    162 H162        2.2407  -16.3583  -41.7166 H         1 UNK         0.0600 
    163 H163        3.2964  -17.1164  -42.8990 H         1 UNK         0.0600 
    164 H164       -0.2670  -16.5778  -42.6052 H         1 UNK         0.3000 
    165 H165       -3.1842  -18.5627  -42.0957 H         1 UNK         0.0600 
    166 H166       -3.5653  -16.9550  -40.2500 H         1 UNK         0.0600 
    167 H167       -2.3610  -18.1420  -39.7752 H         1 UNK         0.0600 
    168 H168       -1.8557  -16.5202  -40.2342 H         1 UNK         0.0600 
    169 H169       -2.7749  -15.7429  -42.4031 H         1 UNK         0.3000 
    170 H170       -2.8206  -15.6766  -45.9640 H         1 UNK         0.0600 
    171 H171       -5.2255  -15.9233  -45.3292 H         1 UNK         0.0600 
    172 H172       -4.9806  -14.8355  -43.9666 H         1 UNK         0.0600 
    173 H173       -4.7909  -14.2472  -45.6196 H         1 UNK         0.0600 
    174 H174       -2.8378  -13.4636  -44.3757 H         1 UNK         0.3000 
    175 H175       -0.9619  -12.4690  -43.2186 H         1 UNK         0.0600 
    176 H176        1.7100  -13.5192  -44.3149 H         1 UNK         0.0600 
    177 H177        1.4952  -12.0632  -43.3467 H         1 UNK         0.0600 
    178 H178        1.1680  -13.6406  -42.6438 H         1 UNK         0.0600 
    179 H179        0.0631  -12.6118  -46.0260 H         1 UNK         0.3000 
    180 H180       -2.3403  -10.3077  -47.1544 H         1 UNK         0.0600 
    181 H181        0.6860   -9.8157  -47.0345 H         1 UNK         0.0600 
    182 H182       -0.5509   -8.6905  -46.4854 H         1 UNK         0.0600 
    183 H183       -0.4354   -9.0963  -48.1905 H         1 UNK         0.0600 
    184 H184       -0.1602  -11.6481  -48.4442 H         1 UNK         0.3000 
    185 H185       -1.4352  -14.8801  -48.6043 H         1 UNK         0.0600 
    186 H186       -2.9774  -13.9240  -50.3235 H         1 UNK         0.0600 
    187 H187       -1.6796  -12.9081  -50.9399 H         1 UNK         0.0600 
    188 H188       -1.5772  -14.6603  -51.0776 H         1 UNK         0.0600 
    189 H189        0.5617  -13.8956  -50.2251 H         1 UNK         0.3000 
    190 H190        0.6897  -22.7438  -47.1842 H         1 UNK         0.3000 
    191 H191        0.9345  -24.2800  -49.5697 H         1 UNK         0.0600 
    192 H192       -0.9198  -22.6356  -49.0412 H         1 UNK         0.0600 
    193 H193       -1.5351  -24.1976  -49.5470 H         1 UNK         0.0600 
    194 H194       -1.5542  -23.7619  -47.8479 H         1 UNK         0.0600 
    195 H195       -0.4492  -26.2846  -49.9227 H         1 UNK         0.3000 
    196 H196        0.7592  -28.4468  -48.5983 H         1 UNK         0.0600 
    197 H197       -0.7240  -29.8124  -50.0791 H         1 UNK         0.0600 
    198 H198        0.0258  -28.4949  -50.9638 H         1 UNK         0.0600 
    199 H199       -1.6653  -28.3793  -50.4729 H         1 UNK         0.0600 
    200 H200       -2.1582  -26.7865  -47.7283 H         1 UNK         0.3000 
    201 H201       -2.4788  -28.3871  -45.3605 H         1 UNK         0.0600 
    202 H202       -3.8338  -29.8499  -46.8207 H         1 UNK         0.0600 
    203 H203       -4.7450  -28.4754  -47.4369 H         1 UNK         0.0600 
    204 H204       -4.9069  -28.9617  -45.7527 H         1 UNK         0.0600 
    205 H205       -4.2969  -26.1650  -47.5040 H         1 UNK         0.3000 
    206 H206       -3.7378  -23.8300  -46.0596 H         1 UNK         0.0600 
    207 H207       -5.3371  -24.5024  -44.3241 H         1 UNK         0.0600 
    208 H208       -6.1230  -23.2854  -45.3069 H         1 UNK         0.0600 
    209 H209       -6.5362  -24.9843  -45.5181 H         1 UNK         0.0600 
    210 H210       -6.5629  -25.2131  -47.7466 H         1 UNK         0.3000 
    211 H211       -7.6218  -24.8058  -49.6566 H         1 UNK         0.0600 
    212 H212       -4.7780  -24.3568  -50.7088 H         1 UNK         0.0600 
    213 H213       -6.1825  -24.7511  -51.6939 H         1 UNK         0.0600 
    214 H214       -5.5797  -25.9131  -50.5263 H         1 UNK         0.0600 
    215 H215       -7.7303  -22.5907  -47.9995 H         1 UNK         0.3000 
    216 H216       -8.1970  -20.4196  -47.8232 H         1 UNK         0.0600 
    217 H217       -9.3260  -19.2685  -49.6934 H         1 UNK         0.0600 
    218 H218       -9.9114  -20.9196  -49.5715 H         1 UNK         0.0600 
    219 H219       -8.7663  -20.4794  -50.8367 H         1 UNK         0.0600 
    220 H220       -5.5902  -20.9663  -47.8027 H         1 UNK         0.3000 
    221 H221       -3.5191  -20.1883  -47.8752 H         1 UNK         0.0600 
    222 H222       -4.7256  -17.4980  -48.7246 H         1 UNK         0.0600 
    223 H223       -4.4289  -18.0260  -47.0687 H         1 UNK         0.0600 
    224 H224       -3.0863  -17.7539  -48.1659 H         1 UNK         0.0600 
    225 H225       -4.1996  -21.7801  -49.8675 H         1 UNK         0.3000 
    226 H226       -3.9193  -22.5150  -51.9568 H         1 UNK         0.0600 
    227 H227       -1.5203  -22.2809  -51.3926 H         1 UNK         0.0600 
    228 H228       -1.7711  -21.9618  -53.0993 H         1 UNK         0.0600 
    229 H229       -1.5104  -20.6247  -51.9873 H         1 UNK         0.0600 
    230 H230       -5.9562  -20.8740  -51.8602 H         1 UNK         0.3000 
    231 H231       -7.3693  -19.4662  -52.8118 H         1 UNK         0.0600 
    232 H232       -5.9121  -20.1621  -55.4191 H         1 UNK         0.0600 
    233 H233       -7.5423  -19.5164  -55.2820 H         1 UNK         0.0600 
    234 H234       -7.1857  -21.1232  -54.6690 H         1 UNK         0.0600 
    235 H235       -5.5962  -18.0950  -51.4792 H         1 UNK         0.3000 
    236 H236       -4.4678  -16.2343  -51.0865 H         1 UNK         0.0600 
    237 H237       -6.5801  -15.1145  -51.8093 H         1 UNK         0.0600 
    238 H238       -5.1707  -14.1281  -52.1637 H         1 UNK         0.0600 
    239 H239       -5.9694  -15.0067  -53.4601 H         1 UNK         0.0600 
    240 H240       -2.9912  -18.0544  -52.1979 H         1 UNK         0.3000 
    241 H241       -1.2318  -18.6827  -53.3235 H         1 UNK         0.0600 
    242 H242       -2.4914  -18.2249  -56.6812 H         1 UNK         0.3800 
    243 H243       -3.0174  -18.8614  -55.1324 H         1 UNK         0.3800 
    244 H244        0.7306  -17.1577  -53.3573 H         1 UNK         0.0800 
    245 H245       -0.3140  -15.7926  -53.0420 H         1 UNK         0.0800 
    246 H246        0.2104  -19.4260  -50.3172 H         1 UNK         0.0800 
    247 H247        0.6030  -19.3262  -52.0142 H         1 UNK         0.0800 
@<TRIPOS>BOND
     1    1    2 1    
     2    1  127 1    
     3    1  128 1    
     4    1  129 1    
     5    2    3 2    
     6    2    4 am   BACKBONE|DICT|INTERRES
     7    4    5 1    
     8    4  130 1    
     9    5    6 1    
    10    5   65 1    
    11    5  131 1    
    12    6    7 1    
    13    6  132 1    
    14    6  133 1    
    15    7    8 1    
    16    8    9 1    
    17    8  134 1    
    18    8  135 1    
    19    9   10 ar   
    20    9   14 ar   
    21   10   11 ar   
    22   10  136 1    
    23   11   12 ar   
    24   11  126 1    
    25   12   13 ar   
    26   12  137 1    
    27   13   14 ar   
    28   13   15 1    
    29   14  138 1    
    30   15   16 1    
    31   15  139 1    
    32   15  140 1    
    33   16   17 1    
    34   17   18 1    
    35   17  141 1    
    36   17  142 1    
    37   18   19 1    
    38   18   67 1    
    39   18  143 1    
    40   19   20 am   BACKBONE|DICT|INTERRES
    41   19  144 1    
    42   20   21 2    
    43   20   22 1    
    44   22   23 1    
    45   22   24 1    
    46   22  145 1    
    47   23  146 1    
    48   23  147 1    
    49   23  148 1    
    50   24   25 am   BACKBONE|DICT|INTERRES
    51   24  149 1    
    52   25   26 2    
    53   25   27 1    
    54   27   28 1    
    55   27   29 1    
    56   27  150 1    
    57   28  151 1    
    58   28  152 1    
    59   28  153 1    
    60   29   30 am   BACKBONE|DICT|INTERRES
    61   29  154 1    
    62   30   31 2    
    63   30   32 1    
    64   32   33 1    
    65   32   34 1    
    66   32  155 1    
    67   33  156 1    
    68   33  157 1    
    69   33  158 1    
    70   34   35 am   BACKBONE|DICT|INTERRES
    71   34  159 1    
    72   35   36 2    
    73   35   37 1    
    74   37   38 1    
    75   37   39 1    
    76   37  160 1    
    77   38  161 1    
    78   38  162 1    
    79   38  163 1    
    80   39   40 am   BACKBONE|DICT|INTERRES
    81   39  164 1    
    82   40   41 2    
    83   40   42 1    
    84   42   43 1    
    85   42   44 1    
    86   42  165 1    
    87   43  166 1    
    88   43  167 1    
    89   43  168 1    
    90   44   45 am   BACKBONE|DICT|INTERRES
    91   44  169 1    
    92   45   46 2    
    93   45   47 1    
    94   47   48 1    
    95   47   49 1    
    96   47  170 1    
    97   48  171 1    
    98   48  172 1    
    99   48  173 1    
   100   49   50 am   BACKBONE|DICT|INTERRES
   101   49  174 1    
   102   50   51 2    
   103   50   52 1    
   104   52   53 1    
   105   52   54 1    
   106   52  175 1    
   107   53  176 1    
   108   53  177 1    
   109   53  178 1    
   110   54   55 am   BACKBONE|DICT|INTERRES
   111   54  179 1    
   112   55   56 2    
   113   55   57 1    
   114   57   58 1    
   115   57   59 1    
   116   57  180 1    
   117   58  181 1    
   118   58  182 1    
   119   58  183 1    
   120   59   60 am   BACKBONE|DICT|INTERRES
   121   59  184 1    
   122   60   61 2    
   123   60   62 1    
   124   62   63 1    
   125   62   64 1    
   126   62  185 1    
   127   63  186 1    
   128   63  187 1    
   129   63  188 1    
   130   64   65 am   BACKBONE|DICT|INTERRES
   131   64  189 1    
   132   65   66 2    
   133   67   68 2    
   134   67   69 am   BACKBONE|DICT|INTERRES
   135   69   70 1    
   136   69  190 1    
   137   70   71 1    
   138   70   72 1    
   139   70  191 1    
   140   71  192 1    
   141   71  193 1    
   142   71  194 1    
   143   72   73 2    
   144   72   74 am   BACKBONE|DICT|INTERRES
   145   74   75 1    
   146   74  195 1    
   147   75   76 1    
   148   75   77 1    
   149   75  196 1    
   150   76  197 1    
   151   76  198 1    
   152   76  199 1    
   153   77   78 2    
   154   77   79 am   BACKBONE|DICT|INTERRES
   155   79   80 1    
   156   79  200 1    
   157   80   81 1    
   158   80   82 1    
   159   80  201 1    
   160   81  202 1    
   161   81  203 1    
   162   81  204 1    
   163   82   83 2    
   164   82   84 am   BACKBONE|DICT|INTERRES
   165   84   85 1    
   166   84  205 1    
   167   85   86 1    
   168   85   87 1    
   169   85  206 1    
   170   86  207 1    
   171   86  208 1    
   172   86  209 1    
   173   87   88 2    
   174   87   89 am   BACKBONE|DICT|INTERRES
   175   89   90 1    
   176   89  210 1    
   177   90   91 1    
   178   90   92 1    
   179   90  211 1    
   180   91  212 1    
   181   91  213 1    
   182   91  214 1    
   183   92   93 2    
   184   92   94 am   BACKBONE|DICT|INTERRES
   185   94   95 1    
   186   94  215 1    
   187   95   96 1    
   188   95   97 1    
   189   95  216 1    
   190   96  217 1    
   191   96  218 1    
   192   96  219 1    
   193   97   98 2    
   194   97   99 am   BACKBONE|DICT|INTERRES
   195   99  100 1    
   196   99  220 1    
   197  100  101 1    
   198  100  102 1    
   199  100  221 1    
   200  101  222 1    
   201  101  223 1    
   202  101  224 1    
   203  102  103 2    
   204  102  104 am   BACKBONE|DICT|INTERRES
   205  104  105 1    
   206  104  225 1    
   207  105  106 1    
   208  105  107 1    
   209  105  226 1    
   210  106  227 1    
   211  106  228 1    
   212  106  229 1    
   213  107  108 2    
   214  107  109 am   BACKBONE|DICT|INTERRES
   215  109  110 1    
   216  109  230 1    
   217  110  111 1    
   218  110  112 1    
   219  110  231 1    
   220  111  232 1    
   221  111  233 1    
   222  111  234 1    
   223  112  113 2    
   224  112  114 am   BACKBONE|DICT|INTERRES
   225  114  115 1    
   226  114  235 1    
   227  115  116 1    
   228  115  117 1    
   229  115  236 1    
   230  116  237 1    
   231  116  238 1    
   232  116  239 1    
   233  117  118 2    
   234  117  119 am   BACKBONE|DICT|INTERRES
   235  119  120 1    
   236  119  240 1    
   237  120  121 1    
   238  120  124 1    
   239  120  241 1    
   240  121  122 am   BACKBONE|DICT|INTERRES
   241  121  123 2    
   242  122  242 1    
   243  122  243 1    
   244  124  125 1    
   245  124  244 1    
   246  124  245 1    
   247  125  126 1    
   248  126  246 1    
   249  126  247 1    
@<TRIPOS>SUBSTRUCTURE
     1 UNK         1 GROUP             0       ****    0 ROOT    
