@<TRIPOS>MOLECULE
3R540
247   249    1
SMALL
USER_CHARGES


@<TRIPOS>ATOM
      1 CA          3.3690  -16.4136  -48.2895 C.3       0 UNK        -0.1800 
      2 C           2.6305  -15.0978  -48.0929 C.2       0 UNK         0.5000 
      3 O           2.9876  -14.1042  -48.7235 O.2       0 UNK        -0.5000 
      4 N           1.6260  -15.1027  -47.2048 N.am      1 UNK        -0.5000 
      5 CA          0.7702  -13.9774  -46.7873 C.3       1 UNK         0.1400 
      6 C6         -0.4824  -13.7451  -47.6790 C.3       23 UNK        -0.0398 
      7 S7         -0.1611  -13.2078  -49.3949 S.3       23 UNK        -0.2404 
      8 C8         -1.5723  -13.9468  -50.2884 C.3       23 UNK        -0.0205 
      9 C9         -1.5978  -15.4730  -50.2676 C.ar      23 UNK        -0.0193 
     10 C10        -2.8128  -16.1454  -50.1107 C.ar      23 UNK        -0.1150 
     11 C11        -2.8640  -17.5424  -50.1065 C.ar      23 UNK        -0.0193 
     12 C12        -1.6759  -18.2690  -50.2460 C.ar      23 UNK        -0.1150 
     13 C13        -0.4492  -17.6118  -50.4046 C.ar      23 UNK        -0.0193 
     14 C14        -0.4256  -16.2163  -50.4276 C.ar      23 UNK        -0.1150 
     15 C15         0.8717  -18.3559  -50.5854 C.3       23 UNK        -0.0205 
     16 S16         0.9642  -20.0151  -49.8401 S.3       23 UNK        -0.2404 
     17 C17         0.5952  -19.7110  -48.0769 C.3       23 UNK        -0.0398 
     18 CA         -0.0110  -20.9779  -47.4297 C.3       11 UNK         0.1400 
     19 N           0.2254  -21.0499  -45.9880 N.am      11 UNK        -0.5000 
     20 C           0.1626  -22.1948  -45.2931 C.2       10 UNK         0.5000 
     21 O          -0.1071  -23.2859  -45.7974 O.2       10 UNK        -0.5000 
     22 CA          0.4090  -22.1004  -43.7792 C.3       10 UNK         0.1400 
     23 CB          1.9143  -22.0435  -43.4807 C.3       10 UNK        -0.1800 
     24 N          -0.2646  -20.9534  -43.1686 N.am      10 UNK        -0.5000 
     25 C          -1.5971  -20.8239  -43.0965 C.2       9 UNK         0.5000 
     26 O          -2.3882  -21.6472  -43.5561 O.2       9 UNK        -0.5000 
     27 CA         -2.1442  -19.5503  -42.4304 C.3       9 UNK         0.1400 
     28 CB         -2.0134  -19.6363  -40.9026 C.3       9 UNK        -0.1800 
     29 N          -1.5147  -18.3185  -42.9051 N.am      9 UNK        -0.5000 
     30 C          -1.5042  -17.8952  -44.1772 C.2       8 UNK         0.5000 
     31 O          -1.9523  -18.5383  -45.1241 O.2       8 UNK        -0.5000 
     32 CA         -0.8367  -16.5388  -44.4392 C.3       8 UNK         0.1400 
     33 CB         -1.6836  -15.3768  -43.8942 C.3       8 UNK        -0.1800 
     34 N           0.4972  -16.5125  -43.8462 N.am      8 UNK        -0.5000 
     35 C           1.5598  -17.1207  -44.3888 C.2       7 UNK         0.5000 
     36 O           1.5545  -17.6114  -45.5178 O.2       7 UNK        -0.5000 
     37 CA          2.8414  -17.1862  -43.5414 C.3       7 UNK         0.1400 
     38 CB          3.7781  -16.0271  -43.9090 C.3       7 UNK        -0.1800 
     39 N           2.5704  -17.1589  -42.1023 N.am      7 UNK        -0.5000 
     40 C           2.0405  -18.1846  -41.4180 C.2       6 UNK         0.5000 
     41 O           1.7244  -19.2555  -41.9341 O.2       6 UNK        -0.5000 
     42 CA          1.7715  -17.9687  -39.9160 C.3       6 UNK         0.1400 
     43 CB          3.0180  -18.3222  -39.0918 C.3       6 UNK        -0.1800 
     44 N           1.3518  -16.6056  -39.5921 N.am      6 UNK        -0.5000 
     45 C           0.2659  -15.9956  -40.0865 C.2       5 UNK         0.5000 
     46 O          -0.5450  -16.5473  -40.8308 O.2       5 UNK        -0.5000 
     47 CA          0.0834  -14.5053  -39.7397 C.3       5 UNK         0.1400 
     48 CB         -0.8840  -14.3467  -38.5579 C.3       5 UNK        -0.1800 
     49 N           1.3302  -13.7882  -39.4419 N.am      5 UNK        -0.5000 
     50 C           2.3691  -13.6629  -40.2789 C.2       4 UNK         0.5000 
     51 O           2.4375  -14.2198  -41.3767 O.2       4 UNK        -0.5000 
     52 CA          3.5361  -12.7781  -39.8110 C.3       4 UNK         0.1400 
     53 CB          4.8522  -13.5720  -39.7890 C.3       4 UNK        -0.1800 
     54 N           3.6734  -11.6445  -40.7193 N.am      4 UNK        -0.5000 
     55 C           2.8674  -10.5739  -40.7250 C.2       3 UNK         0.5000 
     56 O           2.0332  -10.3422  -39.8488 O.2       3 UNK        -0.5000 
     57 CA          2.9961   -9.6128  -41.9255 C.3       3 UNK         0.1400 
     58 CB          3.9575   -8.4615  -41.5934 C.3       3 UNK        -0.1800 
     59 N           3.4414  -10.2699  -43.1600 N.am      3 UNK        -0.5000 
     60 C           2.7603  -11.2273  -43.8059 C.2       2 UNK         0.5000 
     61 O           1.6530  -11.6317  -43.4420 O.2       2 UNK        -0.5000 
     62 CA          3.4560  -11.8389  -45.0424 C.3       2 UNK         0.1400 
     63 CB          4.8253  -12.4382  -44.6714 C.3       2 UNK        -0.1800 
     64 N           2.6522  -12.8888  -45.6672 N.am      2 UNK        -0.5000 
     65 C           1.5338  -12.6943  -46.3789 C.2       1 UNK         0.5000 
     66 O           1.1036  -11.5789  -46.6803 O.2       1 UNK        -0.5000 
     67 C          -1.4989  -21.1840  -47.7819 C.2       11 UNK         0.5000 
     68 O          -1.7859  -21.8217  -48.7937 O.2       11 UNK        -0.5000 
     69 N          -2.4159  -20.7058  -46.9281 N.am      12 UNK        -0.5000 
     70 CA         -3.8538  -20.9526  -47.0412 C.3       12 UNK         0.1400 
     71 CB         -4.6220  -20.0231  -46.0907 C.3       12 UNK        -0.1800 
     72 C          -4.2274  -22.4231  -46.7891 C.2       12 UNK         0.5000 
     73 O          -5.0778  -22.9532  -47.5029 O.2       12 UNK        -0.5000 
     74 N          -3.5648  -23.0710  -45.8191 N.am      13 UNK        -0.5000 
     75 CA         -3.7161  -24.4992  -45.5249 C.3       13 UNK         0.1400 
     76 CB         -2.9881  -24.8411  -44.2162 C.3       13 UNK        -0.1800 
     77 C          -3.2254  -25.3967  -46.6770 C.2       13 UNK         0.5000 
     78 O          -3.8710  -26.3988  -46.9856 O.2       13 UNK        -0.5000 
     79 N          -2.1182  -24.9975  -47.3179 N.am      14 UNK        -0.5000 
     80 CA         -1.5899  -25.6204  -48.5345 C.3       14 UNK         0.1400 
     81 CB         -0.1168  -25.2118  -48.6929 C.3       14 UNK        -0.1800 
     82 C          -2.3788  -25.2418  -49.8056 C.2       14 UNK         0.5000 
     83 O          -2.1873  -25.8757  -50.8445 O.2       14 UNK        -0.5000 
     84 N          -3.2010  -24.1867  -49.7165 N.am      15 UNK        -0.5000 
     85 CA         -3.9415  -23.5160  -50.7881 C.3       15 UNK         0.1400 
     86 CB         -5.1201  -24.3909  -51.2564 C.3       15 UNK        -0.1800 
     87 C          -3.0228  -23.0577  -51.9396 C.2       15 UNK         0.5000 
     88 O          -3.3571  -23.2500  -53.1064 O.2       15 UNK        -0.5000 
     89 N          -1.8485  -22.5150  -51.5834 N.am      16 UNK        -0.5000 
     90 CA         -0.7462  -22.1355  -52.4769 C.3       16 UNK         0.1400 
     91 CB         -1.0897  -20.8459  -53.2464 C.3       16 UNK        -0.1800 
     92 C          -0.2955  -23.2902  -53.4001 C.2       16 UNK         0.5000 
     93 O          -0.1101  -23.0907  -54.6017 O.2       16 UNK        -0.5000 
     94 N          -0.1503  -24.4814  -52.8007 N.am      17 UNK        -0.5000 
     95 CA          0.1362  -25.7719  -53.4333 C.3       17 UNK         0.1400 
     96 CB          1.4994  -25.7629  -54.1581 C.3       17 UNK        -0.1800 
     97 C          -1.0350  -26.2494  -54.3164 C.2       17 UNK         0.5000 
     98 O          -0.8470  -26.5470  -55.4977 O.2       17 UNK        -0.5000 
     99 N          -2.2221  -26.3274  -53.6975 N.am      18 UNK        -0.5000 
    100 CA        -3.4838  -26.8359  -54.2468 C.3       18 UNK         0.1400 
    101 CB        -3.3861  -28.3554  -54.4997 C.3       18 UNK        -0.1800 
    102 C         -4.0061  -26.0521  -55.4711 C.2       18 UNK         0.5000 
    103 O         -4.5309  -26.6535  -56.4111 O.2       18 UNK        -0.5000 
    104 N         -3.8756  -24.7220  -55.4335 N.am      19 UNK        -0.5000 
    105 CA        -4.4614  -23.8028  -56.4035 C.3       19 UNK         0.1400 
    106 CB        -3.5427  -22.5810  -56.5474 C.3       19 UNK        -0.1800 
    107 C         -5.8626  -23.3810  -55.9296 C.2       19 UNK         0.5000 
    108 O         -6.0850  -23.2230  -54.7260 O.2       19 UNK        -0.5000 
    109 N         -6.7838  -23.1895  -56.8827 N.am      20 UNK        -0.5000 
    110 CA        -8.1687  -22.7779  -56.6425 C.3       20 UNK         0.1400 
    111 CB        -8.9386  -22.7941  -57.9729 C.3       20 UNK        -0.1800 
    112 C         -8.2338  -21.3922  -55.9748 C.2       20 UNK         0.5000 
    113 O         -7.8955  -20.3948  -56.6156 O.2       20 UNK        -0.5000 
    114 N         -8.5995  -21.3717  -54.6844 N.am      21 UNK        -0.5000 
    115 CA        -8.6367  -20.2022  -53.7952 C.3       21 UNK         0.1400 
    116 CB        -9.8024  -19.2700  -54.1867 C.3       21 UNK        -0.1800 
    117 C         -7.2808  -19.4637  -53.7034 C.2       21 UNK         0.5000 
    118 O         -7.2539  -18.2342  -53.6282 O.2       21 UNK        -0.5000 
    119 N         -6.1849  -20.2348  -53.7482 N.am      22 UNK        -0.5000 
    120 CA        -4.7896  -19.7701  -53.8466 C.3       22 UNK         0.1400 
    121 C         -4.4048  -19.1605  -55.2315 C.2       22 UNK         0.5000 
    122 N         -5.2358  -19.2383  -56.2647 N.am      22 UNK        -0.7600 
    123 O         -3.3091  -18.6306  -55.3903 O.2       22 UNK        -0.5000 
    124 C124       -4.3327  -18.8627  -52.6669 C.3       23 UNK        -0.0398 
    125 S125       -4.4635  -19.6707  -51.0375 S.3       23 UNK        -0.2404 
    126 C126       -4.2085  -18.2438  -49.9273 C.3       23 UNK        -0.0205 
    127 H127        3.6204  -16.5547  -49.3409 H         1 UNK         0.0600 
    128 H128        2.7686  -17.2647  -47.9671 H         1 UNK         0.0600 
    129 H129        4.2958  -16.4112  -47.7154 H         1 UNK         0.0600 
    130 H130        1.4336  -15.9802  -46.7329 H         1 UNK         0.3000 
    131 H131        0.3697  -14.3139  -45.8330 H         1 UNK         0.0600 
    132 H132       -1.1413  -13.0094  -47.2155 H         1 UNK         0.0800 
    133 H133       -1.0607  -14.6689  -47.7036 H         1 UNK         0.0800 
    134 H134       -2.4943  -13.5430  -49.8689 H         1 UNK         0.0800 
    135 H135       -1.5362  -13.6183  -51.3270 H         1 UNK         0.0800 
    136 H136       -3.7252  -15.5773  -49.9953 H         1 UNK         0.1150 
    137 H137       -1.7143  -19.3483  -50.2389 H         1 UNK         0.1150 
    138 H138        0.5157  -15.7034  -50.5662 H         1 UNK         0.1150 
    139 H139        1.0626  -18.4526  -51.6547 H         1 UNK         0.0800 
    140 H140        1.6902  -17.7615  -50.1815 H         1 UNK         0.0800 
    141 H141       -0.0550  -18.8448  -47.9441 H         1 UNK         0.0800 
    142 H142        1.5393  -19.4572  -47.5935 H         1 UNK         0.0800 
    143 H143        0.5199  -21.8332  -47.8550 H         1 UNK         0.0600 
    144 H144        0.4168  -20.1835  -45.5049 H         1 UNK         0.3000 
    145 H145        0.0080  -23.0071  -43.3213 H         1 UNK         0.0600 
    146 H146        2.1031  -22.0535  -42.4071 H         1 UNK         0.0600 
    147 H147        2.4310  -22.9030  -43.9097 H         1 UNK         0.0600 
    148 H148        2.3735  -21.1438  -43.8925 H         1 UNK         0.0600 
    149 H149        0.3332  -20.2407  -42.7566 H         1 UNK         0.3000 
    150 H150       -3.2064  -19.4842  -42.6744 H         1 UNK         0.0600 
    151 H151       -2.5124  -20.5262  -40.5169 H         1 UNK         0.0600 
    152 H152       -2.4678  -18.7719  -40.4180 H         1 UNK         0.0600 
    153 H153       -0.9699  -19.6836  -40.5914 H         1 UNK         0.0600 
    154 H154       -1.1186  -17.7140  -42.1896 H         1 UNK         0.3000 
    155 H155       -0.7534  -16.4136  -45.5208 H         1 UNK         0.0600 
    156 H156       -2.6556  -15.3446  -44.3876 H         1 UNK         0.0600 
    157 H157       -1.2007  -14.4151  -44.0649 H         1 UNK         0.0600 
    158 H158       -1.8668  -15.4669  -42.8238 H         1 UNK         0.0600 
    159 H159        0.5739  -16.1526  -42.9050 H         1 UNK         0.3000 
    160 H160        3.3480  -18.1241  -43.7791 H         1 UNK         0.0600 
    161 H161        3.3076  -15.0627  -43.7204 H         1 UNK         0.0600 
    162 H162        4.0493  -16.0619  -44.9650 H         1 UNK         0.0600 
    163 H163        4.7030  -16.0672  -43.3337 H         1 UNK         0.0600 
    164 H164        2.7334  -16.2768  -41.6291 H         1 UNK         0.3000 
    165 H165        0.9654  -18.6430  -39.6222 H         1 UNK         0.0600 
    166 H166        2.8162  -18.2560  -38.0225 H         1 UNK         0.0600 
    167 H167        3.3448  -19.3426  -39.2969 H         1 UNK         0.0600 
    168 H168        3.8528  -17.6578  -39.3187 H         1 UNK         0.0600 
    169 H169        1.9629  -16.0724  -38.9918 H         1 UNK         0.3000 
    170 H170       -0.3646  -14.0281  -40.6138 H         1 UNK         0.0600 
    171 H171       -1.8320  -14.8479  -38.7585 H         1 UNK         0.0600 
    172 H172       -0.4737  -14.7741  -37.6422 H         1 UNK         0.0600 
    173 H173       -1.1079  -13.2967  -38.3689 H         1 UNK         0.0600 
    174 H174        1.3564  -13.2919  -38.5626 H         1 UNK         0.3000 
    175 H175        3.3386  -12.4118  -38.8012 H         1 UNK         0.0600 
    176 H176        5.1157  -13.9493  -40.7782 H         1 UNK         0.0600 
    177 H177        5.6782  -12.9541  -39.4363 H         1 UNK         0.0600 
    178 H178        4.7788  -14.4298  -39.1195 H         1 UNK         0.0600 
    179 H179        4.3009  -11.7691  -41.4990 H         1 UNK         0.3000 
    180 H180        2.0072   -9.1891  -42.1117 H         1 UNK         0.0600 
    181 H181        4.9727   -8.8214  -41.4222 H         1 UNK         0.0600 
    182 H182        3.6397   -7.9351  -40.6923 H         1 UNK         0.0600 
    183 H183        3.9912   -7.7293  -42.4004 H         1 UNK         0.0600 
    184 H184        4.3392   -9.9805  -43.5204 H         1 UNK         0.3000 
    185 H185        3.6085  -11.0420  -45.7732 H         1 UNK         0.0600 
    186 H186        5.5259  -11.6642  -44.3570 H         1 UNK         0.0600 
    187 H187        4.7454  -13.1561  -43.8546 H         1 UNK         0.0600 
    188 H188        5.2782  -12.9477  -45.5224 H         1 UNK         0.0600 
    189 H189        2.9229  -13.8376  -45.4627 H         1 UNK         0.3000 
    190 H190       -2.1184  -20.1295  -46.1450 H         1 UNK         0.3000 
    191 H191       -4.1547  -20.7185  -48.0634 H         1 UNK         0.0600 
    192 H192       -4.4317  -18.9758  -46.3253 H         1 UNK         0.0600 
    193 H193       -5.6977  -20.1839  -46.1705 H         1 UNK         0.0600 
    194 H194       -4.3396  -20.1895  -45.0506 H         1 UNK         0.0600 
    195 H195       -2.9304  -22.5486  -45.2221 H         1 UNK         0.3000 
    196 H196       -4.7799  -24.6991  -45.3808 H         1 UNK         0.0600 
    197 H197       -3.0985  -25.8984  -43.9722 H         1 UNK         0.0600 
    198 H198       -3.3935  -24.2711  -43.3801 H         1 UNK         0.0600 
    199 H199       -1.9209  -24.6282  -44.2794 H         1 UNK         0.0600 
    200 H200       -1.6052  -24.2019  -46.9529 H         1 UNK         0.3000 
    201 H201       -1.6373  -26.7057  -48.4255 H         1 UNK         0.0600 
    202 H202        0.4678  -25.4981  -47.8184 H         1 UNK         0.0600 
    203 H203       -0.0112  -24.1344  -48.8263 H         1 UNK         0.0600 
    204 H204        0.3354  -25.6973  -49.5586 H         1 UNK         0.0600 
    205 H205       -3.2457  -23.7196  -48.8213 H         1 UNK         0.3000 
    206 H206       -4.3578  -22.6082  -50.3507 H         1 UNK         0.0600 
    207 H207       -5.7847  -24.6269  -50.4254 H         1 UNK         0.0600 
    208 H208       -5.7156  -23.8770  -52.0120 H         1 UNK         0.0600 
    209 H209       -4.7785  -25.3303  -51.6875 H         1 UNK         0.0600 
    210 H210       -1.6927  -22.3593  -50.5892 H         1 UNK         0.3000 
    211 H211        0.1068  -21.9196  -51.8350 H         1 UNK         0.0600 
    212 H212       -1.8923  -21.0067  -53.9647 H         1 UNK         0.0600 
    213 H213       -0.2249  -20.4802  -53.8007 H         1 UNK         0.0600 
    214 H214       -1.3956  -20.0520  -52.5671 H         1 UNK         0.0600 
    215 H215       -0.3902  -24.5341  -51.8210 H         1 UNK         0.3000 
    216 H216        0.2132  -26.4938  -52.6187 H         1 UNK         0.0600 
    217 H217        1.7596  -26.7642  -54.5026 H         1 UNK         0.0600 
    218 H218        2.2970  -25.4309  -53.4936 H         1 UNK         0.0600 
    219 H219        1.4973  -25.1117  -55.0323 H         1 UNK         0.0600 
    220 H220       -2.2575  -26.0563  -52.7170 H         1 UNK         0.3000 
    221 H221       -4.2303  -26.6911  -53.4664 H         1 UNK         0.0600 
    222 H222       -2.6916  -28.5876  -55.3076 H         1 UNK         0.0600 
    223 H223       -3.0506  -28.8826  -53.6066 H         1 UNK         0.0600 
    224 H224       -4.3567  -28.7708  -54.7732 H         1 UNK         0.0600 
    225 H225       -3.5304  -24.2848  -54.5796 H         1 UNK         0.3000 
    226 H226       -4.5422  -24.2883  -57.3782 H         1 UNK         0.0600 
    227 H227       -2.5553  -22.8719  -56.9064 H         1 UNK         0.0600 
    228 H228       -3.9518  -21.8618  -57.2579 H         1 UNK         0.0600 
    229 H229       -3.4088  -22.0663  -55.5968 H         1 UNK         0.0600 
    230 H230       -6.5174  -23.3065  -57.8494 H         1 UNK         0.3000 
    231 H231       -8.6287  -23.5131  -55.9788 H         1 UNK         0.0600 
    232 H232       -8.4982  -22.1145  -58.7038 H         1 UNK         0.0600 
    233 H233       -9.9759  -22.4905  -57.8262 H         1 UNK         0.0600 
    234 H234       -8.9518  -23.7931  -58.4092 H         1 UNK         0.0600 
    235 H235       -8.8015  -22.2561  -54.2387 H         1 UNK         0.3000 
    236 H236       -8.8404  -20.5828  -52.7934 H         1 UNK         0.0600 
    237 H237      -10.7462  -19.8137  -54.2249 H         1 UNK         0.0600 
    238 H238       -9.9227  -18.4657  -53.4600 H         1 UNK         0.0600 
    239 H239       -9.6412  -18.8090  -55.1617 H         1 UNK         0.0600 
    240 H240       -6.3079  -21.2362  -53.8497 H         1 UNK         0.3000 
    241 H241       -4.2006  -20.6839  -53.7847 H         1 UNK         0.0600 
    242 H242       -4.9523  -18.8413  -57.1459 H         1 UNK         0.3800 
    243 H243       -6.1580  -19.6551  -56.1856 H         1 UNK         0.3800 
    244 H244       -3.2885  -18.5740  -52.7933 H         1 UNK         0.0800 
    245 H245       -4.8956  -17.9293  -52.6519 H         1 UNK         0.0800 
    246 H246       -5.0291  -17.5421  -50.0839 H         1 UNK         0.0800 
    247 H247       -4.2866  -18.5749  -48.8929 H         1 UNK         0.0800 
@<TRIPOS>BOND
     1    1    2 1    
     2    1  127 1    
     3    1  128 1    
     4    1  129 1    
     5    2    3 2    
     6    2    4 am   BACKBONE|DICT|INTERRES
     7    4    5 1    
     8    4  130 1    
     9    5    6 1    
    10    5   65 1    
    11    5  131 1    
    12    6    7 1    
    13    6  132 1    
    14    6  133 1    
    15    7    8 1    
    16    8    9 1    
    17    8  134 1    
    18    8  135 1    
    19    9   10 ar   
    20    9   14 ar   
    21   10   11 ar   
    22   10  136 1    
    23   11   12 ar   
    24   11  126 1    
    25   12   13 ar   
    26   12  137 1    
    27   13   14 ar   
    28   13   15 1    
    29   14  138 1    
    30   15   16 1    
    31   15  139 1    
    32   15  140 1    
    33   16   17 1    
    34   17   18 1    
    35   17  141 1    
    36   17  142 1    
    37   18   19 1    
    38   18   67 1    
    39   18  143 1    
    40   19   20 am   BACKBONE|DICT|INTERRES
    41   19  144 1    
    42   20   21 2    
    43   20   22 1    
    44   22   23 1    
    45   22   24 1    
    46   22  145 1    
    47   23  146 1    
    48   23  147 1    
    49   23  148 1    
    50   24   25 am   BACKBONE|DICT|INTERRES
    51   24  149 1    
    52   25   26 2    
    53   25   27 1    
    54   27   28 1    
    55   27   29 1    
    56   27  150 1    
    57   28  151 1    
    58   28  152 1    
    59   28  153 1    
    60   29   30 am   BACKBONE|DICT|INTERRES
    61   29  154 1    
    62   30   31 2    
    63   30   32 1    
    64   32   33 1    
    65   32   34 1    
    66   32  155 1    
    67   33  156 1    
    68   33  157 1    
    69   33  158 1    
    70   34   35 am   BACKBONE|DICT|INTERRES
    71   34  159 1    
    72   35   36 2    
    73   35   37 1    
    74   37   38 1    
    75   37   39 1    
    76   37  160 1    
    77   38  161 1    
    78   38  162 1    
    79   38  163 1    
    80   39   40 am   BACKBONE|DICT|INTERRES
    81   39  164 1    
    82   40   41 2    
    83   40   42 1    
    84   42   43 1    
    85   42   44 1    
    86   42  165 1    
    87   43  166 1    
    88   43  167 1    
    89   43  168 1    
    90   44   45 am   BACKBONE|DICT|INTERRES
    91   44  169 1    
    92   45   46 2    
    93   45   47 1    
    94   47   48 1    
    95   47   49 1    
    96   47  170 1    
    97   48  171 1    
    98   48  172 1    
    99   48  173 1    
   100   49   50 am   BACKBONE|DICT|INTERRES
   101   49  174 1    
   102   50   51 2    
   103   50   52 1    
   104   52   53 1    
   105   52   54 1    
   106   52  175 1    
   107   53  176 1    
   108   53  177 1    
   109   53  178 1    
   110   54   55 am   BACKBONE|DICT|INTERRES
   111   54  179 1    
   112   55   56 2    
   113   55   57 1    
   114   57   58 1    
   115   57   59 1    
   116   57  180 1    
   117   58  181 1    
   118   58  182 1    
   119   58  183 1    
   120   59   60 am   BACKBONE|DICT|INTERRES
   121   59  184 1    
   122   60   61 2    
   123   60   62 1    
   124   62   63 1    
   125   62   64 1    
   126   62  185 1    
   127   63  186 1    
   128   63  187 1    
   129   63  188 1    
   130   64   65 am   BACKBONE|DICT|INTERRES
   131   64  189 1    
   132   65   66 2    
   133   67   68 2    
   134   67   69 am   BACKBONE|DICT|INTERRES
   135   69   70 1    
   136   69  190 1    
   137   70   71 1    
   138   70   72 1    
   139   70  191 1    
   140   71  192 1    
   141   71  193 1    
   142   71  194 1    
   143   72   73 2    
   144   72   74 am   BACKBONE|DICT|INTERRES
   145   74   75 1    
   146   74  195 1    
   147   75   76 1    
   148   75   77 1    
   149   75  196 1    
   150   76  197 1    
   151   76  198 1    
   152   76  199 1    
   153   77   78 2    
   154   77   79 am   BACKBONE|DICT|INTERRES
   155   79   80 1    
   156   79  200 1    
   157   80   81 1    
   158   80   82 1    
   159   80  201 1    
   160   81  202 1    
   161   81  203 1    
   162   81  204 1    
   163   82   83 2    
   164   82   84 am   BACKBONE|DICT|INTERRES
   165   84   85 1    
   166   84  205 1    
   167   85   86 1    
   168   85   87 1    
   169   85  206 1    
   170   86  207 1    
   171   86  208 1    
   172   86  209 1    
   173   87   88 2    
   174   87   89 am   BACKBONE|DICT|INTERRES
   175   89   90 1    
   176   89  210 1    
   177   90   91 1    
   178   90   92 1    
   179   90  211 1    
   180   91  212 1    
   181   91  213 1    
   182   91  214 1    
   183   92   93 2    
   184   92   94 am   BACKBONE|DICT|INTERRES
   185   94   95 1    
   186   94  215 1    
   187   95   96 1    
   188   95   97 1    
   189   95  216 1    
   190   96  217 1    
   191   96  218 1    
   192   96  219 1    
   193   97   98 2    
   194   97   99 am   BACKBONE|DICT|INTERRES
   195   99  100 1    
   196   99  220 1    
   197  100  101 1    
   198  100  102 1    
   199  100  221 1    
   200  101  222 1    
   201  101  223 1    
   202  101  224 1    
   203  102  103 2    
   204  102  104 am   BACKBONE|DICT|INTERRES
   205  104  105 1    
   206  104  225 1    
   207  105  106 1    
   208  105  107 1    
   209  105  226 1    
   210  106  227 1    
   211  106  228 1    
   212  106  229 1    
   213  107  108 2    
   214  107  109 am   BACKBONE|DICT|INTERRES
   215  109  110 1    
   216  109  230 1    
   217  110  111 1    
   218  110  112 1    
   219  110  231 1    
   220  111  232 1    
   221  111  233 1    
   222  111  234 1    
   223  112  113 2    
   224  112  114 am   BACKBONE|DICT|INTERRES
   225  114  115 1    
   226  114  235 1    
   227  115  116 1    
   228  115  117 1    
   229  115  236 1    
   230  116  237 1    
   231  116  238 1    
   232  116  239 1    
   233  117  118 2    
   234  117  119 am   BACKBONE|DICT|INTERRES
   235  119  120 1    
   236  119  240 1    
   237  120  121 1    
   238  120  124 1    
   239  120  241 1    
   240  121  122 am   BACKBONE|DICT|INTERRES
   241  121  123 2    
   242  122  242 1    
   243  122  243 1    
   244  124  125 1    
   245  124  244 1    
   246  124  245 1    
   247  125  126 1    
   248  126  246 1    
   249  126  247 1    
@<TRIPOS>SUBSTRUCTURE
     1 UNK         1 GROUP             0       ****    0 ROOT    
