@<TRIPOS>MOLECULE
3R540
247   249    1
SMALL
USER_CHARGES


@<TRIPOS>ATOM
      1 CA          7.0000  -15.9981  -45.7324 C.3       0 UNK        -0.1800 
      2 C           5.8000  -16.3574  -46.5972 C.2       0 UNK         0.5000 
      3 O           5.0410  -17.2563  -46.2409 O.2       0 UNK        -0.5000 
      4 N           5.6338  -15.6627  -47.7293 N.am      1 UNK        -0.5000 
      5 CA          4.5123  -15.8156  -48.6660 C.3       1 UNK         0.1400 
      6 C6          4.8081  -15.1271  -50.0228 C.3       23 UNK        -0.0398 
      7 S7          6.2834  -15.8386  -50.8336 S.3       23 UNK        -0.2404 
      8 C8          5.5787  -16.6710  -52.2980 C.3       23 UNK        -0.0205 
      9 C9          4.5165  -17.7181  -51.9740 C.ar      23 UNK        -0.0193 
     10 C10         3.3176  -17.7306  -52.6957 C.ar      23 UNK        -0.1150 
     11 C11         2.3363  -18.6886  -52.4273 C.ar      23 UNK        -0.0193 
     12 C12         2.5543  -19.6333  -51.4242 C.ar      23 UNK        -0.1150 
     13 C13         3.7419  -19.6299  -50.6902 C.ar      23 UNK        -0.0193 
     14 C14         4.7280  -18.6828  -50.9810 C.ar      23 UNK        -0.1150 
     15 C15         3.9366  -20.6407  -49.5707 C.3       23 UNK        -0.0205 
     16 S16         3.6279  -19.9298  -47.9189 S.3       23 UNK        -0.2404 
     17 C17         1.9896  -19.1440  -48.0978 C.3       23 UNK        -0.0398 
     18 CA          0.8182  -20.1416  -47.9570 C.3       11 UNK         0.1400 
     19 N           0.7256  -20.6941  -46.6057 N.am      11 UNK        -0.5000 
     20 C           0.0218  -21.7831  -46.2746 C.2       10 UNK         0.5000 
     21 O          -0.5830  -22.4789  -47.0906 O.2       10 UNK        -0.5000 
     22 CA         -0.0496  -22.1188  -44.7726 C.3       10 UNK         0.1400 
     23 CB          1.1866  -22.9184  -44.3361 C.3       10 UNK        -0.1800 
     24 N          -0.1690  -20.9197  -43.9394 N.am      10 UNK        -0.5000 
     25 C          -1.2453  -20.1197  -43.9177 C.2       9 UNK         0.5000 
     26 O          -2.2720  -20.3474  -44.5544 O.2       9 UNK        -0.5000 
     27 CA         -1.1445  -18.8226  -43.0935 C.3       9 UNK         0.1400 
     28 CB         -1.6222  -19.0579  -41.6536 C.3       9 UNK        -0.1800 
     29 N           0.2015  -18.2548  -43.0682 N.am      9 UNK        -0.5000 
     30 C           0.9051  -17.8628  -44.1375 C.2       8 UNK         0.5000 
     31 O           0.4762  -17.9179  -45.2900 O.2       8 UNK        -0.5000 
     32 CA          2.3339  -17.3491  -43.8902 C.3       8 UNK         0.1400 
     33 CB          2.3735  -15.8201  -43.9597 C.3       8 UNK        -0.1800 
     34 N           2.8947  -17.7743  -42.6082 N.am      8 UNK        -0.5000 
     35 C           3.3179  -19.0125  -42.3244 C.2       7 UNK         0.5000 
     36 O           3.2418  -19.9602  -43.1069 O.2       7 UNK        -0.5000 
     37 CA          3.9107  -19.2203  -40.9184 C.3       7 UNK         0.1400 
     38 CB          5.3968  -18.8304  -40.8978 C.3       7 UNK        -0.1800 
     39 N           3.1947  -18.4494  -39.8985 N.am      7 UNK        -0.5000 
     40 C           2.0074  -18.8080  -39.3920 C.2       6 UNK         0.5000 
     41 O           1.4252  -19.8512  -39.6900 O.2       6 UNK        -0.5000 
     42 CA          1.3449  -17.8268  -38.4041 C.3       6 UNK         0.1400 
     43 CB          1.8780  -18.0537  -36.9811 C.3       6 UNK        -0.1800 
     44 N           1.4841  -16.4067  -38.7529 N.am      6 UNK        -0.5000 
     45 C           1.0683  -15.8540  -39.9005 C.2       5 UNK         0.5000 
     46 O           0.6575  -16.5084  -40.8577 O.2       5 UNK        -0.5000 
     47 CA          1.1477  -14.3178  -40.0061 C.3       5 UNK         0.1400 
     48 CB          2.5524  -13.8774  -40.4474 C.3       5 UNK        -0.1800 
     49 N           0.1591  -13.7713  -40.9426 N.am      5 UNK        -0.5000 
     50 C          -1.1709  -13.8370  -40.7779 C.2       4 UNK         0.5000 
     51 O          -1.7051  -14.3065  -39.7713 O.2       4 UNK        -0.5000 
     52 CA         -2.0688  -13.2615  -41.8948 C.3       4 UNK         0.1400 
     53 CB         -2.7971  -12.0003  -41.4011 C.3       4 UNK        -0.1800 
     54 N          -1.3659  -12.9315  -43.1387 N.am      4 UNK        -0.5000 
     55 C          -0.9861  -13.8209  -44.0642 C.2       3 UNK         0.5000 
     56 O          -1.1401  -15.0389  -43.9471 O.2       3 UNK        -0.5000 
     57 CA         -0.3262  -13.2480  -45.3311 C.3       3 UNK         0.1400 
     58 CB          0.9573  -12.4594  -44.9931 C.3       3 UNK        -0.1800 
     59 N          -0.0240  -14.3522  -46.2363 N.am      3 UNK        -0.5000 
     60 C           0.3191  -14.2605  -47.5253 C.2       2 UNK         0.5000 
     61 O           0.3674  -13.2035  -48.1582 O.2       2 UNK        -0.5000 
     62 CA          0.6681  -15.5910  -48.2242 C.3       2 UNK         0.1400 
     63 CB         -0.2401  -15.8151  -49.4450 C.3       2 UNK        -0.1800 
     64 N           2.0661  -15.7427  -48.6537 N.am      2 UNK        -0.5000 
     65 C           3.1867  -15.3075  -48.0536 C.2       1 UNK         0.5000 
     66 O           3.2162  -14.5542  -47.0785 O.2       1 UNK        -0.5000 
     67 C          -0.5132  -19.4926  -48.3865 C.2       11 UNK         0.5000 
     68 O          -0.9037  -19.6293  -49.5449 O.2       11 UNK        -0.5000 
     69 N          -1.1969  -18.8207  -47.4481 N.am      12 UNK        -0.5000 
     70 CA         -2.5200  -18.2293  -47.6517 C.3       12 UNK         0.1400 
     71 CB         -2.8648  -17.3040  -46.4767 C.3       12 UNK        -0.1800 
     72 C          -3.6133  -19.2908  -47.8651 C.2       12 UNK         0.5000 
     73 O          -4.4523  -19.1192  -48.7470 O.2       12 UNK        -0.5000 
     74 N          -3.5554  -20.3945  -47.1052 N.am      13 UNK        -0.5000 
     75 CA         -4.4187  -21.5691  -47.2608 C.3       13 UNK         0.1400 
     76 CB         -4.0820  -22.6015  -46.1742 C.3       13 UNK        -0.1800 
     77 C          -4.3206  -22.1991  -48.6627 C.2       13 UNK         0.5000 
     78 O          -5.3485  -22.5611  -49.2383 O.2       13 UNK        -0.5000 
     79 N          -3.0900  -22.2585  -49.1924 N.am      14 UNK        -0.5000 
     80 CA         -2.7598  -22.7291  -50.5377 C.3       14 UNK         0.1400 
     81 CB         -1.2520  -23.0160  -50.6112 C.3       14 UNK        -0.1800 
     82 C          -3.1765  -21.7620  -51.6655 C.2       14 UNK         0.5000 
     83 O          -3.1676  -22.1573  -52.8323 O.2       14 UNK        -0.5000 
     84 N          -3.5476  -20.5168  -51.3393 N.am      15 UNK        -0.5000 
     85 CA         -4.0074  -19.5098  -52.2981 C.3       15 UNK         0.1400 
     86 CB         -3.6019  -18.1080  -51.8094 C.3       15 UNK        -0.1800 
     87 C          -5.5146  -19.6440  -52.6001 C.2       15 UNK         0.5000 
     88 O          -6.2196  -18.6370  -52.6690 O.2       15 UNK        -0.5000 
     89 N          -5.9821  -20.8927  -52.7573 N.am      16 UNK        -0.5000 
     90 CA         -7.3597  -21.3272  -53.0213 C.3       16 UNK         0.1400 
     91 CB         -7.8857  -20.7364  -54.3463 C.3       16 UNK        -0.1800 
     92 C          -8.3418  -21.0850  -51.8549 C.2       16 UNK         0.5000 
     93 O          -9.5395  -21.3220  -52.0213 O.2       16 UNK        -0.5000 
     94 N          -7.8415  -20.6285  -50.6981 N.am      17 UNK        -0.5000 
     95 CA         -8.6434  -20.3280  -49.5126 C.3       17 UNK         0.1400 
     96 CB         -7.8445  -19.4123  -48.5754 C.3       17 UNK        -0.1800 
     97 C          -9.1024  -21.5980  -48.7766 C.2       17 UNK         0.5000 
     98 O         -10.2043  -21.6096  -48.2260 O.2       17 UNK        -0.5000 
     99 N          -8.2619  -22.6397  -48.7922 N.am      18 UNK        -0.5000 
    100 CA        -8.5519  -23.9476  -48.2075 C.3       18 UNK         0.1400 
    101 CB        -7.9175  -24.0377  -46.8112 C.3       18 UNK        -0.1800 
    102 C         -8.0744  -25.1025  -49.1023 C.2       18 UNK         0.5000 
    103 O         -8.6892  -26.1698  -49.0706 O.2       18 UNK        -0.5000 
    104 N         -7.0066  -24.8923  -49.8821 N.am      19 UNK        -0.5000 
    105 CA        -6.4137  -25.8911  -50.7659 C.3       19 UNK         0.1400 
    106 CB        -5.4016  -26.7317  -49.9640 C.3       19 UNK        -0.1800 
    107 C         -5.7321  -25.2036  -51.9571 C.2       19 UNK         0.5000 
    108 O         -5.5450  -23.9860  -51.9366 O.2       19 UNK        -0.5000 
    109 N         -5.3477  -26.0166  -52.9509 N.am      20 UNK        -0.5000 
    110 CA        -4.5481  -25.6699  -54.1313 C.3       20 UNK         0.1400 
    111 CB        -3.0649  -25.5136  -53.7285 C.3       20 UNK        -0.1800 
    112 C         -5.1157  -24.4929  -54.9603 C.2       20 UNK         0.5000 
    113 O         -6.3368  -24.3305  -55.0268 O.2       20 UNK        -0.5000 
    114 N         -4.2357  -23.7321  -55.6226 N.am      21 UNK        -0.5000 
    115 CA        -4.5834  -22.6343  -56.5231 C.3       21 UNK         0.1400 
    116 CB        -5.0944  -23.1864  -57.8711 C.3       21 UNK        -0.1800 
    117 C         -3.3991  -21.6635  -56.6819 C.2       21 UNK         0.5000 
    118 O         -3.1025  -21.2293  -57.7960 O.2       21 UNK        -0.5000 
    119 N         -2.7308  -21.3390  -55.5672 N.am      22 UNK        -0.5000 
    120 CA        -1.6020  -20.3899  -55.5108 C.3       22 UNK         0.1400 
    121 C         -1.9970  -18.8873  -55.6880 C.2       22 UNK         0.5000 
    122 N         -3.2749  -18.5321  -55.7586 N.am      22 UNK        -0.7600 
    123 O         -1.1324  -18.0221  -55.7833 O.2       22 UNK        -0.5000 
    124 C124       -0.7588  -20.6366  -54.2316 C.3       23 UNK        -0.0398 
    125 S125        0.9860  -20.1198  -54.3583 S.3       23 UNK        -0.2404 
    126 C126        1.0306  -18.7110  -53.2017 C.3       23 UNK        -0.0205 
    127 H127        7.5880  -15.1904  -46.1690 H         1 UNK         0.0600 
    128 H128        7.6490  -16.8655  -45.6125 H         1 UNK         0.0600 
    129 H129        6.6666  -15.6809  -44.7442 H         1 UNK         0.0600 
    130 H130        6.2906  -14.9315  -47.9586 H         1 UNK         0.3000 
    131 H131        4.3861  -16.8851  -48.8447 H         1 UNK         0.0600 
    132 H132        3.9565  -15.2093  -50.7001 H         1 UNK         0.0800 
    133 H133        4.9762  -14.0583  -49.8802 H         1 UNK         0.0800 
    134 H134        6.3874  -17.1572  -52.8448 H         1 UNK         0.0800 
    135 H135        5.1752  -15.9071  -52.9646 H         1 UNK         0.0800 
    136 H136        3.1483  -16.9978  -53.4723 H         1 UNK         0.1150 
    137 H137        1.7880  -20.3654  -51.2088 H         1 UNK         0.1150 
    138 H138        5.6505  -18.6831  -50.4172 H         1 UNK         0.1150 
    139 H139        3.2824  -21.5018  -49.7154 H         1 UNK         0.0800 
    140 H140        4.9561  -21.0274  -49.6029 H         1 UNK         0.0800 
    141 H141        1.9403  -18.6090  -49.0442 H         1 UNK         0.0800 
    142 H142        1.9250  -18.3704  -47.3339 H         1 UNK         0.0800 
    143 H143        0.9981  -20.9694  -48.6462 H         1 UNK         0.0600 
    144 H144        1.1677  -20.1590  -45.8723 H         1 UNK         0.3000 
    145 H145       -0.9341  -22.7383  -44.6099 H         1 UNK         0.0600 
    146 H146        1.1118  -23.2204  -43.2913 H         1 UNK         0.0600 
    147 H147        1.2938  -23.8267  -44.9304 H         1 UNK         0.0600 
    148 H148        2.1036  -22.3388  -44.4523 H         1 UNK         0.0600 
    149 H149        0.6428  -20.6521  -43.3999 H         1 UNK         0.3000 
    150 H150       -1.7999  -18.0806  -43.5519 H         1 UNK         0.0600 
    151 H151       -2.6368  -19.4578  -41.6385 H         1 UNK         0.0600 
    152 H152       -1.6310  -18.1278  -41.0847 H         1 UNK         0.0600 
    153 H153       -0.9804  -19.7660  -41.1282 H         1 UNK         0.0600 
    154 H154        0.5820  -18.0364  -42.1538 H         1 UNK         0.3000 
    155 H155        2.9636  -17.7467  -44.6878 H         1 UNK         0.0600 
    156 H156        1.7066  -15.3672  -43.2261 H         1 UNK         0.0600 
    157 H157        2.0582  -15.4804  -44.9434 H         1 UNK         0.0600 
    158 H158        3.3807  -15.4370  -43.7959 H         1 UNK         0.0600 
    159 H159        2.9320  -17.0756  -41.8822 H         1 UNK         0.3000 
    160 H160        3.8371  -20.2831  -40.6772 H         1 UNK         0.0600 
    161 H161        5.5412  -17.7723  -41.1202 H         1 UNK         0.0600 
    162 H162        5.9594  -19.4009  -41.6382 H         1 UNK         0.0600 
    163 H163        5.8437  -19.0332  -39.9244 H         1 UNK         0.0600 
    164 H164        3.6120  -17.5828  -39.5922 H         1 UNK         0.3000 
    165 H165        0.2761  -18.0511  -38.4019 H         1 UNK         0.0600 
    166 H166        1.3308  -17.4537  -36.2539 H         1 UNK         0.0600 
    167 H167        1.7699  -19.0980  -36.6846 H         1 UNK         0.0600 
    168 H168        2.9353  -17.7976  -36.9015 H         1 UNK         0.0600 
    169 H169        1.8331  -15.8030  -38.0224 H         1 UNK         0.3000 
    170 H170        0.9438  -13.8956  -39.0199 H         1 UNK         0.0600 
    171 H171        3.3125  -14.2342  -39.7512 H         1 UNK         0.0600 
    172 H172        2.8083  -14.2610  -41.4346 H         1 UNK         0.0600 
    173 H173        2.6317  -12.7906  -40.4806 H         1 UNK         0.0600 
    174 H174        0.5117  -13.3880  -41.8054 H         1 UNK         0.3000 
    175 H175       -2.8229  -14.0196  -42.1175 H         1 UNK         0.0600 
    176 H176       -2.0966  -11.1986  -41.1637 H         1 UNK         0.0600 
    177 H177       -3.4942  -11.6273  -42.1518 H         1 UNK         0.0600 
    178 H178       -3.3759  -12.2074  -40.4999 H         1 UNK         0.0600 
    179 H179       -1.1999  -11.9496  -43.3065 H         1 UNK         0.3000 
    180 H180       -1.0462  -12.5862  -45.8161 H         1 UNK         0.0600 
    181 H181        1.6873  -13.0783  -44.4720 H         1 UNK         0.0600 
    182 H182        0.7425  -11.6000  -44.3576 H         1 UNK         0.0600 
    183 H183        1.4378  -12.0728  -45.8918 H         1 UNK         0.0600 
    184 H184       -0.0976  -15.2602  -45.7912 H         1 UNK         0.3000 
    185 H185        0.4722  -16.3983  -47.5180 H         1 UNK         0.0600 
    186 H186       -0.1312  -16.8225  -49.8466 H         1 UNK         0.0600 
    187 H187       -1.2900  -15.6796  -49.1839 H         1 UNK         0.0600 
    188 H188       -0.0128  -15.1105  -50.2459 H         1 UNK         0.0600 
    189 H189        2.1831  -16.3037  -49.4838 H         1 UNK         0.3000 
    190 H190       -0.7720  -18.6975  -46.5336 H         1 UNK         0.3000 
    191 H191       -2.4779  -17.6228  -48.5578 H         1 UNK         0.0600 
    192 H192       -3.7981  -16.7719  -46.6637 H         1 UNK         0.0600 
    193 H193       -2.0889  -16.5553  -46.3176 H         1 UNK         0.0600 
    194 H194       -2.9890  -17.8610  -45.5490 H         1 UNK         0.0600 
    195 H195       -2.8862  -20.4260  -46.3405 H         1 UNK         0.3000 
    196 H196       -5.4509  -21.2507  -47.1108 H         1 UNK         0.0600 
    197 H197       -3.0322  -22.8903  -46.2030 H         1 UNK         0.0600 
    198 H198       -4.2916  -22.2072  -45.1798 H         1 UNK         0.0600 
    199 H199       -4.6681  -23.5121  -46.2931 H         1 UNK         0.0600 
    200 H200       -2.3123  -21.9434  -48.6269 H         1 UNK         0.3000 
    201 H201       -3.2854  -23.6705  -50.7001 H         1 UNK         0.0600 
    202 H202       -0.9485  -23.7327  -49.8478 H         1 UNK         0.0600 
    203 H203       -0.6609  -22.1107  -50.4742 H         1 UNK         0.0600 
    204 H204       -0.9816  -23.4388  -51.5797 H         1 UNK         0.0600 
    205 H205       -3.5690  -20.2486  -50.3631 H         1 UNK         0.3000 
    206 H206       -3.4974  -19.6699  -53.2455 H         1 UNK         0.0600 
    207 H207       -2.5427  -18.0689  -51.5527 H         1 UNK         0.0600 
    208 H208       -3.7746  -17.3630  -52.5869 H         1 UNK         0.0600 
    209 H209       -4.1724  -17.8005  -50.9339 H         1 UNK         0.0600 
    210 H210       -5.3210  -21.6551  -52.6491 H         1 UNK         0.3000 
    211 H211       -7.3099  -22.4090  -53.1481 H         1 UNK         0.0600 
    212 H212       -8.8281  -21.2040  -54.6336 H         1 UNK         0.0600 
    213 H213       -7.1846  -20.9015  -55.1626 H         1 UNK         0.0600 
    214 H214       -8.0667  -19.6641  -54.2708 H         1 UNK         0.0600 
    215 H215       -6.8468  -20.4687  -50.6337 H         1 UNK         0.3000 
    216 H216       -9.5366  -19.7855  -49.8300 H         1 UNK         0.0600 
    217 H217       -6.9452  -19.9035  -48.2089 H         1 UNK         0.0600 
    218 H218       -8.4394  -19.1264  -47.7072 H         1 UNK         0.0600 
    219 H219       -7.5414  -18.4950  -49.0808 H         1 UNK         0.0600 
    220 H220       -7.3561  -22.5284  -49.2342 H         1 UNK         0.3000 
    221 H221       -9.6318  -24.0710  -48.1003 H         1 UNK         0.0600 
    222 H222       -8.3007  -23.2594  -46.1511 H         1 UNK         0.0600 
    223 H223       -6.8351  -23.9327  -46.8627 H         1 UNK         0.0600 
    224 H224       -8.1340  -24.9989  -46.3434 H         1 UNK         0.0600 
    225 H225       -6.5148  -24.0028  -49.8737 H         1 UNK         0.3000 
    226 H226       -7.1961  -26.5406  -51.1641 H         1 UNK         0.0600 
    227 H227       -4.6011  -26.1104  -49.5594 H         1 UNK         0.0600 
    228 H228       -5.8831  -27.2408  -49.1290 H         1 UNK         0.0600 
    229 H229       -4.9400  -27.5000  -50.5851 H         1 UNK         0.0600 
    230 H230       -5.5959  -26.9931  -52.8810 H         1 UNK         0.3000 
    231 H231       -4.6093  -26.5355  -54.7921 H         1 UNK         0.0600 
    232 H232       -2.9129  -24.6667  -53.0629 H         1 UNK         0.0600 
    233 H233       -2.4165  -25.3832  -54.5951 H         1 UNK         0.0600 
    234 H234       -2.7115  -26.4025  -53.2058 H         1 UNK         0.0600 
    235 H235       -3.2480  -23.9124  -55.5073 H         1 UNK         0.3000 
    236 H236       -5.3861  -22.0548  -56.0658 H         1 UNK         0.0600 
    237 H237       -5.9751  -23.8146  -57.7390 H         1 UNK         0.0600 
    238 H238       -5.3802  -22.3781  -58.5453 H         1 UNK         0.0600 
    239 H239       -4.3311  -23.7818  -58.3731 H         1 UNK         0.0600 
    240 H240       -3.0221  -21.7326  -54.6749 H         1 UNK         0.3000 
    241 H241       -0.9642  -20.6235  -56.3655 H         1 UNK         0.0600 
    242 H242       -3.5051  -17.5599  -55.8913 H         1 UNK         0.3800 
    243 H243       -4.0055  -19.2228  -55.7491 H         1 UNK         0.3800 
    244 H244       -0.7275  -21.7059  -54.0170 H         1 UNK         0.0800 
    245 H245       -1.2316  -20.1854  -53.3605 H         1 UNK         0.0800 
    246 H246        0.8897  -17.7849  -53.7612 H         1 UNK         0.0800 
    247 H247        0.2106  -18.7629  -52.4842 H         1 UNK         0.0800 
@<TRIPOS>BOND
     1    1    2 1    
     2    1  127 1    
     3    1  128 1    
     4    1  129 1    
     5    2    3 2    
     6    2    4 am   BACKBONE|DICT|INTERRES
     7    4    5 1    
     8    4  130 1    
     9    5    6 1    
    10    5   65 1    
    11    5  131 1    
    12    6    7 1    
    13    6  132 1    
    14    6  133 1    
    15    7    8 1    
    16    8    9 1    
    17    8  134 1    
    18    8  135 1    
    19    9   10 ar   
    20    9   14 ar   
    21   10   11 ar   
    22   10  136 1    
    23   11   12 ar   
    24   11  126 1    
    25   12   13 ar   
    26   12  137 1    
    27   13   14 ar   
    28   13   15 1    
    29   14  138 1    
    30   15   16 1    
    31   15  139 1    
    32   15  140 1    
    33   16   17 1    
    34   17   18 1    
    35   17  141 1    
    36   17  142 1    
    37   18   19 1    
    38   18   67 1    
    39   18  143 1    
    40   19   20 am   BACKBONE|DICT|INTERRES
    41   19  144 1    
    42   20   21 2    
    43   20   22 1    
    44   22   23 1    
    45   22   24 1    
    46   22  145 1    
    47   23  146 1    
    48   23  147 1    
    49   23  148 1    
    50   24   25 am   BACKBONE|DICT|INTERRES
    51   24  149 1    
    52   25   26 2    
    53   25   27 1    
    54   27   28 1    
    55   27   29 1    
    56   27  150 1    
    57   28  151 1    
    58   28  152 1    
    59   28  153 1    
    60   29   30 am   BACKBONE|DICT|INTERRES
    61   29  154 1    
    62   30   31 2    
    63   30   32 1    
    64   32   33 1    
    65   32   34 1    
    66   32  155 1    
    67   33  156 1    
    68   33  157 1    
    69   33  158 1    
    70   34   35 am   BACKBONE|DICT|INTERRES
    71   34  159 1    
    72   35   36 2    
    73   35   37 1    
    74   37   38 1    
    75   37   39 1    
    76   37  160 1    
    77   38  161 1    
    78   38  162 1    
    79   38  163 1    
    80   39   40 am   BACKBONE|DICT|INTERRES
    81   39  164 1    
    82   40   41 2    
    83   40   42 1    
    84   42   43 1    
    85   42   44 1    
    86   42  165 1    
    87   43  166 1    
    88   43  167 1    
    89   43  168 1    
    90   44   45 am   BACKBONE|DICT|INTERRES
    91   44  169 1    
    92   45   46 2    
    93   45   47 1    
    94   47   48 1    
    95   47   49 1    
    96   47  170 1    
    97   48  171 1    
    98   48  172 1    
    99   48  173 1    
   100   49   50 am   BACKBONE|DICT|INTERRES
   101   49  174 1    
   102   50   51 2    
   103   50   52 1    
   104   52   53 1    
   105   52   54 1    
   106   52  175 1    
   107   53  176 1    
   108   53  177 1    
   109   53  178 1    
   110   54   55 am   BACKBONE|DICT|INTERRES
   111   54  179 1    
   112   55   56 2    
   113   55   57 1    
   114   57   58 1    
   115   57   59 1    
   116   57  180 1    
   117   58  181 1    
   118   58  182 1    
   119   58  183 1    
   120   59   60 am   BACKBONE|DICT|INTERRES
   121   59  184 1    
   122   60   61 2    
   123   60   62 1    
   124   62   63 1    
   125   62   64 1    
   126   62  185 1    
   127   63  186 1    
   128   63  187 1    
   129   63  188 1    
   130   64   65 am   BACKBONE|DICT|INTERRES
   131   64  189 1    
   132   65   66 2    
   133   67   68 2    
   134   67   69 am   BACKBONE|DICT|INTERRES
   135   69   70 1    
   136   69  190 1    
   137   70   71 1    
   138   70   72 1    
   139   70  191 1    
   140   71  192 1    
   141   71  193 1    
   142   71  194 1    
   143   72   73 2    
   144   72   74 am   BACKBONE|DICT|INTERRES
   145   74   75 1    
   146   74  195 1    
   147   75   76 1    
   148   75   77 1    
   149   75  196 1    
   150   76  197 1    
   151   76  198 1    
   152   76  199 1    
   153   77   78 2    
   154   77   79 am   BACKBONE|DICT|INTERRES
   155   79   80 1    
   156   79  200 1    
   157   80   81 1    
   158   80   82 1    
   159   80  201 1    
   160   81  202 1    
   161   81  203 1    
   162   81  204 1    
   163   82   83 2    
   164   82   84 am   BACKBONE|DICT|INTERRES
   165   84   85 1    
   166   84  205 1    
   167   85   86 1    
   168   85   87 1    
   169   85  206 1    
   170   86  207 1    
   171   86  208 1    
   172   86  209 1    
   173   87   88 2    
   174   87   89 am   BACKBONE|DICT|INTERRES
   175   89   90 1    
   176   89  210 1    
   177   90   91 1    
   178   90   92 1    
   179   90  211 1    
   180   91  212 1    
   181   91  213 1    
   182   91  214 1    
   183   92   93 2    
   184   92   94 am   BACKBONE|DICT|INTERRES
   185   94   95 1    
   186   94  215 1    
   187   95   96 1    
   188   95   97 1    
   189   95  216 1    
   190   96  217 1    
   191   96  218 1    
   192   96  219 1    
   193   97   98 2    
   194   97   99 am   BACKBONE|DICT|INTERRES
   195   99  100 1    
   196   99  220 1    
   197  100  101 1    
   198  100  102 1    
   199  100  221 1    
   200  101  222 1    
   201  101  223 1    
   202  101  224 1    
   203  102  103 2    
   204  102  104 am   BACKBONE|DICT|INTERRES
   205  104  105 1    
   206  104  225 1    
   207  105  106 1    
   208  105  107 1    
   209  105  226 1    
   210  106  227 1    
   211  106  228 1    
   212  106  229 1    
   213  107  108 2    
   214  107  109 am   BACKBONE|DICT|INTERRES
   215  109  110 1    
   216  109  230 1    
   217  110  111 1    
   218  110  112 1    
   219  110  231 1    
   220  111  232 1    
   221  111  233 1    
   222  111  234 1    
   223  112  113 2    
   224  112  114 am   BACKBONE|DICT|INTERRES
   225  114  115 1    
   226  114  235 1    
   227  115  116 1    
   228  115  117 1    
   229  115  236 1    
   230  116  237 1    
   231  116  238 1    
   232  116  239 1    
   233  117  118 2    
   234  117  119 am   BACKBONE|DICT|INTERRES
   235  119  120 1    
   236  119  240 1    
   237  120  121 1    
   238  120  124 1    
   239  120  241 1    
   240  121  122 am   BACKBONE|DICT|INTERRES
   241  121  123 2    
   242  122  242 1    
   243  122  243 1    
   244  124  125 1    
   245  124  244 1    
   246  124  245 1    
   247  125  126 1    
   248  126  246 1    
   249  126  247 1    
@<TRIPOS>SUBSTRUCTURE
     1 UNK         1 GROUP             0       ****    0 ROOT    
