@<TRIPOS>MOLECULE
3R540
247   249    1
SMALL
USER_CHARGES


@<TRIPOS>ATOM
      1 CA          2.5528   -8.3813  -45.7691 C.3       0 UNK        -0.1800 
      2 C           1.4946   -9.4646  -45.9184 C.2       0 UNK         0.5000 
      3 O           0.3606   -9.2784  -45.4763 O.2       0 UNK        -0.5000 
      4 N           1.8640  -10.5986  -46.5289 N.am      1 UNK        -0.5000 
      5 CA          1.0493  -11.7960  -46.7858 C.3       1 UNK         0.1400 
      6 C6         -0.2313  -11.5054  -47.6148 C.3       23 UNK        -0.0398 
      7 S7         -0.7571  -12.9463  -48.5961 S.3       23 UNK        -0.2404 
      8 C8         -2.4756  -12.5054  -48.9881 C.3       23 UNK        -0.0205 
      9 C9         -3.1593  -13.6540  -49.7103 C.ar      23 UNK        -0.0193 
     10 C10        -3.0714  -13.7683  -51.1012 C.ar      23 UNK        -0.1150 
     11 C11        -3.6496  -14.8581  -51.7595 C.ar      23 UNK        -0.0193 
     12 C12        -4.3326  -15.8262  -51.0186 C.ar      23 UNK        -0.1150 
     13 C13        -4.4231  -15.7238  -49.6284 C.ar      23 UNK        -0.0193 
     14 C14        -3.8466  -14.6280  -48.9811 C.ar      23 UNK        -0.1150 
     15 C15        -5.1037  -16.8214  -48.8280 C.3       23 UNK        -0.0205 
     16 S16        -4.0064  -18.2620  -48.6837 S.3       23 UNK        -0.2404 
     17 C17        -4.9655  -19.3278  -47.5652 C.3       23 UNK        -0.0398 
     18 CA         -4.2762  -20.6939  -47.3450 C.3       11 UNK         0.1400 
     19 N          -2.9105  -20.5740  -46.8194 N.am      11 UNK        -0.5000 
     20 C          -2.0575  -21.5995  -46.6851 C.2       10 UNK         0.5000 
     21 O          -2.3397  -22.7506  -47.0129 O.2       10 UNK        -0.5000 
     22 CA         -0.6883  -21.3211  -46.0357 C.3       10 UNK         0.1400 
     23 CB          0.3935  -21.1457  -47.1111 C.3       10 UNK        -0.1800 
     24 N          -0.6856  -20.1608  -45.1429 N.am      10 UNK        -0.5000 
     25 C          -1.4086  -20.0571  -44.0178 C.2       9 UNK         0.5000 
     26 O          -2.1413  -20.9506  -43.5935 O.2       9 UNK        -0.5000 
     27 CA         -1.3507  -18.7080  -43.2790 C.3       9 UNK         0.1400 
     28 CB         -0.1637  -18.6586  -42.3049 C.3       9 UNK        -0.1800 
     29 N          -1.2799  -17.5794  -44.2094 N.am      9 UNK        -0.5000 
     30 C          -2.2966  -17.1829  -44.9893 C.2       8 UNK         0.5000 
     31 O          -3.4160  -17.6925  -44.9557 O.2       8 UNK        -0.5000 
     32 CA         -2.0136  -16.0447  -45.9860 C.3       8 UNK         0.1400 
     33 CB         -2.4118  -14.6897  -45.3841 C.3       8 UNK        -0.1800 
     34 N          -0.6134  -16.0059  -46.4094 N.am      8 UNK        -0.5000 
     35 C          -0.0714  -16.8846  -47.2641 C.2       7 UNK         0.5000 
     36 O          -0.7005  -17.7945  -47.8011 O.2       7 UNK        -0.5000 
     37 CA          1.4427  -16.7714  -47.5076 C.3       7 UNK         0.1400 
     38 CB          1.7662  -15.7015  -48.5592 C.3       7 UNK        -0.1800 
     39 N           2.1897  -16.4913  -46.2822 N.am      7 UNK        -0.5000 
     40 C           2.3176  -17.3399  -45.2565 C.2       6 UNK         0.5000 
     41 O           1.7614  -18.4386  -45.2325 O.2       6 UNK        -0.5000 
     42 CA          3.1642  -16.9042  -44.0390 C.3       6 UNK         0.1400 
     43 CB          4.2090  -17.9764  -43.6733 C.3       6 UNK        -0.1800 
     44 N           3.8043  -15.5834  -44.1149 N.am      6 UNK        -0.5000 
     45 C           4.7266  -15.1427  -44.9858 C.2       5 UNK         0.5000 
     46 O           5.1085  -15.7768  -45.9688 O.2       5 UNK        -0.5000 
     47 CA          5.3424  -13.7581  -44.6995 C.3       5 UNK         0.1400 
     48 CB          4.5692  -12.6519  -45.4299 C.3       5 UNK        -0.1800 
     49 N           5.3963  -13.4475  -43.2691 N.am      5 UNK        -0.5000 
     50 C           6.2246  -14.0509  -42.4036 C.2       4 UNK         0.5000 
     51 O           7.0860  -14.8636  -42.7423 O.2       4 UNK        -0.5000 
     52 CA          6.0706  -13.7071  -40.9083 C.3       4 UNK         0.1400 
     53 CB          7.1469  -12.6985  -40.4774 C.3       4 UNK        -0.1800 
     54 N           4.7559  -13.1852  -40.5249 N.am      4 UNK        -0.5000 
     55 C           3.5894  -13.8361  -40.6301 C.2       3 UNK         0.5000 
     56 O           3.4734  -14.9524  -41.1390 O.2       3 UNK        -0.5000 
     57 CA          2.3300  -13.1305  -40.0859 C.3       3 UNK         0.1400 
     58 CB          2.5914  -11.7376  -39.4669 C.3       3 UNK        -0.1800 
     59 N           1.2725  -13.0524  -41.0971 N.am      3 UNK        -0.5000 
     60 C           1.3410  -12.4419  -42.2882 C.2       2 UNK         0.5000 
     61 O           2.3455  -11.8604  -42.7085 O.2       2 UNK        -0.5000 
     62 CA          0.0484  -12.4806  -43.1251 C.3       2 UNK         0.1400 
     63 CB         -1.0717  -11.6685  -42.4537 C.3       2 UNK        -0.1800 
     64 N           0.2562  -11.9419  -44.4650 N.am      2 UNK        -0.5000 
     65 C           0.7534  -12.6128  -45.5067 C.2       1 UNK         0.5000 
     66 O           1.0072  -13.8182  -45.4790 O.2       1 UNK        -0.5000 
     67 C          -5.1600  -21.6106  -46.4728 C.2       11 UNK         0.5000 
     68 O          -5.9713  -22.3631  -47.0148 O.2       11 UNK        -0.5000 
     69 N          -4.9504  -21.5726  -45.1480 N.am      12 UNK        -0.5000 
     70 CA         -5.6218  -22.4417  -44.1801 C.3       12 UNK         0.1400 
     71 CB         -5.4248  -21.8770  -42.7655 C.3       12 UNK        -0.1800 
     72 C          -5.1401  -23.9036  -44.2546 C.2       12 UNK         0.5000 
     73 O          -5.9038  -24.8095  -43.9187 O.2       12 UNK        -0.5000 
     74 N          -3.9075  -24.1216  -44.7336 N.am      13 UNK        -0.5000 
     75 CA         -3.3127  -25.4342  -44.9833 C.3       13 UNK         0.1400 
     76 CB         -1.7830  -25.3339  -44.8373 C.3       13 UNK        -0.1800 
     77 C          -3.7516  -25.9789  -46.3577 C.2       13 UNK         0.5000 
     78 O          -2.9122  -26.2537  -47.2172 O.2       13 UNK        -0.5000 
     79 N          -5.0744  -26.1052  -46.5371 N.am      14 UNK        -0.5000 
     80 CA         -5.7712  -26.6411  -47.7103 C.3       14 UNK         0.1400 
     81 CB         -5.5560  -28.1668  -47.8005 C.3       14 UNK        -0.1800 
     82 C          -5.4082  -25.9119  -49.0201 C.2       14 UNK         0.5000 
     83 O          -5.0879  -26.5644  -50.0142 O.2       14 UNK        -0.5000 
     84 N          -5.4399  -24.5705  -48.9908 N.am      15 UNK        -0.5000 
     85 CA         -5.1035  -23.6719  -50.1017 C.3       15 UNK         0.1400 
     86 CB         -6.1522  -23.7774  -51.2270 C.3       15 UNK        -0.1800 
     87 C          -3.6577  -23.8748  -50.6007 C.2       15 UNK         0.5000 
     88 O          -3.4327  -24.0429  -51.8026 O.2       15 UNK        -0.5000 
     89 N          -2.7135  -23.8761  -49.6491 N.am      16 UNK        -0.5000 
     90 CA         -1.2813  -24.1281  -49.8169 C.3       16 UNK         0.1400 
     91 CB         -0.6155  -22.9914  -50.6197 C.3       16 UNK        -0.1800 
     92 C          -1.0043  -25.5365  -50.3776 C.2       16 UNK         0.5000 
     93 O          -0.2898  -25.6806  -51.3693 O.2       16 UNK        -0.5000 
     94 N          -1.5978  -26.5473  -49.7260 N.am      17 UNK        -0.5000 
     95 CA         -1.5271  -27.9757  -50.0475 C.3       17 UNK         0.1400 
     96 CB         -0.1071  -28.5212  -49.7893 C.3       17 UNK        -0.1800 
     97 C          -2.0553  -28.2932  -51.4622 C.2       17 UNK         0.5000 
     98 O          -1.3743  -28.9514  -52.2510 O.2       17 UNK        -0.5000 
     99 N          -3.2694  -27.8027  -51.7478 N.am      18 UNK        -0.5000 
    100 CA        -4.0306  -27.9559  -52.9910 C.3       18 UNK         0.1400 
    101 CB        -4.3783  -29.4369  -53.2499 C.3       18 UNK        -0.1800 
    102 C         -3.3929  -27.2640  -54.2148 C.2       18 UNK         0.5000 
    103 O         -3.6925  -27.6358  -55.3508 O.2       18 UNK        -0.5000 
    104 N         -2.5589  -26.2428  -53.9752 N.am      19 UNK        -0.5000 
    105 CA        -1.9618  -25.3982  -55.0140 C.3       19 UNK         0.1400 
    106 CB        -0.6593  -24.7891  -54.4757 C.3       19 UNK        -0.1800 
    107 C         -2.9125  -24.2858  -55.5016 C.2       19 UNK         0.5000 
    108 O         -2.5889  -23.6097  -56.4785 O.2       19 UNK        -0.5000 
    109 N         -4.0482  -24.1105  -54.8079 N.am      20 UNK        -0.5000 
    110 CA        -5.0477  -23.0515  -54.9762 C.3       20 UNK         0.1400 
    111 CB        -5.6725  -23.0677  -56.3876 C.3       20 UNK        -0.1800 
    112 C         -4.4901  -21.6747  -54.5632 C.2       20 UNK         0.5000 
    113 O         -4.7627  -20.6701  -55.2244 O.2       20 UNK        -0.5000 
    114 N         -3.7103  -21.6667  -53.4701 N.am      21 UNK        -0.5000 
    115 CA        -3.0243  -20.5198  -52.8717 C.3       21 UNK         0.1400 
    116 CB        -4.0401  -19.5836  -52.1823 C.3       21 UNK        -0.1800 
    117 C         -2.1043  -19.8168  -53.8910 C.2       21 UNK         0.5000 
    118 O         -1.0597  -20.3717  -54.2351 O.2       21 UNK        -0.5000 
    119 N         -2.5105  -18.6328  -54.3647 N.am      22 UNK        -0.5000 
    120 CA        -1.8177  -17.8648  -55.4123 C.3       22 UNK         0.1400 
    121 C         -2.0282  -18.4160  -56.8542 C.2       22 UNK         0.5000 
    122 N         -2.9465  -19.3452  -57.0932 N.am      22 UNK        -0.7600 
    123 O         -1.3380  -17.9927  -57.7776 O.2       22 UNK        -0.5000 
    124 C124       -2.1572  -16.3516  -55.3528 C.3       23 UNK        -0.0398 
    125 S125       -1.8542  -15.6232  -53.7054 S.3       23 UNK        -0.2404 
    126 C126       -3.5119  -15.0124  -53.2649 C.3       23 UNK        -0.0205 
    127 H127        2.7154   -8.1606  -44.7141 H         1 UNK         0.0600 
    128 H128        2.2260   -7.4668  -46.2640 H         1 UNK         0.0600 
    129 H129        3.5062   -8.6821  -46.2041 H         1 UNK         0.0600 
    130 H130        2.8208  -10.6727  -46.8448 H         1 UNK         0.3000 
    131 H131        1.7024  -12.4204  -47.3971 H         1 UNK         0.0600 
    132 H132       -0.0443  -10.6940  -48.3194 H         1 UNK         0.0800 
    133 H133       -1.0497  -11.1671  -46.9768 H         1 UNK         0.0800 
    134 H134       -2.4918  -11.6061  -49.6056 H         1 UNK         0.0800 
    135 H135       -3.0142  -12.2657  -48.0699 H         1 UNK         0.0800 
    136 H136       -2.5264  -13.0270  -51.6686 H         1 UNK         0.1150 
    137 H137       -4.7712  -16.6779  -51.5185 H         1 UNK         0.1150 
    138 H138       -3.9085  -14.5449  -47.9061 H         1 UNK         0.1150 
    139 H139       -5.3675  -16.4625  -47.8319 H         1 UNK         0.0800 
    140 H140       -6.0345  -17.1152  -49.3152 H         1 UNK         0.0800 
    141 H141       -5.9574  -19.4674  -47.9994 H         1 UNK         0.0800 
    142 H142       -5.1119  -18.8067  -46.6181 H         1 UNK         0.0800 
    143 H143       -4.1858  -21.1724  -48.3205 H         1 UNK         0.0600 
    144 H144       -2.6080  -19.6468  -46.5544 H         1 UNK         0.3000 
    145 H145       -0.4304  -22.1963  -45.4361 H         1 UNK         0.0600 
    146 H146        0.1810  -20.2982  -47.7626 H         1 UNK         0.0600 
    147 H147        1.3745  -20.9864  -46.6631 H         1 UNK         0.0600 
    148 H148        0.4638  -22.0330  -47.7413 H         1 UNK         0.0600 
    149 H149       -0.0610  -19.4008  -45.3902 H         1 UNK         0.3000 
    150 H150       -2.2683  -18.6092  -42.6948 H         1 UNK         0.0600 
    151 H151       -0.2519  -19.4413  -41.5504 H         1 UNK         0.0600 
    152 H152       -0.1215  -17.7046  -41.7790 H         1 UNK         0.0600 
    153 H153        0.7889  -18.8060  -42.8126 H         1 UNK         0.0600 
    154 H154       -0.3833  -17.1324  -44.3245 H         1 UNK         0.3000 
    155 H155       -2.6304  -16.2209  -46.8681 H         1 UNK         0.0600 
    156 H156       -3.4785  -14.6642  -45.1584 H         1 UNK         0.0600 
    157 H157       -2.2056  -13.8706  -46.0721 H         1 UNK         0.0600 
    158 H158       -1.8782  -14.4921  -44.4563 H         1 UNK         0.0600 
    159 H159       -0.0234  -15.2732  -46.0212 H         1 UNK         0.3000 
    160 H160        1.7824  -17.7346  -47.8946 H         1 UNK         0.0600 
    161 H161        2.8173  -15.7387  -48.8458 H         1 UNK         0.0600 
    162 H162        1.5593  -14.7000  -48.1859 H         1 UNK         0.0600 
    163 H163        1.1744  -15.8462  -49.4642 H         1 UNK         0.0600 
    164 H164        2.6309  -15.5861  -46.2101 H         1 UNK         0.3000 
    165 H165        2.4632  -16.8363  -43.2059 H         1 UNK         0.0600 
    166 H166        4.9327  -18.1247  -44.4753 H         1 UNK         0.0600 
    167 H167        4.7575  -17.6987  -42.7730 H         1 UNK         0.0600 
    168 H168        3.7350  -18.9392  -43.4782 H         1 UNK         0.0600 
    169 H169        3.5944  -14.9812  -43.3280 H         1 UNK         0.3000 
    170 H170        6.3629  -13.7674  -45.0886 H         1 UNK         0.0600 
    171 H171        3.5657  -12.5395  -45.0243 H         1 UNK         0.0600 
    172 H172        5.0752  -11.6908  -45.3372 H         1 UNK         0.0600 
    173 H173        4.4756  -12.8717  -46.4942 H         1 UNK         0.0600 
    174 H174        4.7104  -12.7944  -42.9137 H         1 UNK         0.3000 
    175 H175        6.2287  -14.6325  -40.3508 H         1 UNK         0.0600 
    176 H176        7.0212  -11.7384  -40.9795 H         1 UNK         0.0600 
    177 H177        7.1166  -12.5229  -39.4019 H         1 UNK         0.0600 
    178 H178        8.1461  -13.0654  -40.7161 H         1 UNK         0.0600 
    179 H179        4.7463  -12.2614  -40.1174 H         1 UNK         0.3000 
    180 H180        1.9482  -13.7737  -39.2918 H         1 UNK         0.0600 
    181 H181        2.9940  -11.0303  -40.1928 H         1 UNK         0.0600 
    182 H182        3.2927  -11.7996  -38.6338 H         1 UNK         0.0600 
    183 H183        1.6693  -11.3108  -39.0721 H         1 UNK         0.0600 
    184 H184        0.4155  -13.5286  -40.8540 H         1 UNK         0.3000 
    185 H185       -0.2651  -13.5227  -43.1975 H         1 UNK         0.0600 
    186 H186       -1.9875  -11.7014  -43.0445 H         1 UNK         0.0600 
    187 H187       -1.3140  -12.0606  -41.4654 H         1 UNK         0.0600 
    188 H188       -0.7899  -10.6217  -42.3325 H         1 UNK         0.0600 
    189 H189        0.1446  -10.9379  -44.5743 H         1 UNK         0.3000 
    190 H190       -4.2295  -20.9634  -44.7832 H         1 UNK         0.3000 
    191 H191       -6.6913  -22.4353  -44.4012 H         1 UNK         0.0600 
    192 H192       -4.3757  -21.8862  -42.4691 H         1 UNK         0.0600 
    193 H193       -5.7855  -20.8506  -42.6951 H         1 UNK         0.0600 
    194 H194       -5.9761  -22.4662  -42.0316 H         1 UNK         0.0600 
    195 H195       -3.3741  -23.3287  -45.0633 H         1 UNK         0.3000 
    196 H196       -3.6667  -26.1383  -44.2275 H         1 UNK         0.0600 
    197 H197       -1.5048  -24.9445  -43.8579 H         1 UNK         0.0600 
    198 H198       -1.3406  -24.6856  -45.5930 H         1 UNK         0.0600 
    199 H199       -1.3189  -26.3154  -44.9403 H         1 UNK         0.0600 
    200 H200       -5.6673  -25.8177  -45.7663 H         1 UNK         0.3000 
    201 H201       -6.8354  -26.4654  -47.5478 H         1 UNK         0.0600 
    202 H202       -6.1487  -28.5994  -48.6075 H         1 UNK         0.0600 
    203 H203       -5.8569  -28.6624  -46.8776 H         1 UNK         0.0600 
    204 H204       -4.5120  -28.4181  -47.9904 H         1 UNK         0.0600 
    205 H205       -5.6951  -24.1070  -48.1249 H         1 UNK         0.3000 
    206 H206       -5.1597  -22.6574  -49.7107 H         1 UNK         0.0600 
    207 H207       -7.1636  -23.6749  -50.8340 H         1 UNK         0.0600 
    208 H208       -6.0927  -24.7292  -51.7562 H         1 UNK         0.0600 
    209 H209       -6.0099  -22.9810  -51.9565 H         1 UNK         0.0600 
    210 H210       -2.9915  -23.7270  -48.6848 H         1 UNK         0.3000 
    211 H211       -0.8476  -24.1155  -48.8161 H         1 UNK         0.0600 
    212 H212       -0.7920  -22.0246  -50.1481 H         1 UNK         0.0600 
    213 H213        0.4642  -23.1335  -50.6747 H         1 UNK         0.0600 
    214 H214       -0.9903  -22.9378  -51.6409 H         1 UNK         0.0600 
    215 H215       -2.1583  -26.3228  -48.9051 H         1 UNK         0.3000 
    216 H216       -2.2011  -28.4763  -49.3508 H         1 UNK         0.0600 
    217 H217       -0.0752  -29.6031  -49.9222 H         1 UNK         0.0600 
    218 H218        0.6258  -28.0867  -50.4698 H         1 UNK         0.0600 
    219 H219        0.2155  -28.3102  -48.7698 H         1 UNK         0.0600 
    220 H220       -3.7591  -27.2756  -51.0252 H         1 UNK         0.3000 
    221 H221       -4.9712  -27.4308  -52.8186 H         1 UNK         0.0600 
    222 H222       -3.4957  -30.0224  -53.5081 H         1 UNK         0.0600 
    223 H223       -4.8397  -29.8921  -52.3734 H         1 UNK         0.0600 
    224 H224       -5.0862  -29.5351  -54.0736 H         1 UNK         0.0600 
    225 H225       -2.3629  -25.9866  -53.0157 H         1 UNK         0.3000 
    226 H226       -1.7116  -26.0178  -55.8776 H         1 UNK         0.0600 
    227 H227        0.0354  -25.5642  -54.1516 H         1 UNK         0.0600 
    228 H228       -0.1544  -24.1993  -55.2416 H         1 UNK         0.0600 
    229 H229       -0.8491  -24.1306  -53.6286 H         1 UNK         0.0600 
    230 H230       -4.1639  -24.6885  -53.9865 H         1 UNK         0.3000 
    231 H231       -5.8489  -23.2790  -54.2734 H         1 UNK         0.0600 
    232 H232       -6.5272  -22.3923  -56.4397 H         1 UNK         0.0600 
    233 H233       -6.0295  -24.0635  -56.6499 H         1 UNK         0.0600 
    234 H234       -4.9649  -22.7507  -57.1538 H         1 UNK         0.0600 
    235 H235       -3.5259  -22.5598  -53.0212 H         1 UNK         0.3000 
    236 H236       -2.3714  -20.9186  -52.0944 H         1 UNK         0.0600 
    237 H237       -4.5759  -20.1085  -51.3911 H         1 UNK         0.0600 
    238 H238       -3.5316  -18.7387  -51.7168 H         1 UNK         0.0600 
    239 H239       -4.7830  -19.1882  -52.8754 H         1 UNK         0.0600 
    240 H240       -3.3934  -18.2623  -54.0483 H         1 UNK         0.3000 
    241 H241       -0.7467  -17.9544  -55.2203 H         1 UNK         0.0600 
    242 H242       -3.5316  -19.7141  -56.3483 H         1 UNK         0.3800 
    243 H243       -3.0630  -19.6928  -58.0313 H         1 UNK         0.3800 
    244 H244       -1.5467  -15.7999  -56.0697 H         1 UNK         0.0800 
    245 H245       -3.1931  -16.1832  -55.6513 H         1 UNK         0.0800 
    246 H246       -3.6901  -14.0553  -53.7573 H         1 UNK         0.0800 
    247 H247       -4.2737  -15.6995  -53.6364 H         1 UNK         0.0800 
@<TRIPOS>BOND
     1    1    2 1    
     2    1  127 1    
     3    1  128 1    
     4    1  129 1    
     5    2    3 2    
     6    2    4 am   BACKBONE|DICT|INTERRES
     7    4    5 1    
     8    4  130 1    
     9    5    6 1    
    10    5   65 1    
    11    5  131 1    
    12    6    7 1    
    13    6  132 1    
    14    6  133 1    
    15    7    8 1    
    16    8    9 1    
    17    8  134 1    
    18    8  135 1    
    19    9   10 ar   
    20    9   14 ar   
    21   10   11 ar   
    22   10  136 1    
    23   11   12 ar   
    24   11  126 1    
    25   12   13 ar   
    26   12  137 1    
    27   13   14 ar   
    28   13   15 1    
    29   14  138 1    
    30   15   16 1    
    31   15  139 1    
    32   15  140 1    
    33   16   17 1    
    34   17   18 1    
    35   17  141 1    
    36   17  142 1    
    37   18   19 1    
    38   18   67 1    
    39   18  143 1    
    40   19   20 am   BACKBONE|DICT|INTERRES
    41   19  144 1    
    42   20   21 2    
    43   20   22 1    
    44   22   23 1    
    45   22   24 1    
    46   22  145 1    
    47   23  146 1    
    48   23  147 1    
    49   23  148 1    
    50   24   25 am   BACKBONE|DICT|INTERRES
    51   24  149 1    
    52   25   26 2    
    53   25   27 1    
    54   27   28 1    
    55   27   29 1    
    56   27  150 1    
    57   28  151 1    
    58   28  152 1    
    59   28  153 1    
    60   29   30 am   BACKBONE|DICT|INTERRES
    61   29  154 1    
    62   30   31 2    
    63   30   32 1    
    64   32   33 1    
    65   32   34 1    
    66   32  155 1    
    67   33  156 1    
    68   33  157 1    
    69   33  158 1    
    70   34   35 am   BACKBONE|DICT|INTERRES
    71   34  159 1    
    72   35   36 2    
    73   35   37 1    
    74   37   38 1    
    75   37   39 1    
    76   37  160 1    
    77   38  161 1    
    78   38  162 1    
    79   38  163 1    
    80   39   40 am   BACKBONE|DICT|INTERRES
    81   39  164 1    
    82   40   41 2    
    83   40   42 1    
    84   42   43 1    
    85   42   44 1    
    86   42  165 1    
    87   43  166 1    
    88   43  167 1    
    89   43  168 1    
    90   44   45 am   BACKBONE|DICT|INTERRES
    91   44  169 1    
    92   45   46 2    
    93   45   47 1    
    94   47   48 1    
    95   47   49 1    
    96   47  170 1    
    97   48  171 1    
    98   48  172 1    
    99   48  173 1    
   100   49   50 am   BACKBONE|DICT|INTERRES
   101   49  174 1    
   102   50   51 2    
   103   50   52 1    
   104   52   53 1    
   105   52   54 1    
   106   52  175 1    
   107   53  176 1    
   108   53  177 1    
   109   53  178 1    
   110   54   55 am   BACKBONE|DICT|INTERRES
   111   54  179 1    
   112   55   56 2    
   113   55   57 1    
   114   57   58 1    
   115   57   59 1    
   116   57  180 1    
   117   58  181 1    
   118   58  182 1    
   119   58  183 1    
   120   59   60 am   BACKBONE|DICT|INTERRES
   121   59  184 1    
   122   60   61 2    
   123   60   62 1    
   124   62   63 1    
   125   62   64 1    
   126   62  185 1    
   127   63  186 1    
   128   63  187 1    
   129   63  188 1    
   130   64   65 am   BACKBONE|DICT|INTERRES
   131   64  189 1    
   132   65   66 2    
   133   67   68 2    
   134   67   69 am   BACKBONE|DICT|INTERRES
   135   69   70 1    
   136   69  190 1    
   137   70   71 1    
   138   70   72 1    
   139   70  191 1    
   140   71  192 1    
   141   71  193 1    
   142   71  194 1    
   143   72   73 2    
   144   72   74 am   BACKBONE|DICT|INTERRES
   145   74   75 1    
   146   74  195 1    
   147   75   76 1    
   148   75   77 1    
   149   75  196 1    
   150   76  197 1    
   151   76  198 1    
   152   76  199 1    
   153   77   78 2    
   154   77   79 am   BACKBONE|DICT|INTERRES
   155   79   80 1    
   156   79  200 1    
   157   80   81 1    
   158   80   82 1    
   159   80  201 1    
   160   81  202 1    
   161   81  203 1    
   162   81  204 1    
   163   82   83 2    
   164   82   84 am   BACKBONE|DICT|INTERRES
   165   84   85 1    
   166   84  205 1    
   167   85   86 1    
   168   85   87 1    
   169   85  206 1    
   170   86  207 1    
   171   86  208 1    
   172   86  209 1    
   173   87   88 2    
   174   87   89 am   BACKBONE|DICT|INTERRES
   175   89   90 1    
   176   89  210 1    
   177   90   91 1    
   178   90   92 1    
   179   90  211 1    
   180   91  212 1    
   181   91  213 1    
   182   91  214 1    
   183   92   93 2    
   184   92   94 am   BACKBONE|DICT|INTERRES
   185   94   95 1    
   186   94  215 1    
   187   95   96 1    
   188   95   97 1    
   189   95  216 1    
   190   96  217 1    
   191   96  218 1    
   192   96  219 1    
   193   97   98 2    
   194   97   99 am   BACKBONE|DICT|INTERRES
   195   99  100 1    
   196   99  220 1    
   197  100  101 1    
   198  100  102 1    
   199  100  221 1    
   200  101  222 1    
   201  101  223 1    
   202  101  224 1    
   203  102  103 2    
   204  102  104 am   BACKBONE|DICT|INTERRES
   205  104  105 1    
   206  104  225 1    
   207  105  106 1    
   208  105  107 1    
   209  105  226 1    
   210  106  227 1    
   211  106  228 1    
   212  106  229 1    
   213  107  108 2    
   214  107  109 am   BACKBONE|DICT|INTERRES
   215  109  110 1    
   216  109  230 1    
   217  110  111 1    
   218  110  112 1    
   219  110  231 1    
   220  111  232 1    
   221  111  233 1    
   222  111  234 1    
   223  112  113 2    
   224  112  114 am   BACKBONE|DICT|INTERRES
   225  114  115 1    
   226  114  235 1    
   227  115  116 1    
   228  115  117 1    
   229  115  236 1    
   230  116  237 1    
   231  116  238 1    
   232  116  239 1    
   233  117  118 2    
   234  117  119 am   BACKBONE|DICT|INTERRES
   235  119  120 1    
   236  119  240 1    
   237  120  121 1    
   238  120  124 1    
   239  120  241 1    
   240  121  122 am   BACKBONE|DICT|INTERRES
   241  121  123 2    
   242  122  242 1    
   243  122  243 1    
   244  124  125 1    
   245  124  244 1    
   246  124  245 1    
   247  125  126 1    
   248  126  246 1    
   249  126  247 1    
@<TRIPOS>SUBSTRUCTURE
     1 UNK         1 GROUP             0       ****    0 ROOT    
