@<TRIPOS>MOLECULE
3R540
247   249    1
SMALL
USER_CHARGES


@<TRIPOS>ATOM
      1 CA         -3.2579  -15.8232  -46.1412 C.3       0 UNK        -0.1800 
      2 C          -2.3731  -15.0512  -47.1111 C.2       0 UNK         0.5000 
      3 O          -2.8437  -14.1200  -47.7650 O.2       0 UNK        -0.5000 
      4 N          -1.0953  -15.4377  -47.1999 N.am      1 UNK        -0.5000 
      5 CA         -0.0546  -14.7679  -47.9903 C.3       1 UNK         0.1400 
      6 C6          1.0937  -15.7445  -48.3695 C.3       23 UNK        -0.0398 
      7 S7          0.5111  -17.2422  -49.2376 S.3       23 UNK        -0.2404 
      8 C8          1.4444  -17.1627  -50.8001 C.3       23 UNK        -0.0205 
      9 C9          1.3408  -18.4823  -51.5468 C.ar      23 UNK        -0.0193 
     10 C10         0.4449  -18.6388  -52.6088 C.ar      23 UNK        -0.1150 
     11 C11         0.3116  -19.8782  -53.2436 C.ar      23 UNK        -0.0193 
     12 C12         1.0673  -20.9657  -52.7977 C.ar      23 UNK        -0.1150 
     13 C13         1.9704  -20.8198  -51.7412 C.ar      23 UNK        -0.0193 
     14 C14         2.1220  -19.5667  -51.1403 C.ar      23 UNK        -0.1150 
     15 C15         2.7414  -22.0309  -51.2245 C.3       23 UNK        -0.0205 
     16 S16         2.5847  -22.2781  -49.4191 S.3       23 UNK        -0.2404 
     17 C17         0.8183  -21.9127  -49.1376 C.3       23 UNK        -0.0398 
     18 CA          0.2294  -22.6175  -47.8987 C.3       11 UNK         0.1400 
     19 N           0.9576  -22.2833  -46.6726 N.am      11 UNK        -0.5000 
     20 C           0.7591  -22.8346  -45.4708 C.2       10 UNK         0.5000 
     21 O          -0.0777  -23.7120  -45.2599 O.2       10 UNK        -0.5000 
     22 CA          1.5835  -22.2749  -44.2992 C.3       10 UNK         0.1400 
     23 CB          3.0039  -22.8676  -44.2715 C.3       10 UNK        -0.1800 
     24 N           1.6022  -20.8084  -44.2399 N.am      10 UNK        -0.5000 
     25 C           2.1855  -19.9210  -45.0596 C.2       9 UNK         0.5000 
     26 O           2.8156  -20.2236  -46.0726 O.2       9 UNK        -0.5000 
     27 CA          2.0150  -18.4363  -44.6876 C.3       9 UNK         0.1400 
     28 CB          0.7191  -17.8803  -45.2969 C.3       9 UNK        -0.1800 
     29 N           1.9876  -18.2184  -43.2421 N.am      9 UNK        -0.5000 
     30 C           3.0235  -18.4178  -42.4143 C.2       8 UNK         0.5000 
     31 O           4.1603  -18.7060  -42.7893 O.2       8 UNK        -0.5000 
     32 CA          2.7218  -18.3123  -40.9098 C.3       8 UNK         0.1400 
     33 CB          2.7484  -16.8493  -40.4437 C.3       8 UNK        -0.1800 
     34 N           1.4269  -18.9110  -40.5814 N.am      8 UNK        -0.5000 
     35 C           1.1991  -20.2315  -40.5231 C.2       7 UNK         0.5000 
     36 O           2.0717  -21.0848  -40.6825 O.2       7 UNK        -0.5000 
     37 CA         -0.2509  -20.6778  -40.2600 C.3       7 UNK         0.1400 
     38 CB         -0.4999  -20.8443  -38.7537 C.3       7 UNK        -0.1800 
     39 N          -1.2371  -19.7472  -40.8095 N.am      7 UNK        -0.5000 
     40 C          -1.5114  -19.6184  -42.1139 C.2       6 UNK         0.5000 
     41 O          -0.9802  -20.2886  -43.0001 O.2       6 UNK        -0.5000 
     42 CA         -2.5279  -18.5290  -42.4931 C.3       6 UNK         0.1400 
     43 CB         -3.9605  -19.0775  -42.4322 C.3       6 UNK        -0.1800 
     44 N          -2.4212  -17.3117  -41.6857 N.am      6 UNK        -0.5000 
     45 C          -1.3557  -16.5014  -41.7031 C.2       5 UNK         0.5000 
     46 O          -0.3097  -16.7567  -42.3064 O.2       5 UNK        -0.5000 
     47 CA         -1.4692  -15.1872  -40.9275 C.3       5 UNK         0.1400 
     48 CB         -0.8165  -15.2930  -39.5395 C.3       5 UNK        -0.1800 
     49 N          -0.8127  -14.1613  -41.7267 N.am      5 UNK        -0.5000 
     50 C          -1.0965  -12.8560  -41.7100 C.2       4 UNK         0.5000 
     51 O          -1.8962  -12.3492  -40.9211 O.2       4 UNK        -0.5000 
     52 CA         -0.4191  -11.9758  -42.7821 C.3       4 UNK         0.1400 
     53 CB         -0.1028  -10.5534  -42.2736 C.3       4 UNK        -0.1800 
     54 N           0.7539  -12.5800  -43.4268 N.am      4 UNK        -0.5000 
     55 C           1.9566  -12.8297  -42.8825 C.2       3 UNK         0.5000 
     56 O           2.2171  -12.6699  -41.6901 O.2       3 UNK        -0.5000 
     57 CA          3.0682  -13.3369  -43.8305 C.3       3 UNK         0.1400 
     58 CB          3.2508  -14.8534  -43.6721 C.3       3 UNK        -0.1800 
     59 N           2.8172  -13.0438  -45.2438 N.am      3 UNK        -0.5000 
     60 C           2.7533  -11.8206  -45.7898 C.2       2 UNK         0.5000 
     61 O           3.0540  -10.7914  -45.1841 O.2       2 UNK        -0.5000 
     62 CA          2.2348  -11.7173  -47.2433 C.3       2 UNK         0.1400 
     63 CB          3.3840  -11.3504  -48.1956 C.3       2 UNK        -0.1800 
     64 N           1.5551  -12.9117  -47.7695 N.am      2 UNK        -0.5000 
     65 C           0.4784  -13.5169  -47.2437 C.2       1 UNK         0.5000 
     66 O          -0.0502  -13.1399  -46.1933 O.2       1 UNK        -0.5000 
     67 C          -1.2721  -22.2855  -47.7934 C.2       11 UNK         0.5000 
     68 O          -2.0832  -22.9541  -48.4301 O.2       11 UNK        -0.5000 
     69 N          -1.6215  -21.2627  -47.0029 N.am      12 UNK        -0.5000 
     70 CA         -3.0024  -20.8693  -46.7312 C.3       12 UNK         0.1400 
     71 CB         -3.0212  -19.4217  -46.2328 C.3       12 UNK        -0.1800 
     72 C          -3.6937  -21.8221  -45.7431 C.2       12 UNK         0.5000 
     73 O          -4.8595  -22.1546  -45.9516 O.2       12 UNK        -0.5000 
     74 N          -2.9567  -22.2979  -44.7280 N.am      13 UNK        -0.5000 
     75 CA         -3.4140  -23.3385  -43.8010 C.3       13 UNK         0.1400 
     76 CB         -2.4488  -23.4361  -42.6099 C.3       13 UNK        -0.1800 
     77 C          -3.5839  -24.7059  -44.4937 C.2       13 UNK         0.5000 
     78 O          -4.5239  -25.4364  -44.1803 O.2       13 UNK        -0.5000 
     79 N          -2.7017  -25.0002  -45.4592 N.am      14 UNK        -0.5000 
     80 CA         -2.7721  -26.1651  -46.3460 C.3       14 UNK         0.1400 
     81 CB         -1.3877  -26.3828  -46.9769 C.3       14 UNK        -0.1800 
     82 C          -3.8482  -26.0435  -47.4487 C.2       14 UNK         0.5000 
     83 O          -4.1101  -27.0287  -48.1386 O.2       14 UNK        -0.5000 
     84 N          -4.4273  -24.8439  -47.6102 N.am      15 UNK        -0.5000 
     85 CA         -5.4405  -24.4376  -48.5918 C.3       15 UNK         0.1400 
     86 CB         -6.7254  -25.2796  -48.4622 C.3       15 UNK        -0.1800 
     87 C          -4.9355  -24.3617  -50.0481 C.2       15 UNK         0.5000 
     88 O          -5.7363  -24.1230  -50.9516 O.2       15 UNK        -0.5000 
     89 N          -3.6207  -24.4840  -50.2655 N.am      16 UNK        -0.5000 
     90 CA         -2.9645  -24.3066  -51.5615 C.3       16 UNK         0.1400 
     91 CB         -1.5006  -24.7616  -51.4598 C.3       16 UNK        -0.1800 
     92 C          -3.0544  -22.8521  -52.0563 C.2       16 UNK         0.5000 
     93 O          -3.3391  -22.6262  -53.2314 O.2       16 UNK        -0.5000 
     94 N          -2.8812  -21.8980  -51.1298 N.am      17 UNK        -0.5000 
     95 CA         -3.0260  -20.4601  -51.3824 C.3       17 UNK         0.1400 
     96 CB         -2.1893  -19.6728  -50.3628 C.3       17 UNK        -0.1800 
     97 C          -4.4942  -19.9831  -51.3987 C.2       17 UNK         0.5000 
     98 O          -4.7405  -18.8049  -51.6592 O.2       17 UNK        -0.5000 
     99 N          -5.4411  -20.8895  -51.1196 N.am      18 UNK        -0.5000 
    100 CA        -6.8729  -20.6743  -51.3192 C.3       18 UNK         0.1400 
    101 CB        -7.6612  -21.3166  -50.1662 C.3       18 UNK        -0.1800 
    102 C         -7.3094  -21.2462  -52.6797 C.2       18 UNK         0.5000 
    103 O         -8.0630  -20.5892  -53.3984 O.2       18 UNK        -0.5000 
    104 N         -6.8229  -22.4517  -53.0128 N.am      19 UNK        -0.5000 
    105 CA        -7.1030  -23.1602  -54.2620 C.3       19 UNK         0.1400 
    106 CB        -6.5768  -24.5997  -54.1529 C.3       19 UNK        -0.1800 
    107 C         -6.5215  -22.4675  -55.5083 C.2       19 UNK         0.5000 
    108 O         -7.1902  -22.4313  -56.5424 O.2       19 UNK        -0.5000 
    109 N         -5.3025  -21.9297  -55.3893 N.am      20 UNK        -0.5000 
    110 CA        -4.6169  -21.1617  -56.4241 C.3       20 UNK         0.1400 
    111 CB        -3.3490  -21.9185  -56.8501 C.3       20 UNK        -0.1800 
    112 C         -4.2527  -19.7812  -55.8643 C.2       20 UNK         0.5000 
    113 O         -3.9552  -19.6654  -54.6754 O.2       20 UNK        -0.5000 
    114 N         -4.2630  -18.7609  -56.7303 N.am      21 UNK        -0.5000 
    115 CA        -3.8737  -17.3930  -56.3782 C.3       21 UNK         0.1400 
    116 CB        -4.5417  -16.4105  -57.3528 C.3       21 UNK        -0.1800 
    117 C         -2.3458  -17.2000  -56.3812 C.2       21 UNK         0.5000 
    118 O         -1.8305  -16.4394  -55.5617 O.2       21 UNK        -0.5000 
    119 N         -1.6586  -17.8909  -57.3031 N.am      22 UNK        -0.5000 
    120 CA        -0.1972  -17.8614  -57.5153 C.3       22 UNK         0.1400 
    121 C          0.3726  -16.4872  -57.9906 C.2       22 UNK         0.5000 
    122 N         -0.4417  -15.5801  -58.5165 N.am      22 UNK        -0.7600 
    123 O          1.5747  -16.2459  -57.9176 O.2       22 UNK        -0.5000 
    124 C124        0.6055  -18.4635  -56.3271 C.3       23 UNK        -0.0398 
    125 S125        0.1534  -20.2010  -55.9958 S.3       23 UNK        -0.2404 
    126 C126       -0.6764  -20.0625  -54.3842 C.3       23 UNK        -0.0205 
    127 H127       -3.7743  -15.1331  -45.4741 H         1 UNK         0.0600 
    128 H128       -4.0068  -16.3953  -46.6887 H         1 UNK         0.0600 
    129 H129       -2.6790  -16.5129  -45.5267 H         1 UNK         0.0600 
    130 H130       -0.7784  -16.2110  -46.6368 H         1 UNK         0.3000 
    131 H131       -0.5051  -14.4104  -48.9186 H         1 UNK         0.0600 
    132 H132        1.6387  -16.0628  -47.4797 H         1 UNK         0.0800 
    133 H133        1.8270  -15.2481  -49.0059 H         1 UNK         0.0800 
    134 H134        2.4942  -16.9476  -50.5946 H         1 UNK         0.0800 
    135 H135        1.0672  -16.3407  -51.4103 H         1 UNK         0.0800 
    136 H136       -0.1623  -17.8028  -52.9273 H         1 UNK         0.1150 
    137 H137        0.9417  -21.9288  -53.2724 H         1 UNK         0.1150 
    138 H138        2.8080  -19.4495  -50.3129 H         1 UNK         0.1150 
    139 H139        2.4021  -22.9401  -51.7233 H         1 UNK         0.0800 
    140 H140        3.7960  -21.9158  -51.4773 H         1 UNK         0.0800 
    141 H141        0.7141  -20.8303  -49.0399 H         1 UNK         0.0800 
    142 H142        0.2604  -22.1988  -50.0311 H         1 UNK         0.0800 
    143 H143        0.3156  -23.6951  -48.0478 H         1 UNK         0.0600 
    144 H144        1.6824  -21.5736  -46.7487 H         1 UNK         0.3000 
    145 H145        1.0806  -22.5933  -43.3845 H         1 UNK         0.0600 
    146 H146        3.5629  -22.5036  -43.4092 H         1 UNK         0.0600 
    147 H147        2.9679  -23.9553  -44.2012 H         1 UNK         0.0600 
    148 H148        3.5707  -22.6189  -45.1690 H         1 UNK         0.0600 
    149 H149        1.0178  -20.4243  -43.5061 H         1 UNK         0.3000 
    150 H150        2.8610  -17.8861  -45.1046 H         1 UNK         0.0600 
    151 H151        0.6457  -16.8037  -45.1447 H         1 UNK         0.0600 
    152 H152       -0.1619  -18.3397  -44.8498 H         1 UNK         0.0600 
    153 H153        0.6780  -18.0715  -46.3690 H         1 UNK         0.0600 
    154 H154        1.1060  -17.9003  -42.8491 H         1 UNK         0.3000 
    155 H155        3.5017  -18.8530  -40.3690 H         1 UNK         0.0600 
    156 H156        2.5144  -16.7677  -39.3822 H         1 UNK         0.0600 
    157 H157        2.0367  -16.2345  -40.9951 H         1 UNK         0.0600 
    158 H158        3.7380  -16.4155  -40.5902 H         1 UNK         0.0600 
    159 H159        0.6475  -18.2793  -40.4755 H         1 UNK         0.3000 
    160 H160       -0.3891  -21.6503  -40.7377 H         1 UNK         0.0600 
    161 H161       -0.3917  -19.8994  -38.2196 H         1 UNK         0.0600 
    162 H162        0.2069  -21.5513  -38.3171 H         1 UNK         0.0600 
    163 H163       -1.5020  -21.2275  -38.5602 H         1 UNK         0.0600 
    164 H164       -1.7251  -19.1555  -40.1532 H         1 UNK         0.3000 
    165 H165       -2.3210  -18.2330  -43.5201 H         1 UNK         0.0600 
    166 H166       -4.2493  -19.3394  -41.4136 H         1 UNK         0.0600 
    167 H167       -4.6779  -18.3484  -42.8090 H         1 UNK         0.0600 
    168 H168       -4.0619  -19.9757  -43.0431 H         1 UNK         0.0600 
    169 H169       -3.2404  -17.0428  -41.1596 H         1 UNK         0.3000 
    170 H170       -2.5264  -14.9380  -40.8142 H         1 UNK         0.0600 
    171 H171       -1.2682  -16.0938  -38.9529 H         1 UNK         0.0600 
    172 H172        0.2515  -15.4956  -39.6093 H         1 UNK         0.0600 
    173 H173       -0.9411  -14.3682  -38.9759 H         1 UNK         0.0600 
    174 H174       -0.1636  -14.5186  -42.4158 H         1 UNK         0.3000 
    175 H175       -1.1584  -11.8727  -43.5776 H         1 UNK         0.0600 
    176 H176        0.3617   -9.9503  -43.0539 H         1 UNK         0.0600 
    177 H177       -1.0118  -10.0362  -41.9645 H         1 UNK         0.0600 
    178 H178        0.5695  -10.5691  -41.4156 H         1 UNK         0.0600 
    179 H179        0.6294  -12.7817  -44.4159 H         1 UNK         0.3000 
    180 H180        3.9990  -12.8432  -43.5443 H         1 UNK         0.0600 
    181 H181        2.3296  -15.3938  -43.8915 H         1 UNK         0.0600 
    182 H182        4.0314  -15.2340  -44.3311 H         1 UNK         0.0600 
    183 H183        3.5434  -15.1013  -42.6524 H         1 UNK         0.0600 
    184 H184        2.5627  -13.8272  -45.8246 H         1 UNK         0.3000 
    185 H185        1.5084  -10.9023  -47.2578 H         1 UNK         0.0600 
    186 H186        3.0173  -11.1621  -49.2048 H         1 UNK         0.0600 
    187 H187        3.8946  -10.4446  -47.8654 H         1 UNK         0.0600 
    188 H188        4.1289  -12.1452  -48.2500 H         1 UNK         0.0600 
    189 H189        1.9347  -13.2710  -48.6330 H         1 UNK         0.3000 
    190 H190       -0.8947  -20.7592  -46.5173 H         1 UNK         0.3000 
    191 H191       -3.5757  -20.9122  -47.6594 H         1 UNK         0.0600 
    192 H192       -4.0177  -19.1220  -45.9055 H         1 UNK         0.0600 
    193 H193       -2.3382  -19.2957  -45.3975 H         1 UNK         0.0600 
    194 H194       -2.7123  -18.7338  -47.0200 H         1 UNK         0.0600 
    195 H195       -2.0055  -21.9775  -44.6136 H         1 UNK         0.3000 
    196 H196       -4.3923  -23.0425  -43.4161 H         1 UNK         0.0600 
    197 H197       -2.7527  -24.2281  -41.9245 H         1 UNK         0.0600 
    198 H198       -2.4347  -22.5074  -42.0409 H         1 UNK         0.0600 
    199 H199       -1.4288  -23.6513  -42.9284 H         1 UNK         0.0600 
    200 H200       -1.9026  -24.3854  -45.5818 H         1 UNK         0.3000 
    201 H201       -3.0164  -27.0430  -45.7445 H         1 UNK         0.0600 
    202 H202       -0.6157  -26.4838  -46.2137 H         1 UNK         0.0600 
    203 H203       -1.1101  -25.5540  -47.6275 H         1 UNK         0.0600 
    204 H204       -1.3697  -27.2917  -47.5795 H         1 UNK         0.0600 
    205 H205       -4.1247  -24.1046  -46.9906 H         1 UNK         0.3000 
    206 H206       -5.7023  -23.4127  -48.3257 H         1 UNK         0.0600 
    207 H207       -7.0786  -25.3033  -47.4312 H         1 UNK         0.0600 
    208 H208       -7.5293  -24.8618  -49.0693 H         1 UNK         0.0600 
    209 H209       -6.5739  -26.3078  -48.7908 H         1 UNK         0.0600 
    210 H210       -3.0166  -24.5542  -49.4565 H         1 UNK         0.3000 
    211 H211       -3.4718  -24.9412  -52.2911 H         1 UNK         0.0600 
    212 H212       -0.9509  -24.1949  -50.7084 H         1 UNK         0.0600 
    213 H213       -0.9842  -24.6331  -52.4119 H         1 UNK         0.0600 
    214 H214       -1.4357  -25.8168  -51.1939 H         1 UNK         0.0600 
    215 H215       -2.6746  -22.1848  -50.1787 H         1 UNK         0.3000 
    216 H216       -2.6211  -20.2424  -52.3703 H         1 UNK         0.0600 
    217 H217       -2.1883  -18.6081  -50.5996 H         1 UNK         0.0600 
    218 H218       -1.1503  -19.9991  -50.3682 H         1 UNK         0.0600 
    219 H219       -2.5747  -19.7779  -49.3521 H         1 UNK         0.0600 
    220 H220       -5.1483  -21.8371  -50.9342 H         1 UNK         0.3000 
    221 H221       -7.0975  -19.6056  -51.3164 H         1 UNK         0.0600 
    222 H222       -7.5430  -22.3992  -50.1378 H         1 UNK         0.0600 
    223 H223       -7.3425  -20.9198  -49.2022 H         1 UNK         0.0600 
    224 H224       -8.7274  -21.1101  -50.2662 H         1 UNK         0.0600 
    225 H225       -6.2750  -22.9671  -52.3303 H         1 UNK         0.3000 
    226 H226       -8.1873  -23.2041  -54.3835 H         1 UNK         0.0600 
    227 H227       -6.7833  -25.1630  -55.0638 H         1 UNK         0.0600 
    228 H228       -5.4986  -24.6210  -53.9889 H         1 UNK         0.0600 
    229 H229       -7.0505  -25.1311  -53.3272 H         1 UNK         0.0600 
    230 H230       -4.8124  -21.9871  -54.5010 H         1 UNK         0.3000 
    231 H231       -5.2570  -21.0240  -57.2978 H         1 UNK         0.0600 
    232 H232       -2.7944  -21.3634  -57.6076 H         1 UNK         0.0600 
    233 H233       -3.5963  -22.8919  -57.2736 H         1 UNK         0.0600 
    234 H234       -2.6772  -22.0829  -56.0066 H         1 UNK         0.0600 
    235 H235       -4.5324  -18.9262  -57.6894 H         1 UNK         0.3000 
    236 H236       -4.2361  -17.1663  -55.3727 H         1 UNK         0.0600 
    237 H237       -4.2358  -16.5907  -58.3841 H         1 UNK         0.0600 
    238 H238       -5.6281  -16.4888  -57.3068 H         1 UNK         0.0600 
    239 H239       -4.2811  -15.3800  -57.1077 H         1 UNK         0.0600 
    240 H240       -2.1742  -18.4911  -57.9288 H         1 UNK         0.3000 
    241 H241       -0.0257  -18.5173  -58.3694 H         1 UNK         0.0600 
    242 H242       -0.0654  -14.6997  -58.8321 H         1 UNK         0.3800 
    243 H243       -1.4286  -15.7622  -58.6000 H         1 UNK         0.3800 
    244 H244        0.4787  -17.8570  -55.4302 H         1 UNK         0.0800 
    245 H245        1.6749  -18.4559  -56.5429 H         1 UNK         0.0800 
    246 H246       -1.3897  -19.2389  -54.4098 H         1 UNK         0.0800 
    247 H247       -1.2596  -20.9683  -54.2134 H         1 UNK         0.0800 
@<TRIPOS>BOND
     1    1    2 1    
     2    1  127 1    
     3    1  128 1    
     4    1  129 1    
     5    2    3 2    
     6    2    4 am   BACKBONE|DICT|INTERRES
     7    4    5 1    
     8    4  130 1    
     9    5    6 1    
    10    5   65 1    
    11    5  131 1    
    12    6    7 1    
    13    6  132 1    
    14    6  133 1    
    15    7    8 1    
    16    8    9 1    
    17    8  134 1    
    18    8  135 1    
    19    9   10 ar   
    20    9   14 ar   
    21   10   11 ar   
    22   10  136 1    
    23   11   12 ar   
    24   11  126 1    
    25   12   13 ar   
    26   12  137 1    
    27   13   14 ar   
    28   13   15 1    
    29   14  138 1    
    30   15   16 1    
    31   15  139 1    
    32   15  140 1    
    33   16   17 1    
    34   17   18 1    
    35   17  141 1    
    36   17  142 1    
    37   18   19 1    
    38   18   67 1    
    39   18  143 1    
    40   19   20 am   BACKBONE|DICT|INTERRES
    41   19  144 1    
    42   20   21 2    
    43   20   22 1    
    44   22   23 1    
    45   22   24 1    
    46   22  145 1    
    47   23  146 1    
    48   23  147 1    
    49   23  148 1    
    50   24   25 am   BACKBONE|DICT|INTERRES
    51   24  149 1    
    52   25   26 2    
    53   25   27 1    
    54   27   28 1    
    55   27   29 1    
    56   27  150 1    
    57   28  151 1    
    58   28  152 1    
    59   28  153 1    
    60   29   30 am   BACKBONE|DICT|INTERRES
    61   29  154 1    
    62   30   31 2    
    63   30   32 1    
    64   32   33 1    
    65   32   34 1    
    66   32  155 1    
    67   33  156 1    
    68   33  157 1    
    69   33  158 1    
    70   34   35 am   BACKBONE|DICT|INTERRES
    71   34  159 1    
    72   35   36 2    
    73   35   37 1    
    74   37   38 1    
    75   37   39 1    
    76   37  160 1    
    77   38  161 1    
    78   38  162 1    
    79   38  163 1    
    80   39   40 am   BACKBONE|DICT|INTERRES
    81   39  164 1    
    82   40   41 2    
    83   40   42 1    
    84   42   43 1    
    85   42   44 1    
    86   42  165 1    
    87   43  166 1    
    88   43  167 1    
    89   43  168 1    
    90   44   45 am   BACKBONE|DICT|INTERRES
    91   44  169 1    
    92   45   46 2    
    93   45   47 1    
    94   47   48 1    
    95   47   49 1    
    96   47  170 1    
    97   48  171 1    
    98   48  172 1    
    99   48  173 1    
   100   49   50 am   BACKBONE|DICT|INTERRES
   101   49  174 1    
   102   50   51 2    
   103   50   52 1    
   104   52   53 1    
   105   52   54 1    
   106   52  175 1    
   107   53  176 1    
   108   53  177 1    
   109   53  178 1    
   110   54   55 am   BACKBONE|DICT|INTERRES
   111   54  179 1    
   112   55   56 2    
   113   55   57 1    
   114   57   58 1    
   115   57   59 1    
   116   57  180 1    
   117   58  181 1    
   118   58  182 1    
   119   58  183 1    
   120   59   60 am   BACKBONE|DICT|INTERRES
   121   59  184 1    
   122   60   61 2    
   123   60   62 1    
   124   62   63 1    
   125   62   64 1    
   126   62  185 1    
   127   63  186 1    
   128   63  187 1    
   129   63  188 1    
   130   64   65 am   BACKBONE|DICT|INTERRES
   131   64  189 1    
   132   65   66 2    
   133   67   68 2    
   134   67   69 am   BACKBONE|DICT|INTERRES
   135   69   70 1    
   136   69  190 1    
   137   70   71 1    
   138   70   72 1    
   139   70  191 1    
   140   71  192 1    
   141   71  193 1    
   142   71  194 1    
   143   72   73 2    
   144   72   74 am   BACKBONE|DICT|INTERRES
   145   74   75 1    
   146   74  195 1    
   147   75   76 1    
   148   75   77 1    
   149   75  196 1    
   150   76  197 1    
   151   76  198 1    
   152   76  199 1    
   153   77   78 2    
   154   77   79 am   BACKBONE|DICT|INTERRES
   155   79   80 1    
   156   79  200 1    
   157   80   81 1    
   158   80   82 1    
   159   80  201 1    
   160   81  202 1    
   161   81  203 1    
   162   81  204 1    
   163   82   83 2    
   164   82   84 am   BACKBONE|DICT|INTERRES
   165   84   85 1    
   166   84  205 1    
   167   85   86 1    
   168   85   87 1    
   169   85  206 1    
   170   86  207 1    
   171   86  208 1    
   172   86  209 1    
   173   87   88 2    
   174   87   89 am   BACKBONE|DICT|INTERRES
   175   89   90 1    
   176   89  210 1    
   177   90   91 1    
   178   90   92 1    
   179   90  211 1    
   180   91  212 1    
   181   91  213 1    
   182   91  214 1    
   183   92   93 2    
   184   92   94 am   BACKBONE|DICT|INTERRES
   185   94   95 1    
   186   94  215 1    
   187   95   96 1    
   188   95   97 1    
   189   95  216 1    
   190   96  217 1    
   191   96  218 1    
   192   96  219 1    
   193   97   98 2    
   194   97   99 am   BACKBONE|DICT|INTERRES
   195   99  100 1    
   196   99  220 1    
   197  100  101 1    
   198  100  102 1    
   199  100  221 1    
   200  101  222 1    
   201  101  223 1    
   202  101  224 1    
   203  102  103 2    
   204  102  104 am   BACKBONE|DICT|INTERRES
   205  104  105 1    
   206  104  225 1    
   207  105  106 1    
   208  105  107 1    
   209  105  226 1    
   210  106  227 1    
   211  106  228 1    
   212  106  229 1    
   213  107  108 2    
   214  107  109 am   BACKBONE|DICT|INTERRES
   215  109  110 1    
   216  109  230 1    
   217  110  111 1    
   218  110  112 1    
   219  110  231 1    
   220  111  232 1    
   221  111  233 1    
   222  111  234 1    
   223  112  113 2    
   224  112  114 am   BACKBONE|DICT|INTERRES
   225  114  115 1    
   226  114  235 1    
   227  115  116 1    
   228  115  117 1    
   229  115  236 1    
   230  116  237 1    
   231  116  238 1    
   232  116  239 1    
   233  117  118 2    
   234  117  119 am   BACKBONE|DICT|INTERRES
   235  119  120 1    
   236  119  240 1    
   237  120  121 1    
   238  120  124 1    
   239  120  241 1    
   240  121  122 am   BACKBONE|DICT|INTERRES
   241  121  123 2    
   242  122  242 1    
   243  122  243 1    
   244  124  125 1    
   245  124  244 1    
   246  124  245 1    
   247  125  126 1    
   248  126  246 1    
   249  126  247 1    
@<TRIPOS>SUBSTRUCTURE
     1 UNK         1 GROUP             0       ****    0 ROOT    
