@<TRIPOS>MOLECULE
3R540
247   249    1
SMALL
USER_CHARGES


@<TRIPOS>ATOM
      1 CA          1.8959  -12.6836  -43.4210 C.3       0 UNK        -0.1800 
      2 C           0.3856  -12.5276  -43.3231 C.2       0 UNK         0.5000 
      3 O          -0.0959  -11.5593  -42.7353 O.2       0 UNK        -0.5000 
      4 N          -0.3610  -13.4865  -43.8858 N.am      1 UNK        -0.5000 
      5 CA         -1.8288  -13.5232  -43.8723 C.3       1 UNK         0.1400 
      6 C6         -2.3412  -14.9520  -44.1784 C.3       23 UNK        -0.0398 
      7 S7         -4.0424  -15.2610  -43.5910 S.3       23 UNK        -0.2404 
      8 C8         -5.0179  -15.1216  -45.1259 C.3       23 UNK        -0.0205 
      9 C9         -4.6354  -16.1809  -46.1481 C.ar      23 UNK        -0.0193 
     10 C10        -3.9539  -15.8257  -47.3141 C.ar      23 UNK        -0.1150 
     11 C11        -3.5866  -16.7998  -48.2459 C.ar      23 UNK        -0.0193 
     12 C12        -3.8960  -18.1410  -48.0003 C.ar      23 UNK        -0.1150 
     13 C13        -4.5838  -18.5099  -46.8389 C.ar      23 UNK        -0.0193 
     14 C14        -4.9629  -17.5194  -45.9261 C.ar      23 UNK        -0.1150 
     15 C15        -4.9438  -19.9719  -46.5985 C.3       23 UNK        -0.0205 
     16 S16        -4.7111  -20.5118  -44.8691 S.3       23 UNK        -0.2404 
     17 C17        -2.8910  -20.5976  -44.7421 C.3       23 UNK        -0.0398 
     18 CA         -2.3480  -21.9787  -45.1803 C.3       11 UNK         0.1400 
     19 N          -0.9939  -21.9012  -45.7349 N.am      11 UNK        -0.5000 
     20 C          -0.3888  -22.8690  -46.4382 C.2       10 UNK         0.5000 
     21 O          -0.9237  -23.9472  -46.7043 O.2       10 UNK        -0.5000 
     22 CA          1.0671  -22.6146  -46.8684 C.3       10 UNK         0.1400 
     23 CB          1.1092  -21.9298  -48.2434 C.3       10 UNK        -0.1800 
     24 N           1.8211  -21.8210  -45.8925 N.am      10 UNK        -0.5000 
     25 C           2.0702  -22.2038  -44.6302 C.2       9 UNK         0.5000 
     26 O           1.7184  -23.2884  -44.1678 O.2       9 UNK        -0.5000 
     27 CA          2.7773  -21.1891  -43.7130 C.3       9 UNK         0.1400 
     28 CB          4.2870  -21.1504  -43.9920 C.3       9 UNK        -0.1800 
     29 N           2.2177  -19.8430  -43.8327 N.am      9 UNK        -0.5000 
     30 C           0.9631  -19.5034  -43.5009 C.2       8 UNK         0.5000 
     31 O           0.1505  -20.2773  -42.9947 O.2       8 UNK        -0.5000 
     32 CA          0.5265  -18.0684  -43.8478 C.3       8 UNK         0.1400 
     33 CB          0.9897  -17.0725  -42.7727 C.3       8 UNK        -0.1800 
     34 N           1.0231  -17.6512  -45.1600 N.am      8 UNK        -0.5000 
     35 C           0.6309  -18.1991  -46.3196 C.2       7 UNK         0.5000 
     36 O          -0.2332  -19.0699  -46.4084 O.2       7 UNK        -0.5000 
     37 CA          1.3650  -17.7302  -47.5849 C.3       7 UNK         0.1400 
     38 CB          0.7461  -16.4317  -48.1189 C.3       7 UNK        -0.1800 
     39 N           2.7972  -17.5418  -47.3516 N.am      7 UNK        -0.5000 
     40 C           3.6622  -18.5530  -47.1764 C.2       6 UNK         0.5000 
     41 O           3.3360  -19.7377  -47.2252 O.2       6 UNK        -0.5000 
     42 CA          5.1261  -18.1943  -46.8502 C.3       6 UNK         0.1400 
     43 CB          5.9399  -18.0421  -48.1435 C.3       6 UNK        -0.1800 
     44 N           5.2628  -16.9760  -46.0531 N.am      6 UNK        -0.5000 
     45 C           4.7300  -16.7830  -44.8387 C.2       5 UNK         0.5000 
     46 O           4.1389  -17.6603  -44.2093 O.2       5 UNK        -0.5000 
     47 CA          4.8120  -15.3561  -44.2573 C.3       5 UNK         0.1400 
     48 CB          5.9647  -15.2545  -43.2482 C.3       5 UNK        -0.1800 
     49 N           4.9565  -14.2919  -45.2617 N.am      5 UNK        -0.5000 
     50 C           4.1136  -14.0579  -46.2780 C.2       4 UNK         0.5000 
     51 O           3.1152  -14.7474  -46.5013 O.2       4 UNK        -0.5000 
     52 CA          4.4938  -12.9047  -47.2291 C.3       4 UNK         0.1400 
     53 CB          5.7070  -13.3001  -48.0875 C.3       4 UNK        -0.1800 
     54 N           3.3991  -12.5323  -48.1271 N.am      4 UNK        -0.5000 
     55 C           2.2497  -11.9615  -47.7468 C.2       3 UNK         0.5000 
     56 O           2.0281  -11.5965  -46.5896 O.2       3 UNK        -0.5000 
     57 CA          1.1693  -11.7694  -48.8344 C.3       3 UNK         0.1400 
     58 CB          1.2662  -12.7923  -49.9843 C.3       3 UNK        -0.1800 
     59 N          -0.1574  -11.8756  -48.2319 N.am      3 UNK        -0.5000 
     60 C          -0.8806  -10.8475  -47.7688 C.2       2 UNK         0.5000 
     61 O          -0.5805   -9.6622  -47.9163 O.2       2 UNK        -0.5000 
     62 CA         -2.1264  -11.2256  -46.9600 C.3       2 UNK         0.1400 
     63 CB         -3.2401  -11.7805  -47.8696 C.3       2 UNK        -0.1800 
     64 N          -1.7475  -12.2008  -45.9393 N.am      2 UNK        -0.5000 
     65 C          -2.4445  -12.4788  -44.8318 C.2       1 UNK         0.5000 
     66 O          -3.5164  -11.9424  -44.5485 O.2       1 UNK        -0.5000 
     67 C          -2.5384  -23.0812  -44.1081 C.2       11 UNK         0.5000 
     68 O          -3.6800  -23.4487  -43.8294 O.2       11 UNK        -0.5000 
     69 N          -1.4493  -23.6835  -43.6024 N.am      12 UNK        -0.5000 
     70 CA         -1.4915  -24.9239  -42.8163 C.3       12 UNK         0.1400 
     71 CB         -0.0881  -25.2400  -42.2802 C.3       12 UNK        -0.1800 
     72 C          -2.0506  -26.1292  -43.6087 C.2       12 UNK         0.5000 
     73 O          -2.6007  -27.0482  -43.0014 O.2       12 UNK        -0.5000 
     74 N          -1.9366  -26.0816  -44.9437 N.am      13 UNK        -0.5000 
     75 CA         -2.5449  -27.0096  -45.8979 C.3       13 UNK         0.1400 
     76 CB         -1.4256  -27.6507  -46.7373 C.3       13 UNK        -0.1800 
     77 C          -3.5792  -26.2743  -46.7789 C.2       13 UNK         0.5000 
     78 O          -3.7732  -26.6423  -47.9400 O.2       13 UNK        -0.5000 
     79 N          -4.1865  -25.2045  -46.2351 N.am      14 UNK        -0.5000 
     80 CA         -5.1587  -24.2958  -46.8638 C.3       14 UNK         0.1400 
     81 CB         -6.4826  -25.0364  -47.1421 C.3       14 UNK        -0.1800 
     82 C          -4.6321  -23.5740  -48.1243 C.2       14 UNK         0.5000 
     83 O          -5.4287  -23.0618  -48.9121 O.2       14 UNK        -0.5000 
     84 N          -3.3048  -23.5815  -48.3224 N.am      15 UNK        -0.5000 
     85 CA         -2.5795  -23.1459  -49.5157 C.3       15 UNK         0.1400 
     86 CB         -2.5805  -21.6078  -49.6190 C.3       15 UNK        -0.1800 
     87 C          -3.0758  -23.8528  -50.7924 C.2       15 UNK         0.5000 
     88 O          -3.1604  -23.2215  -51.8456 O.2       15 UNK        -0.5000 
     89 N          -3.4393  -25.1395  -50.6632 N.am      16 UNK        -0.5000 
     90 CA         -4.0700  -25.9760  -51.6916 C.3       16 UNK         0.1400 
     91 CB         -3.0825  -26.2606  -52.8434 C.3       16 UNK        -0.1800 
     92 C          -5.4223  -25.4003  -52.1726 C.2       16 UNK         0.5000 
     93 O          -5.7260  -25.4480  -53.3647 O.2       16 UNK        -0.5000 
     94 N          -6.1906  -24.8472  -51.2208 N.am      17 UNK        -0.5000 
     95 CA         -7.4265  -24.0777  -51.3984 C.3       17 UNK         0.1400 
     96 CB         -8.5432  -24.9329  -52.0342 C.3       17 UNK        -0.1800 
     97 C          -7.1639  -22.7477  -52.1352 C.2       17 UNK         0.5000 
     98 O          -7.8579  -22.4242  -53.1008 O.2       17 UNK        -0.5000 
     99 N          -6.1503  -22.0129  -51.6505 N.am      18 UNK        -0.5000 
    100 CA        -5.6379  -20.7390  -52.1714 C.3       18 UNK         0.1400 
    101 CB        -6.6371  -19.5976  -51.8961 C.3       18 UNK        -0.1800 
    102 C         -5.2018  -20.8262  -53.6499 C.2       18 UNK         0.5000 
    103 O         -5.6356  -20.0244  -54.4798 O.2       18 UNK        -0.5000 
    104 N         -4.3564  -21.8190  -53.9461 N.am      19 UNK        -0.5000 
    105 CA        -3.7686  -22.0656  -55.2625 C.3       19 UNK         0.1400 
    106 CB        -4.2914  -23.4021  -55.8095 C.3       19 UNK        -0.1800 
    107 C         -2.2317  -22.0687  -55.2021 C.2       19 UNK         0.5000 
    108 O         -1.5929  -21.6433  -56.1651 O.2       19 UNK        -0.5000 
    109 N         -1.6572  -22.5247  -54.0792 N.am      20 UNK        -0.5000 
    110 CA        -0.2144  -22.5252  -53.8241 C.3       20 UNK         0.1400 
    111 CB         0.1082  -23.5747  -52.7487 C.3       20 UNK        -0.1800 
    112 C          0.3030  -21.1410  -53.3901 C.2       20 UNK         0.5000 
    113 O          1.4898  -20.8577  -53.5571 O.2       20 UNK        -0.5000 
    114 N         -0.5926  -20.3068  -52.8516 N.am      21 UNK        -0.5000 
    115 CA        -0.3509  -18.9241  -52.4672 C.3       21 UNK         0.1400 
    116 CB         0.1119  -18.8586  -51.0020 C.3       21 UNK        -0.1800 
    117 C         -1.6539  -18.1422  -52.6742 C.2       21 UNK         0.5000 
    118 O         -2.7319  -18.7205  -52.5169 O.2       21 UNK        -0.5000 
    119 N         -1.5105  -16.8596  -53.0301 N.am      22 UNK        -0.5000 
    120 CA        -2.5246  -15.8111  -53.2811 C.3       22 UNK         0.1400 
    121 C         -3.7234  -16.1139  -54.2348 C.2       22 UNK         0.5000 
    122 N         -4.0022  -17.3562  -54.5912 N.am      22 UNK        -0.7600 
    123 O         -4.3884  -15.1885  -54.6931 O.2       22 UNK        -0.5000 
    124 C124       -2.9568  -15.0601  -51.9926 C.3       23 UNK        -0.0398 
    125 S125       -4.0279  -15.9982  -50.8469 S.3       23 UNK        -0.2404 
    126 C126       -2.8572  -16.3926  -49.5142 C.3       23 UNK        -0.0205 
    127 H127        2.1674  -13.5054  -44.0819 H         1 UNK         0.0600 
    128 H128        2.3208  -12.8795  -42.4368 H         1 UNK         0.0600 
    129 H129        2.3453  -11.7718  -43.8144 H         1 UNK         0.0600 
    130 H130        0.0986  -14.2512  -44.3576 H         1 UNK         0.3000 
    131 H131       -2.1480  -13.2607  -42.8610 H         1 UNK         0.0600 
    132 H132       -2.2370  -15.1924  -45.2364 H         1 UNK         0.0800 
    133 H133       -1.7184  -15.6800  -43.6577 H         1 UNK         0.0800 
    134 H134       -6.0754  -15.2286  -44.8807 H         1 UNK         0.0800 
    135 H135       -4.9041  -14.1202  -45.5427 H         1 UNK         0.0800 
    136 H136       -3.7103  -14.7895  -47.4985 H         1 UNK         0.1150 
    137 H137       -3.6118  -18.8927  -48.7229 H         1 UNK         0.1150 
    138 H138       -5.5026  -17.7883  -45.0291 H         1 UNK         0.1150 
    139 H139       -5.9899  -20.1162  -46.8706 H         1 UNK         0.0800 
    140 H140       -4.3637  -20.6222  -47.2542 H         1 UNK         0.0800 
    141 H141       -2.5857  -20.3591  -43.7220 H         1 UNK         0.0800 
    142 H142       -2.4801  -19.8053  -45.3676 H         1 UNK         0.0800 
    143 H143       -2.9637  -22.2952  -46.0199 H         1 UNK         0.0600 
    144 H144       -0.5024  -21.0241  -45.6043 H         1 UNK         0.3000 
    145 H145        1.5582  -23.5857  -46.9560 H         1 UNK         0.0600 
    146 H146        2.1354  -21.7870  -48.5819 H         1 UNK         0.0600 
    147 H147        0.6052  -22.5326  -48.9987 H         1 UNK         0.0600 
    148 H148        0.6239  -20.9538  -48.2246 H         1 UNK         0.0600 
    149 H149        2.1980  -20.9375  -46.2239 H         1 UNK         0.3000 
    150 H150        2.6330  -21.5166  -42.6813 H         1 UNK         0.0600 
    151 H151        4.5015  -20.8416  -45.0145 H         1 UNK         0.0600 
    152 H152        4.7345  -22.1343  -43.8467 H         1 UNK         0.0600 
    153 H153        4.7951  -20.4583  -43.3201 H         1 UNK         0.0600 
    154 H154        2.8379  -19.1203  -44.1858 H         1 UNK         0.3000 
    155 H155       -0.5652  -18.0505  -43.8801 H         1 UNK         0.0600 
    156 H156        0.5710  -17.3325  -41.7997 H         1 UNK         0.0600 
    157 H157        0.6673  -16.0582  -43.0025 H         1 UNK         0.0600 
    158 H158        2.0743  -17.0615  -42.6665 H         1 UNK         0.0600 
    159 H159        1.7765  -16.9795  -45.1763 H         1 UNK         0.3000 
    160 H160        1.2409  -18.5028  -48.3458 H         1 UNK         0.0600 
    161 H161        0.8239  -15.6143  -47.4021 H         1 UNK         0.0600 
    162 H162       -0.3113  -16.5748  -48.3331 H         1 UNK         0.0600 
    163 H163        1.2300  -16.1199  -49.0438 H         1 UNK         0.0600 
    164 H164        3.1141  -16.5844  -47.2338 H         1 UNK         0.3000 
    165 H165        5.5495  -19.0182  -46.2729 H         1 UNK         0.0600 
    166 H166        6.9949  -17.8711  -47.9285 H         1 UNK         0.0600 
    167 H167        5.8760  -18.9444  -48.7533 H         1 UNK         0.0600 
    168 H168        5.5806  -17.2095  -48.7498 H         1 UNK         0.0600 
    169 H169        5.7306  -16.1982  -46.4931 H         1 UNK         0.3000 
    170 H170        3.8774  -15.1790  -43.7224 H         1 UNK         0.0600 
    171 H171        5.8742  -16.0165  -42.4727 H         1 UNK         0.0600 
    172 H172        6.9338  -15.3896  -43.7300 H         1 UNK         0.0600 
    173 H173        5.9683  -14.2853  -42.7491 H         1 UNK         0.0600 
    174 H174        5.7622  -13.6923  -45.1549 H         1 UNK         0.3000 
    175 H175        4.7539  -12.0340  -46.6239 H         1 UNK         0.0600 
    176 H176        5.4976  -14.1782  -48.7002 H         1 UNK         0.0600 
    177 H177        5.9982  -12.4886  -48.7549 H         1 UNK         0.0600 
    178 H178        6.5749  -13.5309  -47.4687 H         1 UNK         0.0600 
    179 H179        3.4909  -12.8295  -49.0868 H         1 UNK         0.3000 
    180 H180        1.3079  -10.7723  -49.2570 H         1 UNK         0.0600 
    181 H181        1.2450  -13.8175  -49.6154 H         1 UNK         0.0600 
    182 H182        2.1828  -12.6615  -50.5603 H         1 UNK         0.0600 
    183 H183        0.4371  -12.6750  -50.6825 H         1 UNK         0.0600 
    184 H184       -0.4929  -12.8132  -48.0734 H         1 UNK         0.3000 
    185 H185       -2.4903  -10.3221  -46.4658 H         1 UNK         0.0600 
    186 H186       -2.9301  -12.6914  -48.3823 H         1 UNK         0.0600 
    187 H187       -4.1427  -12.0073  -47.3022 H         1 UNK         0.0600 
    188 H188       -3.5143  -11.0525  -48.6339 H         1 UNK         0.0600 
    189 H189       -0.8226  -12.5969  -46.0314 H         1 UNK         0.3000 
    190 H190       -0.5312  -23.3500  -43.8708 H         1 UNK         0.3000 
    191 H191       -2.1515  -24.7546  -41.9631 H         1 UNK         0.0600 
    192 H192        0.6064  -25.4737  -43.0878 H         1 UNK         0.0600 
    193 H193        0.3203  -24.4007  -41.7168 H         1 UNK         0.0600 
    194 H194       -0.1120  -26.1012  -41.6113 H         1 UNK         0.0600 
    195 H195       -1.4653  -25.2854  -45.3632 H         1 UNK         0.3000 
    196 H196       -3.0818  -27.8036  -45.3758 H         1 UNK         0.0600 
    197 H197       -0.7000  -28.1585  -46.1018 H         1 UNK         0.0600 
    198 H198       -0.8904  -26.9049  -47.3268 H         1 UNK         0.0600 
    199 H199       -1.8258  -28.3940  -47.4280 H         1 UNK         0.0600 
    200 H200       -3.9530  -24.9694  -45.2769 H         1 UNK         0.3000 
    201 H201       -5.3641  -23.5124  -46.1330 H         1 UNK         0.0600 
    202 H202       -7.2578  -24.3457  -47.4762 H         1 UNK         0.0600 
    203 H203       -6.8554  -25.5263  -46.2427 H         1 UNK         0.0600 
    204 H204       -6.3681  -25.7971  -47.9149 H         1 UNK         0.0600 
    205 H205       -2.7204  -24.0200  -47.6191 H         1 UNK         0.3000 
    206 H206       -1.5470  -23.4697  -49.3871 H         1 UNK         0.0600 
    207 H207       -2.1270  -21.1561  -48.7364 H         1 UNK         0.0600 
    208 H208       -3.5897  -21.2099  -49.7133 H         1 UNK         0.0600 
    209 H209       -2.0100  -21.2694  -50.4836 H         1 UNK         0.0600 
    210 H210       -3.3646  -25.5683  -49.7462 H         1 UNK         0.3000 
    211 H211       -4.3002  -26.9286  -51.2124 H         1 UNK         0.0600 
    212 H212       -2.1555  -26.6933  -52.4675 H         1 UNK         0.0600 
    213 H213       -3.5053  -26.9705  -53.5551 H         1 UNK         0.0600 
    214 H214       -2.8274  -25.3573  -53.3967 H         1 UNK         0.0600 
    215 H215       -5.8116  -24.8148  -50.2843 H         1 UNK         0.3000 
    216 H216       -7.7604  -23.8070  -50.3955 H         1 UNK         0.0600 
    217 H217       -9.4917  -24.3948  -52.0300 H         1 UNK         0.0600 
    218 H218       -8.3232  -25.1918  -53.0699 H         1 UNK         0.0600 
    219 H219       -8.6935  -25.8596  -51.4805 H         1 UNK         0.0600 
    220 H220       -5.6728  -22.3728  -50.8306 H         1 UNK         0.3000 
    221 H221       -4.7322  -20.5151  -51.6080 H         1 UNK         0.0600 
    222 H222       -7.5693  -19.7325  -52.4453 H         1 UNK         0.0600 
    223 H223       -6.8767  -19.5325  -50.8348 H         1 UNK         0.0600 
    224 H224       -6.2161  -18.6353  -52.1917 H         1 UNK         0.0600 
    225 H225       -4.0525  -22.4265  -53.1885 H         1 UNK         0.3000 
    226 H226       -4.0576  -21.2777  -55.9610 H         1 UNK         0.0600 
    227 H227       -5.3792  -23.3982  -55.8822 H         1 UNK         0.0600 
    228 H228       -3.8969  -23.5982  -56.8071 H         1 UNK         0.0600 
    229 H229       -4.0046  -24.2381  -55.1718 H         1 UNK         0.0600 
    230 H230       -2.2433  -22.8523  -53.3151 H         1 UNK         0.3000 
    231 H231        0.3058  -22.8072  -54.7419 H         1 UNK         0.0600 
    232 H232        1.1862  -23.6776  -52.6191 H         1 UNK         0.0600 
    233 H233       -0.2821  -24.5557  -53.0202 H         1 UNK         0.0600 
    234 H234       -0.3095  -23.3007  -51.7801 H         1 UNK         0.0600 
    235 H235       -1.5618  -20.5912  -52.7953 H         1 UNK         0.3000 
    236 H236        0.4205  -18.4973  -53.1119 H         1 UNK         0.0600 
    237 H237        1.0232  -19.4367  -50.8478 H         1 UNK         0.0600 
    238 H238        0.3261  -17.8301  -50.7120 H         1 UNK         0.0600 
    239 H239       -0.6467  -19.2420  -50.3190 H         1 UNK         0.0600 
    240 H240       -0.5635  -16.5333  -53.1577 H         1 UNK         0.3000 
    241 H241       -1.9538  -15.0789  -53.8540 H         1 UNK         0.0600 
    242 H242       -4.7816  -17.5540  -55.1981 H         1 UNK         0.3800 
    243 H243       -3.5534  -18.1099  -54.0818 H         1 UNK         0.3800 
    244 H244       -2.0695  -14.7125  -51.4629 H         1 UNK         0.0800 
    245 H245       -3.4941  -14.1494  -52.2625 H         1 UNK         0.0800 
    246 H246       -2.2300  -15.5248  -49.3065 H         1 UNK         0.0800 
    247 H247       -2.1917  -17.1914  -49.8420 H         1 UNK         0.0800 
@<TRIPOS>BOND
     1    1    2 1    
     2    1  127 1    
     3    1  128 1    
     4    1  129 1    
     5    2    3 2    
     6    2    4 am   BACKBONE|DICT|INTERRES
     7    4    5 1    
     8    4  130 1    
     9    5    6 1    
    10    5   65 1    
    11    5  131 1    
    12    6    7 1    
    13    6  132 1    
    14    6  133 1    
    15    7    8 1    
    16    8    9 1    
    17    8  134 1    
    18    8  135 1    
    19    9   10 ar   
    20    9   14 ar   
    21   10   11 ar   
    22   10  136 1    
    23   11   12 ar   
    24   11  126 1    
    25   12   13 ar   
    26   12  137 1    
    27   13   14 ar   
    28   13   15 1    
    29   14  138 1    
    30   15   16 1    
    31   15  139 1    
    32   15  140 1    
    33   16   17 1    
    34   17   18 1    
    35   17  141 1    
    36   17  142 1    
    37   18   19 1    
    38   18   67 1    
    39   18  143 1    
    40   19   20 am   BACKBONE|DICT|INTERRES
    41   19  144 1    
    42   20   21 2    
    43   20   22 1    
    44   22   23 1    
    45   22   24 1    
    46   22  145 1    
    47   23  146 1    
    48   23  147 1    
    49   23  148 1    
    50   24   25 am   BACKBONE|DICT|INTERRES
    51   24  149 1    
    52   25   26 2    
    53   25   27 1    
    54   27   28 1    
    55   27   29 1    
    56   27  150 1    
    57   28  151 1    
    58   28  152 1    
    59   28  153 1    
    60   29   30 am   BACKBONE|DICT|INTERRES
    61   29  154 1    
    62   30   31 2    
    63   30   32 1    
    64   32   33 1    
    65   32   34 1    
    66   32  155 1    
    67   33  156 1    
    68   33  157 1    
    69   33  158 1    
    70   34   35 am   BACKBONE|DICT|INTERRES
    71   34  159 1    
    72   35   36 2    
    73   35   37 1    
    74   37   38 1    
    75   37   39 1    
    76   37  160 1    
    77   38  161 1    
    78   38  162 1    
    79   38  163 1    
    80   39   40 am   BACKBONE|DICT|INTERRES
    81   39  164 1    
    82   40   41 2    
    83   40   42 1    
    84   42   43 1    
    85   42   44 1    
    86   42  165 1    
    87   43  166 1    
    88   43  167 1    
    89   43  168 1    
    90   44   45 am   BACKBONE|DICT|INTERRES
    91   44  169 1    
    92   45   46 2    
    93   45   47 1    
    94   47   48 1    
    95   47   49 1    
    96   47  170 1    
    97   48  171 1    
    98   48  172 1    
    99   48  173 1    
   100   49   50 am   BACKBONE|DICT|INTERRES
   101   49  174 1    
   102   50   51 2    
   103   50   52 1    
   104   52   53 1    
   105   52   54 1    
   106   52  175 1    
   107   53  176 1    
   108   53  177 1    
   109   53  178 1    
   110   54   55 am   BACKBONE|DICT|INTERRES
   111   54  179 1    
   112   55   56 2    
   113   55   57 1    
   114   57   58 1    
   115   57   59 1    
   116   57  180 1    
   117   58  181 1    
   118   58  182 1    
   119   58  183 1    
   120   59   60 am   BACKBONE|DICT|INTERRES
   121   59  184 1    
   122   60   61 2    
   123   60   62 1    
   124   62   63 1    
   125   62   64 1    
   126   62  185 1    
   127   63  186 1    
   128   63  187 1    
   129   63  188 1    
   130   64   65 am   BACKBONE|DICT|INTERRES
   131   64  189 1    
   132   65   66 2    
   133   67   68 2    
   134   67   69 am   BACKBONE|DICT|INTERRES
   135   69   70 1    
   136   69  190 1    
   137   70   71 1    
   138   70   72 1    
   139   70  191 1    
   140   71  192 1    
   141   71  193 1    
   142   71  194 1    
   143   72   73 2    
   144   72   74 am   BACKBONE|DICT|INTERRES
   145   74   75 1    
   146   74  195 1    
   147   75   76 1    
   148   75   77 1    
   149   75  196 1    
   150   76  197 1    
   151   76  198 1    
   152   76  199 1    
   153   77   78 2    
   154   77   79 am   BACKBONE|DICT|INTERRES
   155   79   80 1    
   156   79  200 1    
   157   80   81 1    
   158   80   82 1    
   159   80  201 1    
   160   81  202 1    
   161   81  203 1    
   162   81  204 1    
   163   82   83 2    
   164   82   84 am   BACKBONE|DICT|INTERRES
   165   84   85 1    
   166   84  205 1    
   167   85   86 1    
   168   85   87 1    
   169   85  206 1    
   170   86  207 1    
   171   86  208 1    
   172   86  209 1    
   173   87   88 2    
   174   87   89 am   BACKBONE|DICT|INTERRES
   175   89   90 1    
   176   89  210 1    
   177   90   91 1    
   178   90   92 1    
   179   90  211 1    
   180   91  212 1    
   181   91  213 1    
   182   91  214 1    
   183   92   93 2    
   184   92   94 am   BACKBONE|DICT|INTERRES
   185   94   95 1    
   186   94  215 1    
   187   95   96 1    
   188   95   97 1    
   189   95  216 1    
   190   96  217 1    
   191   96  218 1    
   192   96  219 1    
   193   97   98 2    
   194   97   99 am   BACKBONE|DICT|INTERRES
   195   99  100 1    
   196   99  220 1    
   197  100  101 1    
   198  100  102 1    
   199  100  221 1    
   200  101  222 1    
   201  101  223 1    
   202  101  224 1    
   203  102  103 2    
   204  102  104 am   BACKBONE|DICT|INTERRES
   205  104  105 1    
   206  104  225 1    
   207  105  106 1    
   208  105  107 1    
   209  105  226 1    
   210  106  227 1    
   211  106  228 1    
   212  106  229 1    
   213  107  108 2    
   214  107  109 am   BACKBONE|DICT|INTERRES
   215  109  110 1    
   216  109  230 1    
   217  110  111 1    
   218  110  112 1    
   219  110  231 1    
   220  111  232 1    
   221  111  233 1    
   222  111  234 1    
   223  112  113 2    
   224  112  114 am   BACKBONE|DICT|INTERRES
   225  114  115 1    
   226  114  235 1    
   227  115  116 1    
   228  115  117 1    
   229  115  236 1    
   230  116  237 1    
   231  116  238 1    
   232  116  239 1    
   233  117  118 2    
   234  117  119 am   BACKBONE|DICT|INTERRES
   235  119  120 1    
   236  119  240 1    
   237  120  121 1    
   238  120  124 1    
   239  120  241 1    
   240  121  122 am   BACKBONE|DICT|INTERRES
   241  121  123 2    
   242  122  242 1    
   243  122  243 1    
   244  124  125 1    
   245  124  244 1    
   246  124  245 1    
   247  125  126 1    
   248  126  246 1    
   249  126  247 1    
@<TRIPOS>SUBSTRUCTURE
     1 UNK         1 GROUP             0       ****    0 ROOT    
