@<TRIPOS>MOLECULE
3R540
247   249    1
SMALL
USER_CHARGES


@<TRIPOS>ATOM
      1 CA         -2.9916  -15.6192  -44.2770 C.3       0 UNK        -0.1800 
      2 C          -3.1167  -14.2768  -44.9843 C.2       0 UNK         0.5000 
      3 O          -3.9870  -13.4765  -44.6406 O.2       0 UNK        -0.5000 
      4 N          -2.2551  -14.0435  -45.9798 N.am      1 UNK        -0.5000 
      5 CA         -2.1524  -12.8047  -46.7565 C.3       1 UNK         0.1400 
      6 C6         -1.5915  -13.0896  -48.1789 C.3       23 UNK        -0.0398 
      7 S7         -2.3853  -12.0811  -49.4782 S.3       23 UNK        -0.2404 
      8 C8         -4.0245  -12.8688  -49.6483 C.3       23 UNK        -0.0205 
      9 C9         -3.9350  -14.3331  -50.0525 C.ar      23 UNK        -0.0193 
     10 C10        -3.7425  -14.6853  -51.3924 C.ar      23 UNK        -0.1150 
     11 C11        -3.6421  -16.0295  -51.7637 C.ar      23 UNK        -0.0193 
     12 C12        -3.7404  -17.0201  -50.7835 C.ar      23 UNK        -0.1150 
     13 C13        -3.9280  -16.6819  -49.4426 C.ar      23 UNK        -0.0193 
     14 C14        -4.0405  -15.3369  -49.0835 C.ar      23 UNK        -0.1150 
     15 C15        -3.9939  -17.7740  -48.3887 C.3       23 UNK        -0.0205 
     16 S16        -2.3595  -18.0592  -47.6441 S.3       23 UNK        -0.2404 
     17 C17        -2.6620  -19.5802  -46.6821 C.3       23 UNK        -0.0398 
     18 CA         -1.9403  -20.8282  -47.2634 C.3       11 UNK         0.1400 
     19 N          -0.4796  -20.6812  -47.1978 N.am      11 UNK        -0.5000 
     20 C           0.4437  -21.3921  -47.8607 C.2       10 UNK         0.5000 
     21 O           0.1692  -22.2808  -48.6661 O.2       10 UNK        -0.5000 
     22 CA          1.9203  -21.0903  -47.5477 C.3       10 UNK         0.1400 
     23 CB          2.4541  -19.9628  -48.4447 C.3       10 UNK        -0.1800 
     24 N           2.1116  -20.7228  -46.1444 N.am      10 UNK        -0.5000 
     25 C           2.3109  -21.5960  -45.1475 C.2       9 UNK         0.5000 
     26 O           2.3961  -22.8130  -45.3152 O.2       9 UNK        -0.5000 
     27 CA          2.4447  -21.0228  -43.7204 C.3       9 UNK         0.1400 
     28 CB          3.9213  -20.7621  -43.3857 C.3       9 UNK        -0.1800 
     29 N           1.6899  -19.7875  -43.5111 N.am      9 UNK        -0.5000 
     30 C           0.3530  -19.6950  -43.5211 C.2       8 UNK         0.5000 
     31 O          -0.4012  -20.6618  -43.6261 O.2       8 UNK        -0.5000 
     32 CA         -0.2402  -18.2741  -43.4549 C.3       8 UNK         0.1400 
     33 CB         -0.4534  -17.8468  -41.9966 C.3       8 UNK        -0.1800 
     34 N           0.5658  -17.2646  -44.1506 N.am      8 UNK        -0.5000 
     35 C           0.9102  -17.3129  -45.4456 C.2       7 UNK         0.5000 
     36 O           0.6051  -18.2378  -46.1922 O.2       7 UNK        -0.5000 
     37 CA          1.7772  -16.1709  -45.9913 C.3       7 UNK         0.1400 
     38 CB          0.9181  -14.9439  -46.3207 C.3       7 UNK        -0.1800 
     39 N           2.8362  -15.8181  -45.0492 N.am      7 UNK        -0.5000 
     40 C           3.9906  -16.4921  -44.9455 C.2       6 UNK         0.5000 
     41 O           4.3144  -17.4131  -45.6958 O.2       6 UNK        -0.5000 
     42 CA          4.9322  -16.0942  -43.7937 C.3       6 UNK         0.1400 
     43 CB          5.9182  -15.0081  -44.2463 C.3       6 UNK        -0.1800 
     44 N           4.2151  -15.6319  -42.6053 N.am      6 UNK        -0.5000 
     45 C           3.4631  -16.4207  -41.8244 C.2       5 UNK         0.5000 
     46 O           3.3070  -17.6269  -42.0180 O.2       5 UNK        -0.5000 
     47 CA          2.7249  -15.7373  -40.6570 C.3       5 UNK         0.1400 
     48 CB          3.6168  -15.7005  -39.4074 C.3       5 UNK        -0.1800 
     49 N           2.2579  -14.3800  -40.9550 N.am      5 UNK        -0.5000 
     50 C           1.4484  -14.0377  -41.9670 C.2       4 UNK         0.5000 
     51 O           1.0285  -14.8391  -42.8022 O.2       4 UNK        -0.5000 
     52 CA          1.0462  -12.5579  -42.0959 C.3       4 UNK         0.1400 
     53 CB          1.5002  -11.6629  -40.9204 C.3       4 UNK        -0.1800 
     54 N           1.4846  -11.9983  -43.3752 N.am      4 UNK        -0.5000 
     55 C           2.7435  -11.8618  -43.8216 C.2       3 UNK         0.5000 
     56 O           3.7301  -12.2585  -43.1990 O.2       3 UNK        -0.5000 
     57 CA          2.9504  -11.1721  -45.1904 C.3       3 UNK         0.1400 
     58 CB          3.7402  -12.0712  -46.1554 C.3       3 UNK        -0.1800 
     59 N           1.6993  -10.7522  -45.8321 N.am      3 UNK        -0.5000 
     60 C           1.0135   -9.6454  -45.5101 C.2       2 UNK         0.5000 
     61 O           1.4061   -8.8222  -44.6827 O.2       2 UNK        -0.5000 
     62 CA         -0.3498   -9.4215  -46.2002 C.3       2 UNK         0.1400 
     63 CB         -0.2038   -8.4158  -47.3527 C.3       2 UNK        -0.1800 
     64 N          -1.0145  -10.6271  -46.7116 N.am      2 UNK        -0.5000 
     65 C          -1.3577  -11.7108  -46.0007 C.2       1 UNK         0.5000 
     66 O          -1.0578  -11.8575  -44.8135 O.2       1 UNK        -0.5000 
     67 C          -2.4247  -22.1385  -46.5896 C.2       11 UNK         0.5000 
     68 O          -3.2671  -22.1022  -45.6910 O.2       11 UNK        -0.5000 
     69 N          -1.8839  -23.2804  -47.0292 N.am      12 UNK        -0.5000 
     70 CA         -2.2144  -24.6215  -46.5597 C.3       12 UNK         0.1400 
     71 CB         -1.1025  -25.5886  -46.9988 C.3       12 UNK        -0.1800 
     72 C          -3.5873  -25.0599  -47.0953 C.2       12 UNK         0.5000 
     73 O          -3.6849  -25.4892  -48.2456 O.2       12 UNK        -0.5000 
     74 N          -4.6255  -24.9378  -46.2571 N.am      13 UNK        -0.5000 
     75 CA         -6.0241  -25.2427  -46.5807 C.3       13 UNK         0.1400 
     76 CB         -6.9065  -24.9217  -45.3662 C.3       13 UNK        -0.1800 
     77 C          -6.2651  -26.6851  -47.0624 C.2       13 UNK         0.5000 
     78 O          -7.0965  -26.8971  -47.9453 O.2       13 UNK        -0.5000 
     79 N          -5.4911  -27.6371  -46.5237 N.am      14 UNK        -0.5000 
     80 CA         -5.4966  -29.0503  -46.9124 C.3       14 UNK         0.1400 
     81 CB         -4.6333  -29.8393  -45.9160 C.3       14 UNK        -0.1800 
     82 C          -5.0174  -29.3056  -48.3577 C.2       14 UNK         0.5000 
     83 O          -5.3555  -30.3433  -48.9280 O.2       14 UNK        -0.5000 
     84 N          -4.2554  -28.3605  -48.9232 N.am      15 UNK        -0.5000 
     85 CA         -3.7481  -28.3817  -50.2948 C.3       15 UNK         0.1400 
     86 CB         -2.2344  -28.1063  -50.2489 C.3       15 UNK        -0.1800 
     87 C          -4.4791  -27.3615  -51.1935 C.2       15 UNK         0.5000 
     88 O          -4.0229  -27.1291  -52.3132 O.2       15 UNK        -0.5000 
     89 N          -5.5843  -26.7824  -50.6910 N.am      16 UNK        -0.5000 
     90 CA         -6.3428  -25.6452  -51.2217 C.3       16 UNK         0.1400 
     91 CB         -6.8834  -25.9108  -52.6414 C.3       16 UNK        -0.1800 
     92 C          -5.4990  -24.3614  -51.1427 C.2       16 UNK         0.5000 
     93 O          -4.6483  -24.1322  -52.0012 O.2       16 UNK        -0.5000 
     94 N          -5.7370  -23.5617  -50.0935 N.am      17 UNK        -0.5000 
     95 CA         -4.9134  -22.4254  -49.6620 C.3       17 UNK         0.1400 
     96 CB         -5.6045  -21.7231  -48.4837 C.3       17 UNK        -0.1800 
     97 C          -4.5566  -21.4014  -50.7552 C.2       17 UNK         0.5000 
     98 O          -3.4265  -20.9140  -50.7788 O.2       17 UNK        -0.5000 
     99 N          -5.5141  -21.1158  -51.6478 N.am      18 UNK        -0.5000 
    100 CA        -5.3354  -20.2225  -52.7919 C.3       18 UNK         0.1400 
    101 CB        -6.6904  -19.9803  -53.4730 C.3       18 UNK        -0.1800 
    102 C         -4.2993  -20.7510  -53.7998 C.2       18 UNK         0.5000 
    103 O         -3.4131  -20.0039  -54.2131 O.2       18 UNK        -0.5000 
    104 N         -4.4124  -22.0390  -54.1472 N.am      19 UNK        -0.5000 
    105 CA        -3.4966  -22.7326  -55.0505 C.3       19 UNK         0.1400 
    106 CB        -4.1456  -24.0392  -55.5319 C.3       19 UNK        -0.1800 
    107 C         -2.1376  -23.0102  -54.3883 C.2       19 UNK         0.5000 
    108 O         -1.1053  -22.8767  -55.0455 O.2       19 UNK        -0.5000 
    109 N         -2.1612  -23.3664  -53.0975 N.am      20 UNK        -0.5000 
    110 CA        -0.9817  -23.6474  -52.2826 C.3       20 UNK         0.1400 
    111 CB        -1.4247  -24.1632  -50.9051 C.3       20 UNK        -0.1800 
    112 C         -0.0469  -22.4320  -52.1439 C.2       20 UNK         0.5000 
    113 O          1.1684  -22.5904  -52.2718 O.2       20 UNK        -0.5000 
    114 N         -0.6261  -21.2460  -51.9121 N.am      21 UNK        -0.5000 
    115 CA         0.1244  -20.0042  -51.7581 C.3       21 UNK         0.1400 
    116 CB        -0.6504  -19.0452  -50.8478 C.3       21 UNK        -0.1800 
    117 C          0.4454  -19.3284  -53.1006 C.2       21 UNK         0.5000 
    118 O          1.5890  -18.9137  -53.2972 O.2       21 UNK        -0.5000 
    119 N         -0.5582  -19.1950  -53.9792 N.am      22 UNK        -0.5000 
    120 CA        -0.4888  -18.3441  -55.1828 C.3       22 UNK         0.1400 
    121 C         -0.4221  -19.1294  -56.5233 C.2       22 UNK         0.5000 
    122 N         -0.4240  -20.4554  -56.5361 N.am      22 UNK        -0.7600 
    123 O         -0.3417  -18.5201  -57.5868 O.2       22 UNK        -0.5000 
    124 C124       -1.6206  -17.2793  -55.2105 C.3       23 UNK        -0.0398 
    125 S125       -1.6778  -16.2538  -53.6966 S.3       23 UNK        -0.2404 
    126 C126       -3.4254  -16.4179  -53.2177 C.3       23 UNK        -0.0205 
    127 H127       -3.9623  -16.1122  -44.2262 H         1 UNK         0.0600 
    128 H128       -2.3031  -16.2844  -44.7985 H         1 UNK         0.0600 
    129 H129       -2.6242  -15.4750  -43.2611 H         1 UNK         0.0600 
    130 H130       -1.5611  -14.7445  -46.1869 H         1 UNK         0.3000 
    131 H131       -3.1659  -12.4127  -46.8566 H         1 UNK         0.0600 
    132 H132       -0.5126  -12.9311  -48.2265 H         1 UNK         0.0800 
    133 H133       -1.7170  -14.1377  -48.4487 H         1 UNK         0.0800 
    134 H134       -4.5811  -12.7659  -48.7159 H         1 UNK         0.0800 
    135 H135       -4.5974  -12.3220  -50.3986 H         1 UNK         0.0800 
    136 H136       -3.6569  -13.9132  -52.1443 H         1 UNK         0.1150 
    137 H137       -3.6587  -18.0607  -51.0575 H         1 UNK         0.1150 
    138 H138       -4.1835  -15.0717  -48.0453 H         1 UNK         0.1150 
    139 H139       -4.7101  -17.5056  -47.6107 H         1 UNK         0.0800 
    140 H140       -4.3523  -18.6982  -48.8427 H         1 UNK         0.0800 
    141 H141       -3.7393  -19.7382  -46.6224 H         1 UNK         0.0800 
    142 H142       -2.3365  -19.4060  -45.6567 H         1 UNK         0.0800 
    143 H143       -2.2165  -20.9091  -48.3163 H         1 UNK         0.0600 
    144 H144       -0.1466  -19.9141  -46.6206 H         1 UNK         0.3000 
    145 H145        2.5013  -21.9896  -47.7632 H         1 UNK         0.0600 
    146 H146        3.4640  -19.6709  -48.1557 H         1 UNK         0.0600 
    147 H147        2.4993  -20.2885  -49.4831 H         1 UNK         0.0600 
    148 H148        1.8244  -19.0735  -48.4048 H         1 UNK         0.0600 
    149 H149        1.9843  -19.7435  -45.9204 H         1 UNK         0.3000 
    150 H150        2.0629  -21.7736  -43.0256 H         1 UNK         0.0600 
    151 H151        4.5185  -21.6657  -43.5143 H         1 UNK         0.0600 
    152 H152        4.0397  -20.4385  -42.3513 H         1 UNK         0.0600 
    153 H153        4.3476  -19.9900  -44.0280 H         1 UNK         0.0600 
    154 H154        2.2305  -18.9449  -43.3517 H         1 UNK         0.3000 
    155 H155       -1.2150  -18.3003  -43.9427 H         1 UNK         0.0600 
    156 H156       -0.8631  -16.8388  -41.9310 H         1 UNK         0.0600 
    157 H157        0.4799  -17.8706  -41.4357 H         1 UNK         0.0600 
    158 H158       -1.1522  -18.5167  -41.4943 H         1 UNK         0.0600 
    159 H159        0.8283  -16.4430  -43.6097 H         1 UNK         0.3000 
    160 H160        2.2256  -16.5166  -46.9256 H         1 UNK         0.0600 
    161 H161        0.5251  -14.4657  -45.4230 H         1 UNK         0.0600 
    162 H162        0.0770  -15.2338  -46.9504 H         1 UNK         0.0600 
    163 H163        1.4850  -14.2024  -46.8800 H         1 UNK         0.0600 
    164 H164        2.6081  -15.1309  -44.3432 H         1 UNK         0.3000 
    165 H165        5.5074  -16.9811  -43.5188 H         1 UNK         0.0600 
    166 H166        5.4047  -14.0808  -44.4977 H         1 UNK         0.0600 
    167 H167        6.6459  -14.7863  -43.4656 H         1 UNK         0.0600 
    168 H168        6.4745  -15.3267  -45.1288 H         1 UNK         0.0600 
    169 H169        4.2603  -14.6428  -42.3986 H         1 UNK         0.3000 
    170 H170        1.8457  -16.3385  -40.4239 H         1 UNK         0.0600 
    171 H171        3.9635  -16.7011  -39.1453 H         1 UNK         0.0600 
    172 H172        4.4986  -15.0769  -39.5603 H         1 UNK         0.0600 
    173 H173        3.0743  -15.3107  -38.5459 H         1 UNK         0.0600 
    174 H174        2.5748  -13.6504  -40.3334 H         1 UNK         0.3000 
    175 H175       -0.0445  -12.5448  -42.1166 H         1 UNK         0.0600 
    176 H176        1.1371  -10.6433  -41.0499 H         1 UNK         0.0600 
    177 H177        1.1001  -12.0246  -39.9723 H         1 UNK         0.0600 
    178 H178        2.5857  -11.6138  -40.8287 H         1 UNK         0.0600 
    179 H179        0.7253  -11.7241  -43.9912 H         1 UNK         0.3000 
    180 H180        3.5552  -10.2817  -45.0069 H         1 UNK         0.0600 
    181 H181        3.2989  -13.0619  -46.2455 H         1 UNK         0.0600 
    182 H182        4.7636  -12.2043  -45.8045 H         1 UNK         0.0600 
    183 H183        3.7999  -11.6333  -47.1519 H         1 UNK         0.0600 
    184 H184        1.3086  -11.3753  -46.5224 H         1 UNK         0.3000 
    185 H185       -1.0135   -8.9845  -45.4515 H         1 UNK         0.0600 
    186 H186       -1.1742   -8.1553  -47.7758 H         1 UNK         0.0600 
    187 H187        0.2573   -7.4887  -47.0093 H         1 UNK         0.0600 
    188 H188        0.4177   -8.8138  -48.1558 H         1 UNK         0.0600 
    189 H189       -1.2921  -10.5935  -47.6835 H         1 UNK         0.3000 
    190 H190       -1.1839  -23.2116  -47.7637 H         1 UNK         0.3000 
    191 H191       -2.2444  -24.6162  -45.4681 H         1 UNK         0.0600 
    192 H192       -0.1451  -25.3122  -46.5564 H         1 UNK         0.0600 
    193 H193       -1.3246  -26.6095  -46.6854 H         1 UNK         0.0600 
    194 H194       -0.9773  -25.5973  -48.0820 H         1 UNK         0.0600 
    195 H195       -4.4579  -24.5342  -45.3459 H         1 UNK         0.3000 
    196 H196       -6.3227  -24.5850  -47.3970 H         1 UNK         0.0600 
    197 H197       -7.9575  -25.1186  -45.5824 H         1 UNK         0.0600 
    198 H198       -6.8254  -23.8709  -45.0871 H         1 UNK         0.0600 
    199 H199       -6.6313  -25.5226  -44.4985 H         1 UNK         0.0600 
    200 H200       -4.8285  -27.3666  -45.8118 H         1 UNK         0.3000 
    201 H201       -6.5237  -29.4142  -46.8406 H         1 UNK         0.0600 
    202 H202       -5.0086  -29.7339  -44.8979 H         1 UNK         0.0600 
    203 H203       -3.5956  -29.5035  -45.9295 H         1 UNK         0.0600 
    204 H204       -4.6367  -30.9042  -46.1527 H         1 UNK         0.0600 
    205 H205       -4.0542  -27.5118  -48.4049 H         1 UNK         0.3000 
    206 H206       -3.8990  -29.3647  -50.7448 H         1 UNK         0.0600 
    207 H207       -2.0189  -27.1268  -49.8218 H         1 UNK         0.0600 
    208 H208       -1.7177  -28.8532  -49.6462 H         1 UNK         0.0600 
    209 H209       -1.7941  -28.1355  -51.2463 H         1 UNK         0.0600 
    210 H210       -5.8633  -27.0686  -49.7610 H         1 UNK         0.3000 
    211 H211       -7.2067  -25.5254  -50.5660 H         1 UNK         0.0600 
    212 H212       -6.0879  -25.9934  -53.3818 H         1 UNK         0.0600 
    213 H213       -7.5361  -25.0983  -52.9622 H         1 UNK         0.0600 
    214 H214       -7.4675  -26.8304  -52.6741 H         1 UNK         0.0600 
    215 H215       -6.4813  -23.8216  -49.4647 H         1 UNK         0.3000 
    216 H216       -3.9718  -22.8392  -49.2995 H         1 UNK         0.0600 
    217 H217       -5.6559  -22.3681  -47.6077 H         1 UNK         0.0600 
    218 H218       -6.6190  -21.4136  -48.7372 H         1 UNK         0.0600 
    219 H219       -5.0590  -20.8305  -48.1837 H         1 UNK         0.0600 
    220 H220       -6.4092  -21.5729  -51.5566 H         1 UNK         0.3000 
    221 H221       -4.9768  -19.2649  -52.4162 H         1 UNK         0.0600 
    222 H222       -7.1311  -20.9077  -53.8408 H         1 UNK         0.0600 
    223 H223       -7.4002  -19.5210  -52.7846 H         1 UNK         0.0600 
    224 H224       -6.5833  -19.3067  -54.3244 H         1 UNK         0.0600 
    225 H225       -5.1003  -22.6111  -53.6774 H         1 UNK         0.3000 
    226 H226       -3.3227  -22.0968  -55.9215 H         1 UNK         0.0600 
    227 H227       -5.0921  -23.8475  -56.0376 H         1 UNK         0.0600 
    228 H228       -3.4973  -24.5577  -56.2392 H         1 UNK         0.0600 
    229 H229       -4.3390  -24.7226  -54.7040 H         1 UNK         0.0600 
    230 H230       -3.0668  -23.5109  -52.6545 H         1 UNK         0.3000 
    231 H231       -0.4248  -24.4444  -52.7792 H         1 UNK         0.0600 
    232 H232       -1.9410  -23.3917  -50.3349 H         1 UNK         0.0600 
    233 H233       -0.5651  -24.4839  -50.3161 H         1 UNK         0.0600 
    234 H234       -2.0971  -25.0161  -50.9970 H         1 UNK         0.0600 
    235 H235       -1.6304  -21.1989  -51.7762 H         1 UNK         0.3000 
    236 H236        1.0715  -20.2250  -51.2645 H         1 UNK         0.0600 
    237 H237       -0.0859  -18.1306  -50.6632 H         1 UNK         0.0600 
    238 H238       -1.5974  -18.7610  -51.3001 H         1 UNK         0.0600 
    239 H239       -0.8629  -19.5001  -49.8818 H         1 UNK         0.0600 
    240 H240       -1.4733  -19.5825  -53.7759 H         1 UNK         0.3000 
    241 H241        0.4457  -17.7810  -55.1632 H         1 UNK         0.0600 
    242 H242       -0.5034  -21.0021  -55.6878 H         1 UNK         0.3800 
    243 H243       -0.3661  -20.9340  -57.4204 H         1 UNK         0.3800 
    244 H244       -1.4821  -16.6014  -56.0543 H         1 UNK         0.0800 
    245 H245       -2.5856  -17.7607  -55.3723 H         1 UNK         0.0800 
    246 H246       -4.0399  -15.7934  -53.8677 H         1 UNK         0.0800 
    247 H247       -3.7528  -17.4449  -53.3770 H         1 UNK         0.0800 
@<TRIPOS>BOND
     1    1    2 1    
     2    1  127 1    
     3    1  128 1    
     4    1  129 1    
     5    2    3 2    
     6    2    4 am   BACKBONE|DICT|INTERRES
     7    4    5 1    
     8    4  130 1    
     9    5    6 1    
    10    5   65 1    
    11    5  131 1    
    12    6    7 1    
    13    6  132 1    
    14    6  133 1    
    15    7    8 1    
    16    8    9 1    
    17    8  134 1    
    18    8  135 1    
    19    9   10 ar   
    20    9   14 ar   
    21   10   11 ar   
    22   10  136 1    
    23   11   12 ar   
    24   11  126 1    
    25   12   13 ar   
    26   12  137 1    
    27   13   14 ar   
    28   13   15 1    
    29   14  138 1    
    30   15   16 1    
    31   15  139 1    
    32   15  140 1    
    33   16   17 1    
    34   17   18 1    
    35   17  141 1    
    36   17  142 1    
    37   18   19 1    
    38   18   67 1    
    39   18  143 1    
    40   19   20 am   BACKBONE|DICT|INTERRES
    41   19  144 1    
    42   20   21 2    
    43   20   22 1    
    44   22   23 1    
    45   22   24 1    
    46   22  145 1    
    47   23  146 1    
    48   23  147 1    
    49   23  148 1    
    50   24   25 am   BACKBONE|DICT|INTERRES
    51   24  149 1    
    52   25   26 2    
    53   25   27 1    
    54   27   28 1    
    55   27   29 1    
    56   27  150 1    
    57   28  151 1    
    58   28  152 1    
    59   28  153 1    
    60   29   30 am   BACKBONE|DICT|INTERRES
    61   29  154 1    
    62   30   31 2    
    63   30   32 1    
    64   32   33 1    
    65   32   34 1    
    66   32  155 1    
    67   33  156 1    
    68   33  157 1    
    69   33  158 1    
    70   34   35 am   BACKBONE|DICT|INTERRES
    71   34  159 1    
    72   35   36 2    
    73   35   37 1    
    74   37   38 1    
    75   37   39 1    
    76   37  160 1    
    77   38  161 1    
    78   38  162 1    
    79   38  163 1    
    80   39   40 am   BACKBONE|DICT|INTERRES
    81   39  164 1    
    82   40   41 2    
    83   40   42 1    
    84   42   43 1    
    85   42   44 1    
    86   42  165 1    
    87   43  166 1    
    88   43  167 1    
    89   43  168 1    
    90   44   45 am   BACKBONE|DICT|INTERRES
    91   44  169 1    
    92   45   46 2    
    93   45   47 1    
    94   47   48 1    
    95   47   49 1    
    96   47  170 1    
    97   48  171 1    
    98   48  172 1    
    99   48  173 1    
   100   49   50 am   BACKBONE|DICT|INTERRES
   101   49  174 1    
   102   50   51 2    
   103   50   52 1    
   104   52   53 1    
   105   52   54 1    
   106   52  175 1    
   107   53  176 1    
   108   53  177 1    
   109   53  178 1    
   110   54   55 am   BACKBONE|DICT|INTERRES
   111   54  179 1    
   112   55   56 2    
   113   55   57 1    
   114   57   58 1    
   115   57   59 1    
   116   57  180 1    
   117   58  181 1    
   118   58  182 1    
   119   58  183 1    
   120   59   60 am   BACKBONE|DICT|INTERRES
   121   59  184 1    
   122   60   61 2    
   123   60   62 1    
   124   62   63 1    
   125   62   64 1    
   126   62  185 1    
   127   63  186 1    
   128   63  187 1    
   129   63  188 1    
   130   64   65 am   BACKBONE|DICT|INTERRES
   131   64  189 1    
   132   65   66 2    
   133   67   68 2    
   134   67   69 am   BACKBONE|DICT|INTERRES
   135   69   70 1    
   136   69  190 1    
   137   70   71 1    
   138   70   72 1    
   139   70  191 1    
   140   71  192 1    
   141   71  193 1    
   142   71  194 1    
   143   72   73 2    
   144   72   74 am   BACKBONE|DICT|INTERRES
   145   74   75 1    
   146   74  195 1    
   147   75   76 1    
   148   75   77 1    
   149   75  196 1    
   150   76  197 1    
   151   76  198 1    
   152   76  199 1    
   153   77   78 2    
   154   77   79 am   BACKBONE|DICT|INTERRES
   155   79   80 1    
   156   79  200 1    
   157   80   81 1    
   158   80   82 1    
   159   80  201 1    
   160   81  202 1    
   161   81  203 1    
   162   81  204 1    
   163   82   83 2    
   164   82   84 am   BACKBONE|DICT|INTERRES
   165   84   85 1    
   166   84  205 1    
   167   85   86 1    
   168   85   87 1    
   169   85  206 1    
   170   86  207 1    
   171   86  208 1    
   172   86  209 1    
   173   87   88 2    
   174   87   89 am   BACKBONE|DICT|INTERRES
   175   89   90 1    
   176   89  210 1    
   177   90   91 1    
   178   90   92 1    
   179   90  211 1    
   180   91  212 1    
   181   91  213 1    
   182   91  214 1    
   183   92   93 2    
   184   92   94 am   BACKBONE|DICT|INTERRES
   185   94   95 1    
   186   94  215 1    
   187   95   96 1    
   188   95   97 1    
   189   95  216 1    
   190   96  217 1    
   191   96  218 1    
   192   96  219 1    
   193   97   98 2    
   194   97   99 am   BACKBONE|DICT|INTERRES
   195   99  100 1    
   196   99  220 1    
   197  100  101 1    
   198  100  102 1    
   199  100  221 1    
   200  101  222 1    
   201  101  223 1    
   202  101  224 1    
   203  102  103 2    
   204  102  104 am   BACKBONE|DICT|INTERRES
   205  104  105 1    
   206  104  225 1    
   207  105  106 1    
   208  105  107 1    
   209  105  226 1    
   210  106  227 1    
   211  106  228 1    
   212  106  229 1    
   213  107  108 2    
   214  107  109 am   BACKBONE|DICT|INTERRES
   215  109  110 1    
   216  109  230 1    
   217  110  111 1    
   218  110  112 1    
   219  110  231 1    
   220  111  232 1    
   221  111  233 1    
   222  111  234 1    
   223  112  113 2    
   224  112  114 am   BACKBONE|DICT|INTERRES
   225  114  115 1    
   226  114  235 1    
   227  115  116 1    
   228  115  117 1    
   229  115  236 1    
   230  116  237 1    
   231  116  238 1    
   232  116  239 1    
   233  117  118 2    
   234  117  119 am   BACKBONE|DICT|INTERRES
   235  119  120 1    
   236  119  240 1    
   237  120  121 1    
   238  120  124 1    
   239  120  241 1    
   240  121  122 am   BACKBONE|DICT|INTERRES
   241  121  123 2    
   242  122  242 1    
   243  122  243 1    
   244  124  125 1    
   245  124  244 1    
   246  124  245 1    
   247  125  126 1    
   248  126  246 1    
   249  126  247 1    
@<TRIPOS>SUBSTRUCTURE
     1 UNK         1 GROUP             0       ****    0 ROOT    
