@<TRIPOS>MOLECULE
3R540
247   249    1
SMALL
USER_CHARGES


@<TRIPOS>ATOM
      1 CA         -1.1781   -8.1782  -45.8216 C.3       0 UNK        -0.1800 
      2 C          -0.3819   -9.4377  -46.1297 C.2       0 UNK         0.5000 
      3 O           0.6793   -9.6479  -45.5447 O.2       0 UNK        -0.5000 
      4 N          -0.8944  -10.2797  -47.0368 N.am      1 UNK        -0.5000 
      5 CA         -0.2833  -11.5441  -47.4638 C.3       1 UNK         0.1400 
      6 C6         -1.0477  -12.1467  -48.6680 C.3       23 UNK        -0.0398 
      7 S7         -0.1766  -13.5134  -49.5098 S.3       23 UNK        -0.2404 
      8 C8         -0.9494  -14.9621  -48.7241 C.3       23 UNK        -0.0205 
      9 C9         -1.0655  -16.1257  -49.6939 C.ar      23 UNK        -0.0193 
     10 C10        -2.2328  -16.2952  -50.4419 C.ar      23 UNK        -0.1150 
     11 C11        -2.3724  -17.3836  -51.3065 C.ar      23 UNK        -0.0193 
     12 C12        -1.3231  -18.2999  -51.4332 C.ar      23 UNK        -0.1150 
     13 C13        -0.1433  -18.1327  -50.6993 C.ar      23 UNK        -0.0193 
     14 C14        -0.0230  -17.0453  -49.8279 C.ar      23 UNK        -0.1150 
     15 C15         1.0122  -19.1112  -50.8601 C.3       23 UNK        -0.0205 
     16 S16         0.6496  -20.7635  -50.1840 S.3       23 UNK        -0.2404 
     17 C17         0.4905  -20.4195  -48.3987 C.3       23 UNK        -0.0398 
     18 CA         -0.7683  -21.0564  -47.7636 C.3       11 UNK         0.1400 
     19 N          -0.6913  -21.0577  -46.3006 N.am      11 UNK        -0.5000 
     20 C          -1.5560  -21.6742  -45.4825 C.2       10 UNK         0.5000 
     21 O          -2.4984  -22.3622  -45.8734 O.2       10 UNK        -0.5000 
     22 CA         -1.3714  -21.4332  -43.9733 C.3       10 UNK         0.1400 
     23 CB         -0.2589  -22.3257  -43.4042 C.3       10 UNK        -0.1800 
     24 N          -1.0894  -20.0303  -43.6649 N.am      10 UNK        -0.5000 
     25 C          -1.9393  -19.0195  -43.8963 C.2       9 UNK         0.5000 
     26 O          -3.0784  -19.1747  -44.3350 O.2       9 UNK        -0.5000 
     27 CA         -1.4131  -17.5947  -43.6435 C.3       9 UNK         0.1400 
     28 CB         -1.4684  -17.2547  -42.1473 C.3       9 UNK        -0.1800 
     29 N          -0.0537  -17.4011  -44.1543 N.am      9 UNK        -0.5000 
     30 C           0.2825  -17.4835  -45.4505 C.2       8 UNK         0.5000 
     31 O          -0.5331  -17.6481  -46.3555 O.2       8 UNK        -0.5000 
     32 CA          1.7822  -17.4453  -45.7911 C.3       8 UNK         0.1400 
     33 CB          2.2936  -16.0045  -45.9279 C.3       8 UNK        -0.1800 
     34 N           2.5793  -18.1676  -44.8003 N.am      8 UNK        -0.5000 
     35 C           2.5936  -19.5030  -44.6798 C.2       7 UNK         0.5000 
     36 O           1.9654  -20.2584  -45.4197 O.2       7 UNK        -0.5000 
     37 CA          3.4100  -20.0911  -43.5141 C.3       7 UNK         0.1400 
     38 CB          4.8829  -20.2564  -43.9161 C.3       7 UNK        -0.1800 
     39 N           3.3278  -19.2733  -42.3041 N.am      7 UNK        -0.5000 
     40 C           2.2082  -19.0772  -41.5927 C.2       6 UNK         0.5000 
     41 O           1.1392  -19.6335  -41.8396 O.2       6 UNK        -0.5000 
     42 CA          2.2847  -18.0398  -40.4548 C.3       6 UNK         0.1400 
     43 CB          2.6767  -18.7154  -39.1328 C.3       6 UNK        -0.1800 
     44 N           3.2229  -16.9492  -40.7425 N.am      6 UNK        -0.5000 
     45 C           3.0807  -16.0799  -41.7514 C.2       5 UNK         0.5000 
     46 O           2.1182  -16.0790  -42.5222 O.2       5 UNK        -0.5000 
     47 CA          4.2515  -15.1222  -41.9963 C.3       5 UNK         0.1400 
     48 CB          5.3380  -15.8349  -42.8279 C.3       5 UNK        -0.1800 
     49 N           3.7649  -13.9396  -42.6994 N.am      5 UNK        -0.5000 
     50 C           4.4589  -12.8118  -42.8956 C.2       4 UNK         0.5000 
     51 O           5.6072  -12.6339  -42.4867 O.2       4 UNK        -0.5000 
     52 CA          3.7561  -11.6835  -43.6715 C.3       4 UNK         0.1400 
     53 CB          3.9480  -11.8724  -45.1834 C.3       4 UNK        -0.1800 
     54 N           2.3280  -11.5716  -43.3722 N.am      4 UNK        -0.5000 
     55 C           1.8265  -11.1697  -42.1941 C.2       3 UNK         0.5000 
     56 O           2.5256  -10.8811  -41.2219 O.2       3 UNK        -0.5000 
     57 CA          0.2941  -11.0490  -42.0706 C.3       3 UNK         0.1400 
     58 CB         -0.1368   -9.5736  -42.0602 C.3       3 UNK        -0.1800 
     59 N          -0.4222  -11.7484  -43.1376 N.am      3 UNK        -0.5000 
     60 C          -0.6245  -13.0722  -43.1659 C.2       2 UNK         0.5000 
     61 O          -0.2715  -13.8252  -42.2610 O.2       2 UNK        -0.5000 
     62 CA         -1.3268  -13.6549  -44.4095 C.3       2 UNK         0.1400 
     63 CB         -2.7946  -13.9874  -44.1021 C.3       2 UNK        -0.1800 
     64 N          -1.2723  -12.7703  -45.5773 N.am      2 UNK        -0.5000 
     65 C          -0.1610  -12.5396  -46.2905 C.2       1 UNK         0.5000 
     66 O           0.9308  -13.0355  -46.0192 O.2       1 UNK        -0.5000 
     67 C          -2.0772  -20.4178  -48.2767 C.2       11 UNK         0.5000 
     68 O          -2.6939  -20.9704  -49.1843 O.2       11 UNK        -0.5000 
     69 N          -2.5064  -19.3085  -47.6578 N.am      12 UNK        -0.5000 
     70 CA         -3.7775  -18.6442  -47.9441 C.3       12 UNK         0.1400 
     71 CB         -3.8190  -17.2827  -47.2329 C.3       12 UNK        -0.1800 
     72 C          -5.0004  -19.4957  -47.5539 C.2       12 UNK         0.5000 
     73 O          -5.9772  -19.5306  -48.3018 O.2       12 UNK        -0.5000 
     74 N          -4.9289  -20.1674  -46.3968 N.am      13 UNK        -0.5000 
     75 CA         -5.9909  -21.0243  -45.8683 C.3       13 UNK         0.1400 
     76 CB         -5.6965  -21.3524  -44.3964 C.3       13 UNK        -0.1800 
     77 C          -6.1904  -22.3148  -46.6849 C.2       13 UNK         0.5000 
     78 O          -7.3308  -22.6911  -46.9566 O.2       13 UNK        -0.5000 
     79 N          -5.0825  -22.9628  -47.0644 N.am      14 UNK        -0.5000 
     80 CA         -5.0553  -24.2284  -47.8036 C.3       14 UNK         0.1400 
     81 CB         -3.9314  -25.1001  -47.2200 C.3       14 UNK        -0.1800 
     82 C          -4.8988  -24.0404  -49.3275 C.2       14 UNK         0.5000 
     83 O          -4.6144  -25.0169  -50.0297 O.2       14 UNK        -0.5000 
     84 N          -5.0626  -22.7985  -49.8064 N.am      15 UNK        -0.5000 
     85 CA         -4.9163  -22.3572  -51.1954 C.3       15 UNK         0.1400 
     86 CB         -5.3552  -20.8912  -51.3011 C.3       15 UNK        -0.1800 
     87 C          -5.7352  -23.1998  -52.1820 C.2       15 UNK         0.5000 
     88 O          -6.9066  -23.4780  -51.9118 O.2       15 UNK        -0.5000 
     89 N          -5.1001  -23.5972  -53.2930 N.am      16 UNK        -0.5000 
     90 CA         -5.6031  -24.4687  -54.3661 C.3       16 UNK         0.1400 
     91 CB         -6.8325  -23.8542  -55.0624 C.3       16 UNK        -0.1800 
     92 C          -5.8810  -25.9259  -53.9335 C.2       16 UNK         0.5000 
     93 O          -5.5298  -26.8489  -54.6689 O.2       16 UNK        -0.5000 
     94 N          -6.5025  -26.1048  -52.7620 N.am      17 UNK        -0.5000 
     95 CA         -6.9424  -27.3752  -52.1934 C.3       17 UNK         0.1400 
     96 CB         -7.8420  -27.0928  -50.9792 C.3       17 UNK        -0.1800 
     97 C          -5.7899  -28.3141  -51.8014 C.2       17 UNK         0.5000 
     98 O          -5.8833  -29.5136  -52.0685 O.2       17 UNK        -0.5000 
     99 N          -4.7390  -27.7680  -51.1728 N.am      18 UNK        -0.5000 
    100 CA        -3.5973  -28.5497  -50.6905 C.3       18 UNK         0.1400 
    101 CB        -3.8460  -29.0080  -49.2435 C.3       18 UNK        -0.1800 
    102 C         -2.2616  -27.8051  -50.8213 C.2       18 UNK         0.5000 
    103 O         -1.2545  -28.4437  -51.1301 O.2       18 UNK        -0.5000 
    104 N         -2.2563  -26.4812  -50.6093 N.am      19 UNK        -0.5000 
    105 CA        -1.0546  -25.6510  -50.7452 C.3       19 UNK         0.1400 
    106 CB        -1.2184  -24.3661  -49.9194 C.3       19 UNK        -0.1800 
    107 C         -0.7258  -25.2996  -52.2072 C.2       19 UNK         0.5000 
    108 O          0.4043  -24.8942  -52.4814 O.2       19 UNK        -0.5000 
    109 N         -1.7157  -25.4414  -53.1049 N.am      20 UNK        -0.5000 
    110 CA        -1.7056  -24.9890  -54.4994 C.3       20 UNK         0.1400 
    111 CB        -0.6977  -25.8063  -55.3404 C.3       20 UNK        -0.1800 
    112 C         -1.5090  -23.4576  -54.5485 C.2       20 UNK         0.5000 
    113 O         -2.2666  -22.7502  -53.8774 O.2       20 UNK        -0.5000 
    114 N         -0.4866  -23.0015  -55.2868 N.am      21 UNK        -0.5000 
    115 CA         0.0896  -21.6535  -55.2852 C.3       21 UNK         0.1400 
    116 CB         0.8564  -21.4327  -53.9621 C.3       21 UNK        -0.1800 
    117 C         -0.9181  -20.5271  -55.6097 C.2       21 UNK         0.5000 
    118 O         -1.8374  -20.7366  -56.4043 O.2       21 UNK        -0.5000 
    119 N         -0.7005  -19.3457  -55.0148 N.am      22 UNK        -0.5000 
    120 CA        -1.5113  -18.1245  -55.1599 C.3       22 UNK         0.1400 
    121 C         -1.3911  -17.4154  -56.5460 C.2       22 UNK         0.5000 
    122 N         -0.3900  -17.7264  -57.3608 N.am      22 UNK        -0.7600 
    123 O         -2.1951  -16.5513  -56.8849 O.2       22 UNK        -0.5000 
    124 C124       -2.9821  -18.3342  -54.6958 C.3       23 UNK        -0.0398 
    125 S125       -3.6361  -16.9160  -53.7476 S.3       23 UNK        -0.2404 
    126 C126       -3.6805  -17.5852  -52.0557 C.3       23 UNK        -0.0205 
    127 H127       -0.5632   -7.2951  -45.9937 H         1 UNK         0.0600 
    128 H128       -1.4916   -8.1780  -44.7779 H         1 UNK         0.0600 
    129 H129       -2.0688   -8.0986  -46.4448 H         1 UNK         0.0600 
    130 H130       -1.7703  -10.0421  -47.4804 H         1 UNK         0.3000 
    131 H131        0.7308  -11.3093  -47.7951 H         1 UNK         0.0600 
    132 H132       -1.1880  -11.3710  -49.4222 H         1 UNK         0.0800 
    133 H133       -2.0554  -12.4530  -48.3838 H         1 UNK         0.0800 
    134 H134       -0.3654  -15.2566  -47.8515 H         1 UNK         0.0800 
    135 H135       -1.9409  -14.7077  -48.3494 H         1 UNK         0.0800 
    136 H136       -3.0430  -15.5877  -50.3354 H         1 UNK         0.1150 
    137 H137       -1.4274  -19.1503  -52.0922 H         1 UNK         0.1150 
    138 H138        0.8807  -16.9117  -49.2503 H         1 UNK         0.1150 
    139 H139        1.2465  -19.2079  -51.9201 H         1 UNK         0.0800 
    140 H140        1.9164  -18.7256  -50.3866 H         1 UNK         0.0800 
    141 H141        0.5127  -19.3463  -48.2117 H         1 UNK         0.0800 
    142 H142        1.3857  -20.8239  -47.9259 H         1 UNK         0.0800 
    143 H143       -0.7914  -22.1060  -48.0623 H         1 UNK         0.0600 
    144 H144        0.0922  -20.5581  -45.8915 H         1 UNK         0.3000 
    145 H145       -2.3064  -21.7012  -43.4773 H         1 UNK         0.0600 
    146 H146       -0.1685  -22.2020  -42.3248 H         1 UNK         0.0600 
    147 H147        0.7101  -22.0979  -43.8481 H         1 UNK         0.0600 
    148 H148       -0.4684  -23.3788  -43.5953 H         1 UNK         0.0600 
    149 H149       -0.1921  -19.8273  -43.2338 H         1 UNK         0.3000 
    150 H150       -2.0670  -16.9012  -44.1753 H         1 UNK         0.0600 
    151 H151       -2.4949  -17.2895  -41.7805 H         1 UNK         0.0600 
    152 H152       -1.0876  -16.2540  -41.9521 H         1 UNK         0.0600 
    153 H153       -0.8853  -17.9534  -41.5488 H         1 UNK         0.0600 
    154 H154        0.6739  -17.2053  -43.4752 H         1 UNK         0.3000 
    155 H155        1.9183  -17.9362  -46.7568 H         1 UNK         0.0600 
    156 H156        1.8028  -15.5011  -46.7610 H         1 UNK         0.0600 
    157 H157        3.3655  -15.9789  -46.1234 H         1 UNK         0.0600 
    158 H158        2.1011  -15.4125  -45.0336 H         1 UNK         0.0600 
    159 H159        3.0639  -17.6083  -44.1148 H         1 UNK         0.3000 
    160 H160        3.0035  -21.0786  -43.2858 H         1 UNK         0.0600 
    161 H161        5.3532  -19.2964  -44.1331 H         1 UNK         0.0600 
    162 H162        4.9760  -20.8769  -44.8085 H         1 UNK         0.0600 
    163 H163        5.4558  -20.7400  -43.1246 H         1 UNK         0.0600 
    164 H164        4.1667  -18.7890  -42.0225 H         1 UNK         0.3000 
    165 H165        1.2901  -17.6052  -40.3362 H         1 UNK         0.0600 
    166 H166        2.6589  -18.0048  -38.3064 H         1 UNK         0.0600 
    167 H167        1.9811  -19.5182  -38.8844 H         1 UNK         0.0600 
    168 H168        3.6758  -19.1500  -39.1820 H         1 UNK         0.0600 
    169 H169        4.0439  -16.8951  -40.1566 H         1 UNK         0.3000 
    170 H170        4.6614  -14.8166  -41.0318 H         1 UNK         0.0600 
    171 H171        4.9718  -16.1034  -43.8193 H         1 UNK         0.0600 
    172 H172        6.2199  -15.2087  -42.9592 H         1 UNK         0.0600 
    173 H173        5.6723  -16.7515  -42.3408 H         1 UNK         0.0600 
    174 H174        2.8110  -14.0106  -43.0317 H         1 UNK         0.3000 
    175 H175        4.2286  -10.7410  -43.3881 H         1 UNK         0.0600 
    176 H176        3.5416  -12.8248  -45.5247 H         1 UNK         0.0600 
    177 H177        3.4593  -11.0778  -45.7474 H         1 UNK         0.0600 
    178 H178        5.0064  -11.8569  -45.4460 H         1 UNK         0.0600 
    179 H179        1.6902  -11.7772  -44.1300 H         1 UNK         0.3000 
    180 H180        0.0085  -11.4867  -41.1115 H         1 UNK         0.0600 
    181 H181       -1.2181   -9.4767  -41.9616 H         1 UNK         0.0600 
    182 H182        0.1670   -9.0569  -42.9704 H         1 UNK         0.0600 
    183 H183        0.3139   -9.0433  -41.2204 H         1 UNK         0.0600 
    184 H184       -0.7133  -11.1948  -43.9294 H         1 UNK         0.3000 
    185 H185       -0.8141  -14.5856  -44.6611 H         1 UNK         0.0600 
    186 H186       -3.3734  -13.0892  -43.8839 H         1 UNK         0.0600 
    187 H187       -3.2664  -14.4981  -44.9420 H         1 UNK         0.0600 
    188 H188       -2.8748  -14.6461  -43.2365 H         1 UNK         0.0600 
    189 H189       -2.1289  -12.3013  -45.8338 H         1 UNK         0.3000 
    190 H190       -1.9070  -18.8678  -46.9663 H         1 UNK         0.3000 
    191 H191       -3.8236  -18.4676  -49.0199 H         1 UNK         0.0600 
    192 H192       -2.9500  -16.6791  -47.4865 H         1 UNK         0.0600 
    193 H193       -3.8387  -17.3902  -46.1487 H         1 UNK         0.0600 
    194 H194       -4.7061  -16.7189  -47.5233 H         1 UNK         0.0600 
    195 H195       -4.1115  -20.0360  -45.8087 H         1 UNK         0.3000 
    196 H196       -6.9257  -20.4610  -45.9055 H         1 UNK         0.0600 
    197 H197       -5.6324  -20.4448  -43.7959 H         1 UNK         0.0600 
    198 H198       -4.7566  -21.8934  -44.2841 H         1 UNK         0.0600 
    199 H199       -6.4858  -21.9714  -43.9682 H         1 UNK         0.0600 
    200 H200       -4.1786  -22.5960  -46.7740 H         1 UNK         0.3000 
    201 H201       -5.9953  -24.7633  -47.6554 H         1 UNK         0.0600 
    202 H202       -4.1169  -25.3235  -46.1695 H         1 UNK         0.0600 
    203 H203       -2.9654  -24.6020  -47.2839 H         1 UNK         0.0600 
    204 H204       -3.8470  -26.0520  -47.7415 H         1 UNK         0.0600 
    205 H205       -5.2670  -22.0706  -49.1378 H         1 UNK         0.3000 
    206 H206       -3.8576  -22.4275  -51.4529 H         1 UNK         0.0600 
    207 H207       -4.7394  -20.2509  -50.6723 H         1 UNK         0.0600 
    208 H208       -5.2692  -20.5318  -52.3270 H         1 UNK         0.0600 
    209 H209       -6.3931  -20.7592  -50.9926 H         1 UNK         0.0600 
    210 H210       -4.1391  -23.2882  -53.4148 H         1 UNK         0.3000 
    211 H211       -4.8121  -24.5057  -55.1142 H         1 UNK         0.0600 
    212 H212       -6.6240  -22.8419  -55.4091 H         1 UNK         0.0600 
    213 H213       -7.7009  -23.8117  -54.4045 H         1 UNK         0.0600 
    214 H214       -7.1175  -24.4440  -55.9345 H         1 UNK         0.0600 
    215 H215       -6.7511  -25.2640  -52.2450 H         1 UNK         0.3000 
    216 H216       -7.5425  -27.8859  -52.9500 H         1 UNK         0.0600 
    217 H217       -8.2019  -28.0211  -50.5334 H         1 UNK         0.0600 
    218 H218       -8.7175  -26.5091  -51.2649 H         1 UNK         0.0600 
    219 H219       -7.3095  -26.5388  -50.2040 H         1 UNK         0.0600 
    220 H220       -4.7512  -26.7751  -50.9617 H         1 UNK         0.3000 
    221 H221       -3.4891  -29.4452  -51.3068 H         1 UNK         0.0600 
    222 H222       -4.0411  -28.1652  -48.5818 H         1 UNK         0.0600 
    223 H223       -4.7030  -29.6795  -49.1872 H         1 UNK         0.0600 
    224 H224       -2.9845  -29.5478  -48.8472 H         1 UNK         0.0600 
    225 H225       -3.1123  -26.0008  -50.3428 H         1 UNK         0.3000 
    226 H226       -0.1986  -26.1960  -50.3414 H         1 UNK         0.0600 
    227 H227       -1.3514  -24.5925  -48.8635 H         1 UNK         0.0600 
    228 H228       -0.3316  -23.7365  -50.0007 H         1 UNK         0.0600 
    229 H229       -2.0676  -23.7707  -50.2546 H         1 UNK         0.0600 
    230 H230       -2.6000  -25.7814  -52.7586 H         1 UNK         0.3000 
    231 H231       -2.6958  -25.1932  -54.9021 H         1 UNK         0.0600 
    232 H232       -0.7712  -25.5527  -56.3986 H         1 UNK         0.0600 
    233 H233       -0.9009  -26.8740  -55.2556 H         1 UNK         0.0600 
    234 H234        0.3347  -25.6448  -55.0289 H         1 UNK         0.0600 
    235 H235        0.0321  -23.6830  -55.8216 H         1 UNK         0.3000 
    236 H236        0.8205  -21.6406  -56.0948 H         1 UNK         0.0600 
    237 H237        0.1734  -21.3315  -53.1178 H         1 UNK         0.0600 
    238 H238        1.5179  -22.2723  -53.7466 H         1 UNK         0.0600 
    239 H239        1.4840  -20.5422  -54.0022 H         1 UNK         0.0600 
    240 H240        0.0973  -19.2639  -54.4020 H         1 UNK         0.3000 
    241 H241       -1.0431  -17.4265  -54.4651 H         1 UNK         0.0600 
    242 H242       -0.3122  -17.2592  -58.2508 H         1 UNK         0.3800 
    243 H243        0.2885  -18.4238  -57.1006 H         1 UNK         0.3800 
    244 H244       -3.0622  -19.2291  -54.0779 H         1 UNK         0.0800 
    245 H245       -3.6390  -18.5246  -55.5462 H         1 UNK         0.0800 
    246 H246       -3.9289  -18.6427  -52.0805 H         1 UNK         0.0800 
    247 H247       -4.4953  -17.1024  -51.5141 H         1 UNK         0.0800 
@<TRIPOS>BOND
     1    1    2 1    
     2    1  127 1    
     3    1  128 1    
     4    1  129 1    
     5    2    3 2    
     6    2    4 am   BACKBONE|DICT|INTERRES
     7    4    5 1    
     8    4  130 1    
     9    5    6 1    
    10    5   65 1    
    11    5  131 1    
    12    6    7 1    
    13    6  132 1    
    14    6  133 1    
    15    7    8 1    
    16    8    9 1    
    17    8  134 1    
    18    8  135 1    
    19    9   10 ar   
    20    9   14 ar   
    21   10   11 ar   
    22   10  136 1    
    23   11   12 ar   
    24   11  126 1    
    25   12   13 ar   
    26   12  137 1    
    27   13   14 ar   
    28   13   15 1    
    29   14  138 1    
    30   15   16 1    
    31   15  139 1    
    32   15  140 1    
    33   16   17 1    
    34   17   18 1    
    35   17  141 1    
    36   17  142 1    
    37   18   19 1    
    38   18   67 1    
    39   18  143 1    
    40   19   20 am   BACKBONE|DICT|INTERRES
    41   19  144 1    
    42   20   21 2    
    43   20   22 1    
    44   22   23 1    
    45   22   24 1    
    46   22  145 1    
    47   23  146 1    
    48   23  147 1    
    49   23  148 1    
    50   24   25 am   BACKBONE|DICT|INTERRES
    51   24  149 1    
    52   25   26 2    
    53   25   27 1    
    54   27   28 1    
    55   27   29 1    
    56   27  150 1    
    57   28  151 1    
    58   28  152 1    
    59   28  153 1    
    60   29   30 am   BACKBONE|DICT|INTERRES
    61   29  154 1    
    62   30   31 2    
    63   30   32 1    
    64   32   33 1    
    65   32   34 1    
    66   32  155 1    
    67   33  156 1    
    68   33  157 1    
    69   33  158 1    
    70   34   35 am   BACKBONE|DICT|INTERRES
    71   34  159 1    
    72   35   36 2    
    73   35   37 1    
    74   37   38 1    
    75   37   39 1    
    76   37  160 1    
    77   38  161 1    
    78   38  162 1    
    79   38  163 1    
    80   39   40 am   BACKBONE|DICT|INTERRES
    81   39  164 1    
    82   40   41 2    
    83   40   42 1    
    84   42   43 1    
    85   42   44 1    
    86   42  165 1    
    87   43  166 1    
    88   43  167 1    
    89   43  168 1    
    90   44   45 am   BACKBONE|DICT|INTERRES
    91   44  169 1    
    92   45   46 2    
    93   45   47 1    
    94   47   48 1    
    95   47   49 1    
    96   47  170 1    
    97   48  171 1    
    98   48  172 1    
    99   48  173 1    
   100   49   50 am   BACKBONE|DICT|INTERRES
   101   49  174 1    
   102   50   51 2    
   103   50   52 1    
   104   52   53 1    
   105   52   54 1    
   106   52  175 1    
   107   53  176 1    
   108   53  177 1    
   109   53  178 1    
   110   54   55 am   BACKBONE|DICT|INTERRES
   111   54  179 1    
   112   55   56 2    
   113   55   57 1    
   114   57   58 1    
   115   57   59 1    
   116   57  180 1    
   117   58  181 1    
   118   58  182 1    
   119   58  183 1    
   120   59   60 am   BACKBONE|DICT|INTERRES
   121   59  184 1    
   122   60   61 2    
   123   60   62 1    
   124   62   63 1    
   125   62   64 1    
   126   62  185 1    
   127   63  186 1    
   128   63  187 1    
   129   63  188 1    
   130   64   65 am   BACKBONE|DICT|INTERRES
   131   64  189 1    
   132   65   66 2    
   133   67   68 2    
   134   67   69 am   BACKBONE|DICT|INTERRES
   135   69   70 1    
   136   69  190 1    
   137   70   71 1    
   138   70   72 1    
   139   70  191 1    
   140   71  192 1    
   141   71  193 1    
   142   71  194 1    
   143   72   73 2    
   144   72   74 am   BACKBONE|DICT|INTERRES
   145   74   75 1    
   146   74  195 1    
   147   75   76 1    
   148   75   77 1    
   149   75  196 1    
   150   76  197 1    
   151   76  198 1    
   152   76  199 1    
   153   77   78 2    
   154   77   79 am   BACKBONE|DICT|INTERRES
   155   79   80 1    
   156   79  200 1    
   157   80   81 1    
   158   80   82 1    
   159   80  201 1    
   160   81  202 1    
   161   81  203 1    
   162   81  204 1    
   163   82   83 2    
   164   82   84 am   BACKBONE|DICT|INTERRES
   165   84   85 1    
   166   84  205 1    
   167   85   86 1    
   168   85   87 1    
   169   85  206 1    
   170   86  207 1    
   171   86  208 1    
   172   86  209 1    
   173   87   88 2    
   174   87   89 am   BACKBONE|DICT|INTERRES
   175   89   90 1    
   176   89  210 1    
   177   90   91 1    
   178   90   92 1    
   179   90  211 1    
   180   91  212 1    
   181   91  213 1    
   182   91  214 1    
   183   92   93 2    
   184   92   94 am   BACKBONE|DICT|INTERRES
   185   94   95 1    
   186   94  215 1    
   187   95   96 1    
   188   95   97 1    
   189   95  216 1    
   190   96  217 1    
   191   96  218 1    
   192   96  219 1    
   193   97   98 2    
   194   97   99 am   BACKBONE|DICT|INTERRES
   195   99  100 1    
   196   99  220 1    
   197  100  101 1    
   198  100  102 1    
   199  100  221 1    
   200  101  222 1    
   201  101  223 1    
   202  101  224 1    
   203  102  103 2    
   204  102  104 am   BACKBONE|DICT|INTERRES
   205  104  105 1    
   206  104  225 1    
   207  105  106 1    
   208  105  107 1    
   209  105  226 1    
   210  106  227 1    
   211  106  228 1    
   212  106  229 1    
   213  107  108 2    
   214  107  109 am   BACKBONE|DICT|INTERRES
   215  109  110 1    
   216  109  230 1    
   217  110  111 1    
   218  110  112 1    
   219  110  231 1    
   220  111  232 1    
   221  111  233 1    
   222  111  234 1    
   223  112  113 2    
   224  112  114 am   BACKBONE|DICT|INTERRES
   225  114  115 1    
   226  114  235 1    
   227  115  116 1    
   228  115  117 1    
   229  115  236 1    
   230  116  237 1    
   231  116  238 1    
   232  116  239 1    
   233  117  118 2    
   234  117  119 am   BACKBONE|DICT|INTERRES
   235  119  120 1    
   236  119  240 1    
   237  120  121 1    
   238  120  124 1    
   239  120  241 1    
   240  121  122 am   BACKBONE|DICT|INTERRES
   241  121  123 2    
   242  122  242 1    
   243  122  243 1    
   244  124  125 1    
   245  124  244 1    
   246  124  245 1    
   247  125  126 1    
   248  126  246 1    
   249  126  247 1    
@<TRIPOS>SUBSTRUCTURE
     1 UNK         1 GROUP             0       ****    0 ROOT    
