@<TRIPOS>MOLECULE
3R540
247   249    1
SMALL
USER_CHARGES


@<TRIPOS>ATOM
      1 CA          6.2053  -13.6459  -42.0917 C.3       0 UNK        -0.1800 
      2 C           5.1431  -14.2298  -43.0125 C.2       0 UNK         0.5000 
      3 O           4.0666  -14.6015  -42.5458 O.2       0 UNK        -0.5000 
      4 N           5.4439  -14.3145  -44.3156 N.am      1 UNK        -0.5000 
      5 CA          4.5373  -14.8209  -45.3542 C.3       1 UNK         0.1400 
      6 C6          5.3025  -15.1315  -46.6698 C.3       23 UNK        -0.0398 
      7 S7          4.6508  -16.5725  -47.5786 S.3       23 UNK        -0.2404 
      8 C8          3.4769  -15.7834  -48.7335 C.3       23 UNK        -0.0205 
      9 C9          2.9142  -16.7077  -49.8129 C.ar      23 UNK        -0.0193 
     10 C10         2.5228  -16.1555  -51.0349 C.ar      23 UNK        -0.1150 
     11 C11         1.9932  -16.9574  -52.0479 C.ar      23 UNK        -0.0193 
     12 C12         1.8536  -18.3315  -51.8324 C.ar      23 UNK        -0.1150 
     13 C13         2.2424  -18.9119  -50.6189 C.ar      23 UNK        -0.0193 
     14 C14         2.7556  -18.0839  -49.6105 C.ar      23 UNK        -0.1150 
     15 C15         2.0878  -20.4284  -50.4487 C.3       23 UNK        -0.0205 
     16 S16         3.1334  -21.2000  -49.1636 S.3       23 UNK        -0.2404 
     17 C17         2.1834  -20.8634  -47.6408 C.3       23 UNK        -0.0398 
     18 CA          1.5753  -22.1438  -47.0213 C.3       11 UNK         0.1400 
     19 N           1.4510  -22.0439  -45.5658 N.am      11 UNK        -0.5000 
     20 C           1.2649  -23.0938  -44.7532 C.2       10 UNK         0.5000 
     21 O           1.2020  -24.2584  -45.1450 O.2       10 UNK        -0.5000 
     22 CA          1.0649  -22.7802  -43.2600 C.3       10 UNK         0.1400 
     23 CB          2.4182  -22.6495  -42.5467 C.3       10 UNK        -0.1800 
     24 N           0.2846  -21.5610  -43.0463 N.am      10 UNK        -0.5000 
     25 C          -0.9937  -21.3960  -43.4062 C.2       9 UNK         0.5000 
     26 O          -1.6648  -22.2778  -43.9426 O.2       9 UNK        -0.5000 
     27 CA         -1.6095  -20.0043  -43.1830 C.3       9 UNK         0.1400 
     28 CB         -1.9459  -19.7591  -41.7007 C.3       9 UNK        -0.1800 
     29 N          -0.8098  -18.9134  -43.7504 N.am      9 UNK        -0.5000 
     30 C           0.3841  -18.4330  -43.3721 C.2       8 UNK         0.5000 
     31 O           1.0493  -18.8880  -42.4408 O.2       8 UNK        -0.5000 
     32 CA          0.9347  -17.2529  -44.1962 C.3       8 UNK         0.1400 
     33 CB          1.7314  -17.7831  -45.3987 C.3       8 UNK        -0.1800 
     34 N          -0.1186  -16.3560  -44.6765 N.am      8 UNK        -0.5000 
     35 C          -0.9071  -15.6050  -43.8930 C.2       7 UNK         0.5000 
     36 O          -0.7921  -15.5348  -42.6688 O.2       7 UNK        -0.5000 
     37 CA         -2.0430  -14.8328  -44.5874 C.3       7 UNK         0.1400 
     38 CB         -1.5406  -13.5032  -45.1671 C.3       7 UNK        -0.1800 
     39 N          -2.6643  -15.6300  -45.6449 N.am      7 UNK        -0.5000 
     40 C          -3.5906  -16.5757  -45.4293 C.2       6 UNK         0.5000 
     41 O          -4.0704  -16.8231  -44.3230 O.2       6 UNK        -0.5000 
     42 CA         -4.0517  -17.3984  -46.6493 C.3       6 UNK         0.1400 
     43 CB         -5.3032  -16.7752  -47.2865 C.3       6 UNK        -0.1800 
     44 N          -3.0216  -17.5351  -47.6766 N.am      6 UNK        -0.5000 
     45 C          -1.8636  -18.1897  -47.5204 C.2       5 UNK         0.5000 
     46 O          -1.5347  -18.7843  -46.4946 O.2       5 UNK        -0.5000 
     47 CA         -0.8972  -18.1347  -48.7097 C.3       5 UNK         0.1400 
     48 CB         -1.3080  -19.1806  -49.7568 C.3       5 UNK        -0.1800 
     49 N          -0.8404  -16.8030  -49.3157 N.am      5 UNK        -0.5000 
     50 C          -0.4260  -15.7009  -48.6798 C.2       4 UNK         0.5000 
     51 O          -0.0353  -15.6929  -47.5127 O.2       4 UNK        -0.5000 
     52 CA         -0.5250  -14.3810  -49.4465 C.3       4 UNK         0.1400 
     53 CB         -1.8028  -13.6172  -49.0573 C.3       4 UNK        -0.1800 
     54 N           0.6487  -13.5645  -49.1568 N.am      4 UNK        -0.5000 
     55 C           1.1373  -12.6279  -49.9780 C.2       3 UNK         0.5000 
     56 O           0.6139  -12.3437  -51.0565 O.2       3 UNK        -0.5000 
     57 CA          2.4415  -11.9099  -49.5612 C.3       3 UNK         0.1400 
     58 CB          2.5183  -10.4675  -50.1051 C.3       3 UNK        -0.1800 
     59 N           2.7431  -11.9282  -48.1244 N.am      3 UNK        -0.5000 
     60 C           2.0276  -11.3907  -47.1237 C.2       2 UNK         0.5000 
     61 O           0.9302  -10.8532  -47.2772 O.2       2 UNK        -0.5000 
     62 CA          2.6806  -11.4345  -45.7208 C.3       2 UNK         0.1400 
     63 CB          1.6544  -11.4018  -44.5702 C.3       2 UNK        -0.1800 
     64 N           3.6311  -12.5403  -45.5317 N.am      2 UNK        -0.5000 
     65 C           3.3590  -13.8536  -45.6059 C.2       1 UNK         0.5000 
     66 O           2.2456  -14.3013  -45.8667 O.2       1 UNK        -0.5000 
     67 C           0.2346  -22.5345  -47.6796 C.2       11 UNK         0.5000 
     68 O           0.2362  -23.3287  -48.6183 O.2       11 UNK        -0.5000 
     69 N          -0.8897  -22.0239  -47.1492 N.am      12 UNK        -0.5000 
     70 CA         -2.2353  -22.4294  -47.5633 C.3       12 UNK         0.1400 
     71 CB         -3.3030  -21.4937  -46.9778 C.3       12 UNK        -0.1800 
     72 C          -2.5447  -23.8907  -47.2099 C.2       12 UNK         0.5000 
     73 O          -3.1126  -24.5982  -48.0410 O.2       12 UNK        -0.5000 
     74 N          -2.1416  -24.3243  -46.0075 N.am      13 UNK        -0.5000 
     75 CA         -2.2507  -25.7090  -45.5469 C.3       13 UNK         0.1400 
     76 CB         -1.8536  -25.7987  -44.0662 C.3       13 UNK        -0.1800 
     77 C          -1.4204  -26.6787  -46.4082 C.2       13 UNK         0.5000 
     78 O          -1.9405  -27.7157  -46.8214 O.2       13 UNK        -0.5000 
     79 N          -0.1735  -26.2940  -46.7207 N.am      14 UNK        -0.5000 
     80 CA          0.7283  -27.0170  -47.6239 C.3       14 UNK         0.1400 
     81 CB          2.1124  -26.3519  -47.6041 C.3       14 UNK        -0.1800 
     82 C           0.1955  -27.1156  -49.0678 C.2       14 UNK         0.5000 
     83 O           0.4268  -28.1243  -49.7344 O.2       14 UNK        -0.5000 
     84 N          -0.5517  -26.0930  -49.5027 N.am      15 UNK        -0.5000 
     85 CA         -1.2680  -26.0290  -50.7779 C.3       15 UNK         0.1400 
     86 CB         -1.3918  -24.5543  -51.1967 C.3       15 UNK        -0.1800 
     87 C          -2.6416  -26.7417  -50.7523 C.2       15 UNK         0.5000 
     88 O          -3.4489  -26.5189  -51.6555 O.2       15 UNK        -0.5000 
     89 N          -2.8793  -27.5924  -49.7417 N.am      16 UNK        -0.5000 
     90 CA         -4.0663  -28.4254  -49.5264 C.3       16 UNK         0.1400 
     91 CB         -4.2680  -29.4288  -50.6823 C.3       16 UNK        -0.1800 
     92 C          -5.3242  -27.5976  -49.1998 C.2       16 UNK         0.5000 
     93 O          -6.3893  -27.8290  -49.7751 O.2       16 UNK        -0.5000 
     94 N          -5.1632  -26.6593  -48.2567 N.am      17 UNK        -0.5000 
     95 CA         -6.1710  -25.7357  -47.7276 C.3       17 UNK         0.1400 
     96 CB         -7.3189  -26.4946  -47.0285 C.3       17 UNK        -0.1800 
     97 C          -6.6508  -24.7339  -48.7947 C.2       17 UNK         0.5000 
     98 O          -7.8509  -24.6165  -49.0530 O.2       17 UNK        -0.5000 
     99 N          -5.6844  -24.0330  -49.4011 N.am      18 UNK        -0.5000 
    100 CA        -5.9147  -22.9509  -50.3592 C.3       18 UNK         0.1400 
    101 CB        -4.5833  -22.5886  -51.0344 C.3       18 UNK        -0.1800 
    102 C         -6.5507  -21.7063  -49.7056 C.2       18 UNK         0.5000 
    103 O         -6.4698  -21.5254  -48.4884 O.2       18 UNK        -0.5000 
    104 N         -7.1537  -20.8576  -50.5402 N.am      19 UNK        -0.5000 
    105 CA        -7.7937  -19.6005  -50.1682 C.3       19 UNK         0.1400 
    106 CB        -9.2486  -19.8716  -49.7407 C.3       19 UNK        -0.1800 
    107 C         -7.7176  -18.6370  -51.3635 C.2       19 UNK         0.5000 
    108 O         -7.2669  -19.0410  -52.4391 O.2       19 UNK        -0.5000 
    109 N         -8.1708  -17.3927  -51.1486 N.am      20 UNK        -0.5000 
    110 CA        -8.1406  -16.2597  -52.0817 C.3       20 UNK         0.1400 
    111 CB        -8.9473  -16.5514  -53.3654 C.3       20 UNK        -0.1800 
    112 C         -6.6914  -15.8212  -52.3613 C.2       20 UNK         0.5000 
    113 O         -6.1304  -16.1351  -53.4137 O.2       20 UNK        -0.5000 
    114 N         -6.1025  -15.1360  -51.3707 N.am      21 UNK        -0.5000 
    115 CA        -4.7124  -14.6767  -51.3180 C.3       21 UNK         0.1400 
    116 CB        -4.4393  -13.5848  -52.3767 C.3       21 UNK        -0.1800 
    117 C         -3.7396  -15.8700  -51.3726 C.2       21 UNK         0.5000 
    118 O         -3.6418  -16.6002  -50.3853 O.2       21 UNK        -0.5000 
    119 N         -3.0487  -16.0521  -52.5035 N.am      22 UNK        -0.5000 
    120 CA        -2.2052  -17.2237  -52.7914 C.3       22 UNK         0.1400 
    121 C         -3.0031  -18.5087  -53.1643 C.2       22 UNK         0.5000 
    122 N         -4.3041  -18.4410  -53.4169 N.am      22 UNK        -0.7600 
    123 O         -2.4280  -19.5915  -53.2132 O.2       22 UNK        -0.5000 
    124 C124       -1.1204  -16.9183  -53.8525 C.3       23 UNK        -0.0398 
    125 S125       -0.0180  -15.5471  -53.3613 S.3       23 UNK        -0.2404 
    126 C126        1.6252  -16.3334  -53.3866 C.3       23 UNK        -0.0205 
    127 H127        5.8207  -12.7565  -41.5927 H         1 UNK         0.0600 
    128 H128        7.1070  -13.3667  -42.6372 H         1 UNK         0.0600 
    129 H129        6.4814  -14.3737  -41.3287 H         1 UNK         0.0600 
    130 H130        6.3521  -14.0031  -44.6304 H         1 UNK         0.3000 
    131 H131        4.1140  -15.7527  -44.9720 H         1 UNK         0.0600 
    132 H132        5.3673  -14.2631  -47.3278 H         1 UNK         0.0800 
    133 H133        6.3379  -15.3870  -46.4397 H         1 UNK         0.0800 
    134 H134        2.6394  -15.3860  -48.1641 H         1 UNK         0.0800 
    135 H135        3.9735  -14.9346  -49.2052 H         1 UNK         0.0800 
    136 H136        2.6339  -15.0940  -51.2054 H         1 UNK         0.1150 
    137 H137        1.4532  -18.9553  -52.6193 H         1 UNK         0.1150 
    138 H138        3.0452  -18.5054  -48.6621 H         1 UNK         0.1150 
    139 H139        1.0455  -20.6786  -50.2571 H         1 UNK         0.0800 
    140 H140        2.3409  -20.9101  -51.3944 H         1 UNK         0.0800 
    141 H141        1.4198  -20.1084  -47.8202 H         1 UNK         0.0800 
    142 H142        2.8882  -20.4105  -46.9419 H         1 UNK         0.0800 
    143 H143        2.2708  -22.9650  -47.2094 H         1 UNK         0.0600 
    144 H144        1.4820  -21.1217  -45.1589 H         1 UNK         0.3000 
    145 H145        0.5193  -23.6140  -42.8137 H         1 UNK         0.0600 
    146 H146        2.2851  -22.5033  -41.4746 H         1 UNK         0.0600 
    147 H147        3.0185  -23.5506  -42.6794 H         1 UNK         0.0600 
    148 H148        2.9971  -21.8082  -42.9299 H         1 UNK         0.0600 
    149 H149        0.7616  -20.7626  -42.6357 H         1 UNK         0.3000 
    150 H150       -2.5509  -19.9872  -43.7347 H         1 UNK         0.0600 
    151 H151       -2.6291  -20.5229  -41.3275 H         1 UNK         0.0600 
    152 H152       -2.4318  -18.7928  -41.5647 H         1 UNK         0.0600 
    153 H153       -1.0586  -19.7801  -41.0676 H         1 UNK         0.0600 
    154 H154       -1.1913  -18.5301  -44.6111 H         1 UNK         0.3000 
    155 H155        1.6073  -16.6730  -43.5608 H         1 UNK         0.0600 
    156 H156        2.1073  -16.9673  -46.0140 H         1 UNK         0.0600 
    157 H157        1.1191  -18.4174  -46.0382 H         1 UNK         0.0600 
    158 H158        2.5910  -18.3698  -45.0729 H         1 UNK         0.0600 
    159 H159       -0.2114  -16.2703  -45.6848 H         1 UNK         0.3000 
    160 H160       -2.7996  -14.5988  -43.8352 H         1 UNK         0.0600 
    161 H161       -2.3342  -12.9769  -45.6972 H         1 UNK         0.0600 
    162 H162       -0.7074  -13.6460  -45.8566 H         1 UNK         0.0600 
    163 H163       -1.1991  -12.8455  -44.3680 H         1 UNK         0.0600 
    164 H164       -2.2828  -15.5277  -46.5735 H         1 UNK         0.3000 
    165 H165       -4.3073  -18.3993  -46.2951 H         1 UNK         0.0600 
    166 H166       -5.6740  -17.3897  -48.1072 H         1 UNK         0.0600 
    167 H167       -6.1095  -16.6831  -46.5578 H         1 UNK         0.0600 
    168 H168       -5.0988  -15.7792  -47.6815 H         1 UNK         0.0600 
    169 H169       -3.2198  -17.1178  -48.5827 H         1 UNK         0.3000 
    170 H170        0.1029  -18.3692  -48.3472 H         1 UNK         0.0600 
    171 H171       -0.6685  -19.1420  -50.6364 H         1 UNK         0.0600 
    172 H172       -1.2347  -20.1880  -49.3486 H         1 UNK         0.0600 
    173 H173       -2.3377  -19.0421  -50.0887 H         1 UNK         0.0600 
    174 H174       -1.2115  -16.7188  -50.2496 H         1 UNK         0.3000 
    175 H175       -0.5565  -14.6145  -50.5127 H         1 UNK         0.0600 
    176 H176       -1.7047  -13.1477  -48.0791 H         1 UNK         0.0600 
    177 H177       -2.0248  -12.8319  -49.7799 H         1 UNK         0.0600 
    178 H178       -2.6666  -14.2792  -49.0122 H         1 UNK         0.0600 
    179 H179        1.1057  -13.7624  -48.2743 H         1 UNK         0.3000 
    180 H180        3.2443  -12.4748  -50.0367 H         1 UNK         0.0600 
    181 H181        3.4582   -9.9902  -49.8278 H         1 UNK         0.0600 
    182 H182        1.7034   -9.8498  -49.7263 H         1 UNK         0.0600 
    183 H183        2.4604  -10.4523  -51.1941 H         1 UNK         0.0600 
    184 H184        3.6293  -12.3411  -47.8748 H         1 UNK         0.3000 
    185 H185        3.2689  -10.5186  -45.6506 H         1 UNK         0.0600 
    186 H186        2.1530  -11.3285  -43.6038 H         1 UNK         0.0600 
    187 H187        0.9859  -10.5443  -44.6546 H         1 UNK         0.0600 
    188 H188        1.0399  -12.3000  -44.5570 H         1 UNK         0.0600 
    189 H189        4.5763  -12.2676  -45.3012 H         1 UNK         0.3000 
    190 H190       -0.8287  -21.3866  -46.3687 H         1 UNK         0.3000 
    191 H191       -2.2857  -22.3509  -48.6498 H         1 UNK         0.0600 
    192 H192       -4.2938  -21.9475  -47.0176 H         1 UNK         0.0600 
    193 H193       -3.3652  -20.5696  -47.5483 H         1 UNK         0.0600 
    194 H194       -3.1055  -21.2399  -45.9372 H         1 UNK         0.0600 
    195 H195       -1.7453  -23.6543  -45.3553 H         1 UNK         0.3000 
    196 H196       -3.2987  -26.0037  -45.6315 H         1 UNK         0.0600 
    197 H197       -0.8134  -25.5165  -43.9065 H         1 UNK         0.0600 
    198 H198       -2.4739  -25.1455  -43.4521 H         1 UNK         0.0600 
    199 H199       -1.9786  -26.8150  -43.6906 H         1 UNK         0.0600 
    200 H200        0.1964  -25.4480  -46.2957 H         1 UNK         0.3000 
    201 H201        0.8332  -28.0342  -47.2413 H         1 UNK         0.0600 
    202 H202        2.0695  -25.3250  -47.9673 H         1 UNK         0.0600 
    203 H203        2.8160  -26.8946  -48.2366 H         1 UNK         0.0600 
    204 H204        2.5278  -26.3341  -46.5963 H         1 UNK         0.0600 
    205 H205       -0.6443  -25.2805  -48.9045 H         1 UNK         0.3000 
    206 H206       -0.6702  -26.5364  -51.5374 H         1 UNK         0.0600 
    207 H207       -0.4115  -24.0832  -51.2706 H         1 UNK         0.0600 
    208 H208       -1.8701  -24.4544  -52.1716 H         1 UNK         0.0600 
    209 H209       -1.9797  -23.9849  -50.4781 H         1 UNK         0.0600 
    210 H210       -2.1744  -27.6657  -49.0188 H         1 UNK         0.3000 
    211 H211       -3.8567  -29.0113  -48.6302 H         1 UNK         0.0600 
    212 H212       -5.0611  -30.1389  -50.4456 H         1 UNK         0.0600 
    213 H213       -3.3616  -30.0056  -50.8663 H         1 UNK         0.0600 
    214 H214       -4.5450  -28.9321  -51.6124 H         1 UNK         0.0600 
    215 H215       -4.2182  -26.4816  -47.9397 H         1 UNK         0.3000 
    216 H216       -5.6674  -25.1436  -46.9619 H         1 UNK         0.0600 
    217 H217       -7.9976  -25.7988  -46.5340 H         1 UNK         0.0600 
    218 H218       -7.9116  -27.0810  -47.7308 H         1 UNK         0.0600 
    219 H219       -6.9359  -27.1717  -46.2651 H         1 UNK         0.0600 
    220 H220       -4.7262  -24.1965  -49.1100 H         1 UNK         0.3000 
    221 H221       -6.6003  -23.3214  -51.1243 H         1 UNK         0.0600 
    222 H222       -4.1480  -23.4563  -51.5296 H         1 UNK         0.0600 
    223 H223       -3.8590  -22.2057  -50.3169 H         1 UNK         0.0600 
    224 H224       -4.7219  -21.8200  -51.7960 H         1 UNK         0.0600 
    225 H225       -7.1115  -21.0099  -51.5406 H         1 UNK         0.3000 
    226 H226       -7.2466  -19.1449  -49.3401 H         1 UNK         0.0600 
    227 H227       -9.8318  -20.2994  -50.5572 H         1 UNK         0.0600 
    228 H228       -9.2903  -20.5666  -48.9018 H         1 UNK         0.0600 
    229 H229       -9.7484  -18.9562  -49.4228 H         1 UNK         0.0600 
    230 H230       -8.5238  -17.1747  -50.2274 H         1 UNK         0.3000 
    231 H231       -8.6367  -15.4287  -51.5776 H         1 UNK         0.0600 
    232 H232       -8.5015  -17.3435  -53.9672 H         1 UNK         0.0600 
    233 H233       -9.0018  -15.6626  -53.9948 H         1 UNK         0.0600 
    234 H234       -9.9696  -16.8460  -53.1291 H         1 UNK         0.0600 
    235 H235       -6.6379  -14.9709  -50.5302 H         1 UNK         0.3000 
    236 H236       -4.5830  -14.2173  -50.3379 H         1 UNK         0.0600 
    237 H237       -3.4129  -13.2214  -52.3073 H         1 UNK         0.0600 
    238 H238       -4.5981  -13.9376  -53.3959 H         1 UNK         0.0600 
    239 H239       -5.0930  -12.7262  -52.2232 H         1 UNK         0.0600 
    240 H240       -3.2005  -15.4140  -53.2709 H         1 UNK         0.3000 
    241 H241       -1.6726  -17.4692  -51.8763 H         1 UNK         0.0600 
    242 H242       -4.8100  -17.5611  -53.3849 H         1 UNK         0.3800 
    243 H243       -4.8140  -19.2828  -53.6303 H         1 UNK         0.3800 
    244 H244       -1.5850  -16.6585  -54.8049 H         1 UNK         0.0800 
    245 H245       -0.5187  -17.8082  -54.0441 H         1 UNK         0.0800 
    246 H246        1.6835  -17.0705  -54.1888 H         1 UNK         0.0800 
    247 H247        2.3638  -15.5703  -53.6363 H         1 UNK         0.0800 
@<TRIPOS>BOND
     1    1    2 1    
     2    1  127 1    
     3    1  128 1    
     4    1  129 1    
     5    2    3 2    
     6    2    4 am   BACKBONE|DICT|INTERRES
     7    4    5 1    
     8    4  130 1    
     9    5    6 1    
    10    5   65 1    
    11    5  131 1    
    12    6    7 1    
    13    6  132 1    
    14    6  133 1    
    15    7    8 1    
    16    8    9 1    
    17    8  134 1    
    18    8  135 1    
    19    9   10 ar   
    20    9   14 ar   
    21   10   11 ar   
    22   10  136 1    
    23   11   12 ar   
    24   11  126 1    
    25   12   13 ar   
    26   12  137 1    
    27   13   14 ar   
    28   13   15 1    
    29   14  138 1    
    30   15   16 1    
    31   15  139 1    
    32   15  140 1    
    33   16   17 1    
    34   17   18 1    
    35   17  141 1    
    36   17  142 1    
    37   18   19 1    
    38   18   67 1    
    39   18  143 1    
    40   19   20 am   BACKBONE|DICT|INTERRES
    41   19  144 1    
    42   20   21 2    
    43   20   22 1    
    44   22   23 1    
    45   22   24 1    
    46   22  145 1    
    47   23  146 1    
    48   23  147 1    
    49   23  148 1    
    50   24   25 am   BACKBONE|DICT|INTERRES
    51   24  149 1    
    52   25   26 2    
    53   25   27 1    
    54   27   28 1    
    55   27   29 1    
    56   27  150 1    
    57   28  151 1    
    58   28  152 1    
    59   28  153 1    
    60   29   30 am   BACKBONE|DICT|INTERRES
    61   29  154 1    
    62   30   31 2    
    63   30   32 1    
    64   32   33 1    
    65   32   34 1    
    66   32  155 1    
    67   33  156 1    
    68   33  157 1    
    69   33  158 1    
    70   34   35 am   BACKBONE|DICT|INTERRES
    71   34  159 1    
    72   35   36 2    
    73   35   37 1    
    74   37   38 1    
    75   37   39 1    
    76   37  160 1    
    77   38  161 1    
    78   38  162 1    
    79   38  163 1    
    80   39   40 am   BACKBONE|DICT|INTERRES
    81   39  164 1    
    82   40   41 2    
    83   40   42 1    
    84   42   43 1    
    85   42   44 1    
    86   42  165 1    
    87   43  166 1    
    88   43  167 1    
    89   43  168 1    
    90   44   45 am   BACKBONE|DICT|INTERRES
    91   44  169 1    
    92   45   46 2    
    93   45   47 1    
    94   47   48 1    
    95   47   49 1    
    96   47  170 1    
    97   48  171 1    
    98   48  172 1    
    99   48  173 1    
   100   49   50 am   BACKBONE|DICT|INTERRES
   101   49  174 1    
   102   50   51 2    
   103   50   52 1    
   104   52   53 1    
   105   52   54 1    
   106   52  175 1    
   107   53  176 1    
   108   53  177 1    
   109   53  178 1    
   110   54   55 am   BACKBONE|DICT|INTERRES
   111   54  179 1    
   112   55   56 2    
   113   55   57 1    
   114   57   58 1    
   115   57   59 1    
   116   57  180 1    
   117   58  181 1    
   118   58  182 1    
   119   58  183 1    
   120   59   60 am   BACKBONE|DICT|INTERRES
   121   59  184 1    
   122   60   61 2    
   123   60   62 1    
   124   62   63 1    
   125   62   64 1    
   126   62  185 1    
   127   63  186 1    
   128   63  187 1    
   129   63  188 1    
   130   64   65 am   BACKBONE|DICT|INTERRES
   131   64  189 1    
   132   65   66 2    
   133   67   68 2    
   134   67   69 am   BACKBONE|DICT|INTERRES
   135   69   70 1    
   136   69  190 1    
   137   70   71 1    
   138   70   72 1    
   139   70  191 1    
   140   71  192 1    
   141   71  193 1    
   142   71  194 1    
   143   72   73 2    
   144   72   74 am   BACKBONE|DICT|INTERRES
   145   74   75 1    
   146   74  195 1    
   147   75   76 1    
   148   75   77 1    
   149   75  196 1    
   150   76  197 1    
   151   76  198 1    
   152   76  199 1    
   153   77   78 2    
   154   77   79 am   BACKBONE|DICT|INTERRES
   155   79   80 1    
   156   79  200 1    
   157   80   81 1    
   158   80   82 1    
   159   80  201 1    
   160   81  202 1    
   161   81  203 1    
   162   81  204 1    
   163   82   83 2    
   164   82   84 am   BACKBONE|DICT|INTERRES
   165   84   85 1    
   166   84  205 1    
   167   85   86 1    
   168   85   87 1    
   169   85  206 1    
   170   86  207 1    
   171   86  208 1    
   172   86  209 1    
   173   87   88 2    
   174   87   89 am   BACKBONE|DICT|INTERRES
   175   89   90 1    
   176   89  210 1    
   177   90   91 1    
   178   90   92 1    
   179   90  211 1    
   180   91  212 1    
   181   91  213 1    
   182   91  214 1    
   183   92   93 2    
   184   92   94 am   BACKBONE|DICT|INTERRES
   185   94   95 1    
   186   94  215 1    
   187   95   96 1    
   188   95   97 1    
   189   95  216 1    
   190   96  217 1    
   191   96  218 1    
   192   96  219 1    
   193   97   98 2    
   194   97   99 am   BACKBONE|DICT|INTERRES
   195   99  100 1    
   196   99  220 1    
   197  100  101 1    
   198  100  102 1    
   199  100  221 1    
   200  101  222 1    
   201  101  223 1    
   202  101  224 1    
   203  102  103 2    
   204  102  104 am   BACKBONE|DICT|INTERRES
   205  104  105 1    
   206  104  225 1    
   207  105  106 1    
   208  105  107 1    
   209  105  226 1    
   210  106  227 1    
   211  106  228 1    
   212  106  229 1    
   213  107  108 2    
   214  107  109 am   BACKBONE|DICT|INTERRES
   215  109  110 1    
   216  109  230 1    
   217  110  111 1    
   218  110  112 1    
   219  110  231 1    
   220  111  232 1    
   221  111  233 1    
   222  111  234 1    
   223  112  113 2    
   224  112  114 am   BACKBONE|DICT|INTERRES
   225  114  115 1    
   226  114  235 1    
   227  115  116 1    
   228  115  117 1    
   229  115  236 1    
   230  116  237 1    
   231  116  238 1    
   232  116  239 1    
   233  117  118 2    
   234  117  119 am   BACKBONE|DICT|INTERRES
   235  119  120 1    
   236  119  240 1    
   237  120  121 1    
   238  120  124 1    
   239  120  241 1    
   240  121  122 am   BACKBONE|DICT|INTERRES
   241  121  123 2    
   242  122  242 1    
   243  122  243 1    
   244  124  125 1    
   245  124  244 1    
   246  124  245 1    
   247  125  126 1    
   248  126  246 1    
   249  126  247 1    
@<TRIPOS>SUBSTRUCTURE
     1 UNK         1 GROUP             0       ****    0 ROOT    
