@<TRIPOS>MOLECULE
3R540
247   249    1
SMALL
USER_CHARGES


@<TRIPOS>ATOM
      1 CA         -3.4947  -11.1598  -50.9690 C.3       0 UNK        -0.1800 
      2 C          -2.8774  -12.1526  -49.9936 C.2       0 UNK         0.5000 
      3 O          -3.6060  -12.9480  -49.4020 O.2       0 UNK        -0.5000 
      4 N          -1.5470  -12.0851  -49.8281 N.am      1 UNK        -0.5000 
      5 CA         -0.6849  -12.9271  -48.9808 C.3       1 UNK         0.1400 
      6 C6         -0.2141  -14.2441  -49.6606 C.3       23 UNK        -0.0398 
      7 S7         -1.5009  -15.4748  -50.0911 S.3       23 UNK        -0.2404 
      8 C8         -0.9252  -16.9605  -49.1981 C.3       23 UNK        -0.0205 
      9 C9          0.0918  -17.8075  -49.9673 C.ar      23 UNK        -0.0193 
     10 C10         1.1659  -17.2294  -50.6549 C.ar      23 UNK        -0.1150 
     11 C11         2.1033  -18.0193  -51.3242 C.ar      23 UNK        -0.0193 
     12 C12         1.9643  -19.4079  -51.3122 C.ar      23 UNK        -0.1150 
     13 C13         0.9105  -20.0046  -50.6164 C.ar      23 UNK        -0.0193 
     14 C14        -0.0227  -19.2014  -49.9517 C.ar      23 UNK        -0.1150 
     15 C15         0.7848  -21.5190  -50.5791 C.3       23 UNK        -0.0205 
     16 S16         2.0921  -22.3089  -49.5814 S.3       23 UNK        -0.2404 
     17 C17         1.7745  -21.6472  -47.9085 C.3       23 UNK        -0.0398 
     18 CA          0.9209  -22.5903  -47.0291 C.3       11 UNK         0.1400 
     19 N           1.1051  -22.3552  -45.5937 N.am      11 UNK        -0.5000 
     20 C           0.6828  -23.2065  -44.6471 C.2       10 UNK         0.5000 
     21 O           0.1628  -24.2967  -44.8924 O.2       10 UNK        -0.5000 
     22 CA          0.8153  -22.7498  -43.1832 C.3       10 UNK         0.1400 
     23 CB          2.2753  -22.7518  -42.7084 C.3       10 UNK        -0.1800 
     24 N           0.1961  -21.4467  -42.9237 N.am      10 UNK        -0.5000 
     25 C          -1.1235  -21.2247  -43.0181 C.2       9 UNK         0.5000 
     26 O          -1.9247  -22.0421  -43.4701 O.2       9 UNK        -0.5000 
     27 CA         -1.6458  -19.8714  -42.5266 C.3       9 UNK         0.1400 
     28 CB         -1.4080  -19.6762  -41.0190 C.3       9 UNK        -0.1800 
     29 N          -1.0267  -18.7860  -43.2792 N.am      9 UNK        -0.5000 
     30 C          -1.7122  -17.8465  -43.9403 C.2       8 UNK         0.5000 
     31 O          -2.9417  -17.7747  -43.9482 O.2       8 UNK        -0.5000 
     32 CA         -0.9126  -16.7850  -44.7105 C.3       8 UNK         0.1400 
     33 CB         -0.8666  -15.4826  -43.9015 C.3       8 UNK        -0.1800 
     34 N           0.4570  -17.1562  -45.0604 N.am      8 UNK        -0.5000 
     35 C           0.8147  -18.0787  -45.9611 C.2       7 UNK         0.5000 
     36 O           0.0489  -18.9143  -46.4391 O.2       7 UNK        -0.5000 
     37 CA          2.2897  -18.0494  -46.3920 C.3       7 UNK         0.1400 
     38 CB          2.6197  -16.7600  -47.1631 C.3       7 UNK        -0.1800 
     39 N           3.1563  -18.1428  -45.2246 N.am      7 UNK        -0.5000 
     40 C           3.5673  -19.2945  -44.6825 C.2       6 UNK         0.5000 
     41 O           3.3284  -20.3999  -45.1660 O.2       6 UNK        -0.5000 
     42 CA          4.3255  -19.1924  -43.3438 C.3       6 UNK         0.1400 
     43 CB          5.8191  -18.9306  -43.5867 C.3       6 UNK        -0.1800 
     44 N           3.7877  -18.1500  -42.4669 N.am      6 UNK        -0.5000 
     45 C           2.5265  -18.1126  -42.0144 C.2       5 UNK         0.5000 
     46 O           1.7037  -19.0060  -42.2232 O.2       5 UNK        -0.5000 
     47 CA          2.0914  -16.8469  -41.2481 C.3       5 UNK         0.1400 
     48 CB          2.2045  -17.0785  -39.7346 C.3       5 UNK        -0.1800 
     49 N           2.8180  -15.6181  -41.6047 N.am      5 UNK        -0.5000 
     50 C           2.9130  -15.0898  -42.8335 C.2       4 UNK         0.5000 
     51 O           2.4419  -15.6224  -43.8393 O.2       4 UNK        -0.5000 
     52 CA          3.6859  -13.7629  -42.9629 C.3       4 UNK         0.1400 
     53 CB          5.1795  -13.9869  -42.6747 C.3       4 UNK        -0.1800 
     54 N           3.5645  -13.1979  -44.3116 N.am      4 UNK        -0.5000 
     55 C           2.5336  -12.5260  -44.8440 C.2       3 UNK         0.5000 
     56 O           2.5227  -12.2186  -46.0385 O.2       3 UNK        -0.5000 
     57 CA          1.3512  -12.0833  -43.9591 C.3       3 UNK         0.1400 
     58 CB          1.6679  -10.7706  -43.2187 C.3       3 UNK        -0.1800 
     59 N           0.1947  -11.8843  -44.8248 N.am      3 UNK        -0.5000 
     60 C          -1.0894  -11.9681  -44.4629 C.2       2 UNK         0.5000 
     61 O          -1.4554  -12.1410  -43.2997 O.2       2 UNK        -0.5000 
     62 CA         -2.1516  -11.8482  -45.5767 C.3       2 UNK         0.1400 
     63 CB         -2.9161  -10.5207  -45.4516 C.3       2 UNK        -0.1800 
     64 N          -1.6180  -11.9516  -46.9385 N.am      2 UNK        -0.5000 
     65 C          -1.1663  -13.0744  -47.5176 C.2       1 UNK         0.5000 
     66 O          -1.1093  -14.1607  -46.9427 O.2       1 UNK        -0.5000 
     67 C          -0.5686  -22.5237  -47.4150 C.2       11 UNK         0.5000 
     68 O          -1.0374  -23.3996  -48.1384 O.2       11 UNK        -0.5000 
     69 N          -1.2896  -21.5100  -46.9112 N.am      12 UNK        -0.5000 
     70 CA         -2.7099  -21.2737  -47.1779 C.3       12 UNK         0.1400 
     71 CB         -3.1896  -20.0404  -46.4056 C.3       12 UNK        -0.1800 
     72 C          -3.6187  -22.4768  -46.8746 C.2       12 UNK         0.5000 
     73 O          -4.4928  -22.7779  -47.6867 O.2       12 UNK        -0.5000 
     74 N          -3.3819  -23.1584  -45.7452 N.am      13 UNK        -0.5000 
     75 CA         -4.0985  -24.3705  -45.3456 C.3       13 UNK         0.1400 
     76 CB         -3.6865  -24.7673  -43.9203 C.3       13 UNK        -0.1800 
     77 C          -3.8817  -25.5418  -46.3207 C.2       13 UNK         0.5000 
     78 O          -4.8496  -26.2020  -46.7011 O.2       13 UNK        -0.5000 
     79 N          -2.6253  -25.7511  -46.7396 N.am      14 UNK        -0.5000 
     80 CA         -2.2397  -26.7576  -47.7330 C.3       14 UNK         0.1400 
     81 CB         -0.7096  -26.8957  -47.7496 C.3       14 UNK        -0.1800 
     82 C          -2.7778  -26.4322  -49.1401 C.2       14 UNK         0.5000 
     83 O          -3.1575  -27.3407  -49.8787 O.2       14 UNK        -0.5000 
     84 N          -2.8403  -25.1350  -49.4603 N.am      15 UNK        -0.5000 
     85 CA         -3.3716  -24.5643  -50.6957 C.3       15 UNK         0.1400 
     86 CB         -2.6783  -23.2148  -50.9414 C.3       15 UNK        -0.1800 
     87 C          -4.9083  -24.4225  -50.7193 C.2       15 UNK         0.5000 
     88 O          -5.4213  -23.7183  -51.5903 O.2       15 UNK        -0.5000 
     89 N          -5.6125  -25.0780  -49.7840 N.am      16 UNK        -0.5000 
     90 CA         -7.0718  -25.1570  -49.6623 C.3       16 UNK         0.1400 
     91 CB         -7.6764  -25.9196  -50.8604 C.3       16 UNK        -0.1800 
     92 C          -7.7206  -23.7780  -49.4327 C.2       16 UNK         0.5000 
     93 O          -8.5697  -23.3481  -50.2145 O.2       16 UNK        -0.5000 
     94 N          -7.2755  -23.1078  -48.3616 N.am      17 UNK        -0.5000 
     95 CA         -7.6407  -21.7497  -47.9438 C.3       17 UNK         0.1400 
     96 CB         -9.1461  -21.6365  -47.6215 C.3       17 UNK        -0.1800 
     97 C          -7.1390  -20.6908  -48.9453 C.2       17 UNK         0.5000 
     98 O          -7.8745  -19.7696  -49.3036 O.2       17 UNK        -0.5000 
     99 N          -5.8791  -20.8636  -49.3730 N.am      18 UNK        -0.5000 
    100 CA        -5.1284  -20.0187  -50.3086 C.3       18 UNK         0.1400 
    101 CB        -4.8758  -18.6210  -49.7024 C.3       18 UNK        -0.1800 
    102 C         -5.7350  -19.9556  -51.7279 C.2       18 UNK         0.5000 
    103 O         -5.5068  -18.9833  -52.4483 O.2       18 UNK        -0.5000 
    104 N         -6.4679  -21.0028  -52.1297 N.am      19 UNK        -0.5000 
    105 CA        -7.0147  -21.1580  -53.4783 C.3       19 UNK         0.1400 
    106 CB        -8.0796  -22.2647  -53.4730 C.3       19 UNK        -0.1800 
    107 C         -5.9134  -21.4636  -54.5100 C.2       19 UNK         0.5000 
    108 O         -5.9631  -20.9490  -55.6273 O.2       19 UNK        -0.5000 
    109 N         -4.9250  -22.2671  -54.0978 N.am      20 UNK        -0.5000 
    110 CA        -3.7498  -22.6482  -54.8830 C.3       20 UNK         0.1400 
    111 CB        -3.5699  -24.1736  -54.7840 C.3       20 UNK        -0.1800 
    112 C         -2.4866  -21.8791  -54.4372 C.2       20 UNK         0.5000 
    113 O         -1.3795  -22.4104  -54.5411 O.2       20 UNK        -0.5000 
    114 N         -2.6650  -20.6530  -53.9232 N.am      21 UNK        -0.5000 
    115 CA        -1.5854  -19.7459  -53.5230 C.3       21 UNK         0.1400 
    116 CB        -2.1864  -18.5712  -52.7377 C.3       21 UNK        -0.1800 
    117 C         -0.7547  -19.2365  -54.7187 C.2       21 UNK         0.5000 
    118 O         -1.1885  -19.3454  -55.8694 O.2       21 UNK        -0.5000 
    119 N          0.4294  -18.6891  -54.4185 N.am      22 UNK        -0.5000 
    120 CA         1.3729  -18.1419  -55.4041 C.3       22 UNK         0.1400 
    121 C          0.8355  -16.9183  -56.2076 C.2       22 UNK         0.5000 
    122 N          1.3747  -16.6683  -57.3940 N.am      22 UNK        -0.7600 
    123 O         -0.0403  -16.1792  -55.7624 O.2       22 UNK        -0.5000 
    124 C124        2.7627  -17.8711  -54.7692 C.3       23 UNK        -0.0398 
    125 S125        2.8030  -16.5097  -53.5473 S.3       23 UNK        -0.2404 
    126 C126        3.2880  -17.3635  -52.0158 C.3       23 UNK        -0.0205 
    127 H127       -4.0094  -11.6919  -51.7691 H         1 UNK         0.0600 
    128 H128       -4.2210  -10.5306  -50.4546 H         1 UNK         0.0600 
    129 H129       -2.7434  -10.5117  -51.4211 H         1 UNK         0.0600 
    130 H130       -1.0475  -11.3822  -50.3552 H         1 UNK         0.3000 
    131 H131        0.2241  -12.3319  -48.8766 H         1 UNK         0.0600 
    132 H132        0.3002  -13.9896  -50.5880 H         1 UNK         0.0800 
    133 H133        0.5448  -14.7151  -49.0343 H         1 UNK         0.0800 
    134 H134       -1.8060  -17.5627  -48.9707 H         1 UNK         0.0800 
    135 H135       -0.5077  -16.6711  -48.2340 H         1 UNK         0.0800 
    136 H136        1.2937  -16.1596  -50.6713 H         1 UNK         0.1150 
    137 H137        2.6905  -20.0288  -51.8182 H         1 UNK         0.1150 
    138 H138       -0.8330  -19.6636  -49.4056 H         1 UNK         0.1150 
    139 H139       -0.1906  -21.8083  -50.1920 H         1 UNK         0.0800 
    140 H140        0.8343  -21.9080  -51.5971 H         1 UNK         0.0800 
    141 H141        1.3362  -20.6528  -47.9689 H         1 UNK         0.0800 
    142 H142        2.7550  -21.5117  -47.4523 H         1 UNK         0.0800 
    143 H143        1.2578  -23.6118  -47.2207 H         1 UNK         0.0600 
    144 H144        1.5843  -21.5036  -45.3228 H         1 UNK         0.3000 
    145 H145        0.2816  -23.4824  -42.5735 H         1 UNK         0.0600 
    146 H146        2.3459  -22.5047  -41.6490 H         1 UNK         0.0600 
    147 H147        2.7266  -23.7353  -42.8444 H         1 UNK         0.0600 
    148 H148        2.8822  -22.0373  -43.2583 H         1 UNK         0.0600 
    149 H149        0.7974  -20.7075  -42.5717 H         1 UNK         0.3000 
    150 H150       -2.7263  -19.8817  -42.6849 H         1 UNK         0.0600 
    151 H151       -1.8745  -20.4784  -40.4460 H         1 UNK         0.0600 
    152 H152       -1.8410  -18.7371  -40.6744 H         1 UNK         0.0600 
    153 H153       -0.3491  -19.6661  -40.7628 H         1 UNK         0.0600 
    154 H154       -0.0136  -18.7736  -43.3050 H         1 UNK         0.3000 
    155 H155       -1.4448  -16.5904  -45.6439 H         1 UNK         0.0600 
    156 H156       -0.4326  -15.6300  -42.9136 H         1 UNK         0.0600 
    157 H157       -1.8673  -15.0712  -43.7643 H         1 UNK         0.0600 
    158 H158       -0.2705  -14.7307  -44.4155 H         1 UNK         0.0600 
    159 H159        1.1831  -16.5474  -44.6877 H         1 UNK         0.3000 
    160 H160        2.4748  -18.8894  -47.0620 H         1 UNK         0.0600 
    161 H161        3.6484  -16.7724  -47.5233 H         1 UNK         0.0600 
    162 H162        2.4927  -15.8671  -46.5499 H         1 UNK         0.0600 
    163 H163        1.9750  -16.6499  -48.0331 H         1 UNK         0.0600 
    164 H164        3.3185  -17.2806  -44.7185 H         1 UNK         0.3000 
    165 H165        4.2256  -20.1477  -42.8260 H         1 UNK         0.0600 
    166 H166        6.3776  -18.9340  -42.6505 H         1 UNK         0.0600 
    167 H167        6.2514  -19.7028  -44.2246 H         1 UNK         0.0600 
    168 H168        5.9863  -17.9695  -44.0747 H         1 UNK         0.0600 
    169 H169        4.3990  -17.3784  -42.2457 H         1 UNK         0.3000 
    170 H170        1.0387  -16.6845  -41.4824 H         1 UNK         0.0600 
    171 H171        1.6526  -17.9701  -39.4328 H         1 UNK         0.0600 
    172 H172        3.2416  -17.2133  -39.4248 H         1 UNK         0.0600 
    173 H173        1.7917  -16.2394  -39.1745 H         1 UNK         0.0600 
    174 H174        3.2477  -15.1263  -40.8341 H         1 UNK         0.3000 
    175 H175        3.2937  -13.0605  -42.2267 H         1 UNK         0.0600 
    176 H176        5.3407  -14.3512  -41.6594 H         1 UNK         0.0600 
    177 H177        5.7418  -13.0578  -42.7724 H         1 UNK         0.0600 
    178 H178        5.6180  -14.7152  -43.3585 H         1 UNK         0.0600 
    179 H179        4.3058  -13.4644  -44.9413 H         1 UNK         0.3000 
    180 H180        1.1168  -12.8695  -43.2406 H         1 UNK         0.0600 
    181 H181        1.8582   -9.9550  -43.9174 H         1 UNK         0.0600 
    182 H182        2.5502  -10.8696  -42.5865 H         1 UNK         0.0600 
    183 H183        0.8411  -10.4711  -42.5744 H         1 UNK         0.0600 
    184 H184        0.4283  -11.7796  -45.8039 H         1 UNK         0.3000 
    185 H185       -2.8613  -12.6653  -45.4309 H         1 UNK         0.0600 
    186 H186       -3.3688  -10.4202  -44.4642 H         1 UNK         0.0600 
    187 H187       -2.2588   -9.6630  -45.6000 H         1 UNK         0.0600 
    188 H188       -3.7218  -10.4588  -46.1835 H         1 UNK         0.0600 
    189 H189       -1.6330  -11.1055  -47.4894 H         1 UNK         0.3000 
    190 H190       -0.8096  -20.7906  -46.3814 H         1 UNK         0.3000 
    191 H191       -2.8019  -21.0545  -48.2424 H         1 UNK         0.0600 
    192 H192       -3.0622  -20.1719  -45.3316 H         1 UNK         0.0600 
    193 H193       -4.2483  -19.8494  -46.5856 H         1 UNK         0.0600 
    194 H194       -2.6433  -19.1463  -46.7056 H         1 UNK         0.0600 
    195 H195       -2.6729  -22.8177  -45.1013 H         1 UNK         0.3000 
    196 H196       -5.1658  -24.1396  -45.3381 H         1 UNK         0.0600 
    197 H197       -4.1953  -25.6785  -43.6031 H         1 UNK         0.0600 
    198 H198       -3.9446  -23.9858  -43.2055 H         1 UNK         0.0600 
    199 H199       -2.6126  -24.9447  -43.8467 H         1 UNK         0.0600 
    200 H200       -1.8939  -25.1369  -46.4066 H         1 UNK         0.3000 
    201 H201       -2.6651  -27.7158  -47.4273 H         1 UNK         0.0600 
    202 H202       -0.3284  -27.1750  -46.7672 H         1 UNK         0.0600 
    203 H203       -0.2221  -25.9661  -48.0446 H         1 UNK         0.0600 
    204 H204       -0.3957  -27.6680  -48.4528 H         1 UNK         0.0600 
    205 H205       -2.4328  -24.4702  -48.8072 H         1 UNK         0.3000 
    206 H206       -3.1122  -25.2295  -51.5207 H         1 UNK         0.0600 
    207 H207       -1.6139  -23.3608  -51.1201 H         1 UNK         0.0600 
    208 H208       -3.0808  -22.7016  -51.8113 H         1 UNK         0.0600 
    209 H209       -2.7922  -22.5455  -50.0903 H         1 UNK         0.0600 
    210 H210       -5.0906  -25.5870  -49.0836 H         1 UNK         0.3000 
    211 H211       -7.2734  -25.7455  -48.7660 H         1 UNK         0.0600 
    212 H212       -7.5344  -25.3847  -51.7997 H         1 UNK         0.0600 
    213 H213       -8.7490  -26.0651  -50.7276 H         1 UNK         0.0600 
    214 H214       -7.2257  -26.9063  -50.9662 H         1 UNK         0.0600 
    215 H215       -6.4928  -23.5069  -47.8567 H         1 UNK         0.3000 
    216 H216       -7.0978  -21.5651  -47.0156 H         1 UNK         0.0600 
    217 H217       -9.3740  -20.6696  -47.1717 H         1 UNK         0.0600 
    218 H218       -9.4566  -22.4047  -46.9135 H         1 UNK         0.0600 
    219 H219       -9.7649  -21.7316  -48.5140 H         1 UNK         0.0600 
    220 H220       -5.3776  -21.6625  -48.9950 H         1 UNK         0.3000 
    221 H221       -4.1569  -20.4983  -50.4301 H         1 UNK         0.0600 
    222 H222       -5.8027  -18.0615  -49.5759 H         1 UNK         0.0600 
    223 H223       -4.3928  -18.6924  -48.7292 H         1 UNK         0.0600 
    224 H224       -4.2237  -18.0206  -50.3370 H         1 UNK         0.0600 
    225 H225       -6.5739  -21.7944  -51.5072 H         1 UNK         0.3000 
    226 H226       -7.4976  -20.2219  -53.7664 H         1 UNK         0.0600 
    227 H227       -8.8902  -22.0268  -52.7839 H         1 UNK         0.0600 
    228 H228       -8.5189  -22.3898  -54.4633 H         1 UNK         0.0600 
    229 H229       -7.6608  -23.2264  -53.1743 H         1 UNK         0.0600 
    230 H230       -4.9989  -22.6694  -53.1670 H         1 UNK         0.3000 
    231 H231       -3.9070  -22.4032  -55.9352 H         1 UNK         0.0600 
    232 H232       -4.4732  -24.6975  -55.0970 H         1 UNK         0.0600 
    233 H233       -3.3390  -24.4851  -53.7662 H         1 UNK         0.0600 
    234 H234       -2.7586  -24.5179  -55.4264 H         1 UNK         0.0600 
    235 H235       -3.6012  -20.2753  -53.9018 H         1 UNK         0.3000 
    236 H236       -0.9132  -20.2958  -52.8621 H         1 UNK         0.0600 
    237 H237       -1.4253  -17.8384  -52.4675 H         1 UNK         0.0600 
    238 H238       -2.9506  -18.0485  -53.3139 H         1 UNK         0.0600 
    239 H239       -2.6372  -18.9177  -51.8097 H         1 UNK         0.0600 
    240 H240        0.6939  -18.5777  -53.4499 H         1 UNK         0.3000 
    241 H241        1.5175  -18.9381  -56.1374 H         1 UNK         0.0600 
    242 H242        1.0456  -15.8744  -57.9216 H         1 UNK         0.3800 
    243 H243        2.0964  -17.2541  -57.7850 H         1 UNK         0.3800 
    244 H244        3.1346  -18.7870  -54.3085 H         1 UNK         0.0800 
    245 H245        3.4855  -17.6324  -55.5508 H         1 UNK         0.0800 
    246 H246        4.0759  -18.0890  -52.2239 H         1 UNK         0.0800 
    247 H247        3.7281  -16.6317  -51.3368 H         1 UNK         0.0800 
@<TRIPOS>BOND
     1    1    2 1    
     2    1  127 1    
     3    1  128 1    
     4    1  129 1    
     5    2    3 2    
     6    2    4 am   BACKBONE|DICT|INTERRES
     7    4    5 1    
     8    4  130 1    
     9    5    6 1    
    10    5   65 1    
    11    5  131 1    
    12    6    7 1    
    13    6  132 1    
    14    6  133 1    
    15    7    8 1    
    16    8    9 1    
    17    8  134 1    
    18    8  135 1    
    19    9   10 ar   
    20    9   14 ar   
    21   10   11 ar   
    22   10  136 1    
    23   11   12 ar   
    24   11  126 1    
    25   12   13 ar   
    26   12  137 1    
    27   13   14 ar   
    28   13   15 1    
    29   14  138 1    
    30   15   16 1    
    31   15  139 1    
    32   15  140 1    
    33   16   17 1    
    34   17   18 1    
    35   17  141 1    
    36   17  142 1    
    37   18   19 1    
    38   18   67 1    
    39   18  143 1    
    40   19   20 am   BACKBONE|DICT|INTERRES
    41   19  144 1    
    42   20   21 2    
    43   20   22 1    
    44   22   23 1    
    45   22   24 1    
    46   22  145 1    
    47   23  146 1    
    48   23  147 1    
    49   23  148 1    
    50   24   25 am   BACKBONE|DICT|INTERRES
    51   24  149 1    
    52   25   26 2    
    53   25   27 1    
    54   27   28 1    
    55   27   29 1    
    56   27  150 1    
    57   28  151 1    
    58   28  152 1    
    59   28  153 1    
    60   29   30 am   BACKBONE|DICT|INTERRES
    61   29  154 1    
    62   30   31 2    
    63   30   32 1    
    64   32   33 1    
    65   32   34 1    
    66   32  155 1    
    67   33  156 1    
    68   33  157 1    
    69   33  158 1    
    70   34   35 am   BACKBONE|DICT|INTERRES
    71   34  159 1    
    72   35   36 2    
    73   35   37 1    
    74   37   38 1    
    75   37   39 1    
    76   37  160 1    
    77   38  161 1    
    78   38  162 1    
    79   38  163 1    
    80   39   40 am   BACKBONE|DICT|INTERRES
    81   39  164 1    
    82   40   41 2    
    83   40   42 1    
    84   42   43 1    
    85   42   44 1    
    86   42  165 1    
    87   43  166 1    
    88   43  167 1    
    89   43  168 1    
    90   44   45 am   BACKBONE|DICT|INTERRES
    91   44  169 1    
    92   45   46 2    
    93   45   47 1    
    94   47   48 1    
    95   47   49 1    
    96   47  170 1    
    97   48  171 1    
    98   48  172 1    
    99   48  173 1    
   100   49   50 am   BACKBONE|DICT|INTERRES
   101   49  174 1    
   102   50   51 2    
   103   50   52 1    
   104   52   53 1    
   105   52   54 1    
   106   52  175 1    
   107   53  176 1    
   108   53  177 1    
   109   53  178 1    
   110   54   55 am   BACKBONE|DICT|INTERRES
   111   54  179 1    
   112   55   56 2    
   113   55   57 1    
   114   57   58 1    
   115   57   59 1    
   116   57  180 1    
   117   58  181 1    
   118   58  182 1    
   119   58  183 1    
   120   59   60 am   BACKBONE|DICT|INTERRES
   121   59  184 1    
   122   60   61 2    
   123   60   62 1    
   124   62   63 1    
   125   62   64 1    
   126   62  185 1    
   127   63  186 1    
   128   63  187 1    
   129   63  188 1    
   130   64   65 am   BACKBONE|DICT|INTERRES
   131   64  189 1    
   132   65   66 2    
   133   67   68 2    
   134   67   69 am   BACKBONE|DICT|INTERRES
   135   69   70 1    
   136   69  190 1    
   137   70   71 1    
   138   70   72 1    
   139   70  191 1    
   140   71  192 1    
   141   71  193 1    
   142   71  194 1    
   143   72   73 2    
   144   72   74 am   BACKBONE|DICT|INTERRES
   145   74   75 1    
   146   74  195 1    
   147   75   76 1    
   148   75   77 1    
   149   75  196 1    
   150   76  197 1    
   151   76  198 1    
   152   76  199 1    
   153   77   78 2    
   154   77   79 am   BACKBONE|DICT|INTERRES
   155   79   80 1    
   156   79  200 1    
   157   80   81 1    
   158   80   82 1    
   159   80  201 1    
   160   81  202 1    
   161   81  203 1    
   162   81  204 1    
   163   82   83 2    
   164   82   84 am   BACKBONE|DICT|INTERRES
   165   84   85 1    
   166   84  205 1    
   167   85   86 1    
   168   85   87 1    
   169   85  206 1    
   170   86  207 1    
   171   86  208 1    
   172   86  209 1    
   173   87   88 2    
   174   87   89 am   BACKBONE|DICT|INTERRES
   175   89   90 1    
   176   89  210 1    
   177   90   91 1    
   178   90   92 1    
   179   90  211 1    
   180   91  212 1    
   181   91  213 1    
   182   91  214 1    
   183   92   93 2    
   184   92   94 am   BACKBONE|DICT|INTERRES
   185   94   95 1    
   186   94  215 1    
   187   95   96 1    
   188   95   97 1    
   189   95  216 1    
   190   96  217 1    
   191   96  218 1    
   192   96  219 1    
   193   97   98 2    
   194   97   99 am   BACKBONE|DICT|INTERRES
   195   99  100 1    
   196   99  220 1    
   197  100  101 1    
   198  100  102 1    
   199  100  221 1    
   200  101  222 1    
   201  101  223 1    
   202  101  224 1    
   203  102  103 2    
   204  102  104 am   BACKBONE|DICT|INTERRES
   205  104  105 1    
   206  104  225 1    
   207  105  106 1    
   208  105  107 1    
   209  105  226 1    
   210  106  227 1    
   211  106  228 1    
   212  106  229 1    
   213  107  108 2    
   214  107  109 am   BACKBONE|DICT|INTERRES
   215  109  110 1    
   216  109  230 1    
   217  110  111 1    
   218  110  112 1    
   219  110  231 1    
   220  111  232 1    
   221  111  233 1    
   222  111  234 1    
   223  112  113 2    
   224  112  114 am   BACKBONE|DICT|INTERRES
   225  114  115 1    
   226  114  235 1    
   227  115  116 1    
   228  115  117 1    
   229  115  236 1    
   230  116  237 1    
   231  116  238 1    
   232  116  239 1    
   233  117  118 2    
   234  117  119 am   BACKBONE|DICT|INTERRES
   235  119  120 1    
   236  119  240 1    
   237  120  121 1    
   238  120  124 1    
   239  120  241 1    
   240  121  122 am   BACKBONE|DICT|INTERRES
   241  121  123 2    
   242  122  242 1    
   243  122  243 1    
   244  124  125 1    
   245  124  244 1    
   246  124  245 1    
   247  125  126 1    
   248  126  246 1    
   249  126  247 1    
@<TRIPOS>SUBSTRUCTURE
     1 UNK         1 GROUP             0       ****    0 ROOT    
