@<TRIPOS>MOLECULE
3R540
247   249    1
SMALL
USER_CHARGES


@<TRIPOS>ATOM
      1 CA          5.2895  -11.6837  -43.8894 C.3       0 UNK        -0.1800 
      2 C           5.0184  -12.5103  -45.1376 C.2       0 UNK         0.5000 
      3 O           5.8512  -12.5507  -46.0426 O.2       0 UNK        -0.5000 
      4 N           3.8384  -13.1378  -45.2082 N.am      1 UNK        -0.5000 
      5 CA          3.3077  -13.9535  -46.3093 C.3       1 UNK         0.1400 
      6 C6          4.2605  -15.0895  -46.7640 C.3       23 UNK        -0.0398 
      7 S7          3.3534  -16.5644  -47.3238 S.3       23 UNK        -0.2404 
      8 C8          3.6542  -16.5005  -49.1157 C.3       23 UNK        -0.0205 
      9 C9          2.9245  -17.6202  -49.8417 C.ar      23 UNK        -0.0193 
     10 C10         1.9246  -17.3286  -50.7721 C.ar      23 UNK        -0.1150 
     11 C11         1.2719  -18.3571  -51.4570 C.ar      23 UNK        -0.0193 
     12 C12         1.5998  -19.6872  -51.1775 C.ar      23 UNK        -0.1150 
     13 C13         2.5959  -19.9981  -50.2453 C.ar      23 UNK        -0.0193 
     14 C14         3.2676  -18.9525  -49.5989 C.ar      23 UNK        -0.1150 
     15 C15         2.9367  -21.4676  -49.9873 C.3       23 UNK        -0.0205 
     16 S16         3.6869  -21.8285  -48.3576 S.3       23 UNK        -0.2404 
     17 C17         2.3636  -21.2883  -47.2222 C.3       23 UNK        -0.0398 
     18 CA          1.5934  -22.4533  -46.5582 C.3       11 UNK         0.1400 
     19 N           0.7286  -21.9643  -45.4847 N.am      11 UNK        -0.5000 
     20 C           0.1058  -22.7377  -44.5860 C.2       10 UNK         0.5000 
     21 O           0.2737  -23.9537  -44.4949 O.2       10 UNK        -0.5000 
     22 CA         -0.9016  -22.0381  -43.6539 C.3       10 UNK         0.1400 
     23 CB         -0.1903  -21.4616  -42.4209 C.3       10 UNK        -0.1800 
     24 N          -1.6610  -20.9785  -44.3234 N.am      10 UNK        -0.5000 
     25 C          -2.5031  -21.1812  -45.3473 C.2       9 UNK         0.5000 
     26 O          -2.7551  -22.2891  -45.8149 O.2       9 UNK        -0.5000 
     27 CA         -3.1351  -19.9390  -45.9954 C.3       9 UNK         0.1400 
     28 CB         -4.3048  -19.4147  -45.1491 C.3       9 UNK        -0.1800 
     29 N          -2.1631  -18.8729  -46.2290 N.am      9 UNK        -0.5000 
     30 C          -1.1051  -18.9724  -47.0466 C.2       8 UNK         0.5000 
     31 O          -0.8615  -19.9654  -47.7285 O.2       8 UNK        -0.5000 
     32 CA         -0.1167  -17.7954  -47.0508 C.3       8 UNK         0.1400 
     33 CB         -0.5881  -16.6710  -47.9844 C.3       8 UNK        -0.1800 
     34 N           0.1042  -17.2693  -45.7032 N.am      8 UNK        -0.5000 
     35 C           0.7316  -17.9413  -44.7273 C.2       7 UNK         0.5000 
     36 O           1.2265  -19.0592  -44.8750 O.2       7 UNK        -0.5000 
     37 CA          0.7615  -17.2735  -43.3404 C.3       7 UNK         0.1400 
     38 CB          1.8984  -16.2449  -43.2496 C.3       7 UNK        -0.1800 
     39 N          -0.5115  -16.6300  -43.0096 N.am      7 UNK        -0.5000 
     40 C          -1.6459  -17.3008  -42.7541 C.2       6 UNK         0.5000 
     41 O          -1.7146  -18.5288  -42.7204 O.2       6 UNK        -0.5000 
     42 CA         -2.9311  -16.4703  -42.5535 C.3       6 UNK         0.1400 
     43 CB         -3.0971  -16.0854  -41.0763 C.3       6 UNK        -0.1800 
     44 N          -2.9696  -15.2585  -43.3734 N.am      6 UNK        -0.5000 
     45 C          -2.8861  -15.2346  -44.7103 C.2       5 UNK         0.5000 
     46 O          -2.8992  -16.2510  -45.4023 O.2       5 UNK        -0.5000 
     47 CA         -2.7012  -13.8664  -45.3975 C.3       5 UNK         0.1400 
     48 CB         -3.9947  -13.4534  -46.1157 C.3       5 UNK        -0.1800 
     49 N          -2.2646  -12.7654  -44.5281 N.am      5 UNK        -0.5000 
     50 C          -1.1642  -12.7377  -43.7618 C.2       4 UNK         0.5000 
     51 O          -0.3979  -13.6941  -43.6252 O.2       4 UNK        -0.5000 
     52 CA         -0.8848  -11.3939  -43.0600 C.3       4 UNK         0.1400 
     53 CB         -0.0001  -11.5425  -41.8034 C.3       4 UNK        -0.1800 
     54 N          -0.3292  -10.4208  -44.0096 N.am      4 UNK        -0.5000 
     55 C           0.8433  -10.5149  -44.6514 C.2       3 UNK         0.5000 
     56 O           1.6884  -11.3846  -44.4237 O.2       3 UNK        -0.5000 
     57 CA          1.1274   -9.4607  -45.7330 C.3       3 UNK         0.1400 
     58 CB          1.7029   -8.1753  -45.1183 C.3       3 UNK        -0.1800 
     59 N           2.1058  -10.0398  -46.6431 N.am      3 UNK        -0.5000 
     60 C           2.0800  -10.0193  -47.9796 C.2       2 UNK         0.5000 
     61 O           1.2945   -9.3404  -48.6416 O.2       2 UNK        -0.5000 
     62 CA          3.0953  -10.9381  -48.6955 C.3       2 UNK         0.1400 
     63 CB          4.3211  -10.1342  -49.1543 C.3       2 UNK        -0.1800 
     64 N           3.5445  -12.0416  -47.8405 N.am      2 UNK        -0.5000 
     65 C           2.7899  -13.0887  -47.4787 C.2       1 UNK         0.5000 
     66 O           1.6919  -13.3345  -47.9781 O.2       1 UNK        -0.5000 
     67 C           0.7877  -23.2845  -47.5800 C.2       11 UNK         0.5000 
     68 O           1.1446  -24.4304  -47.8538 O.2       11 UNK        -0.5000 
     69 N          -0.3034  -22.7061  -48.1001 N.am      12 UNK        -0.5000 
     70 CA         -1.1905  -23.3173  -49.0903 C.3       12 UNK         0.1400 
     71 CB         -2.2082  -22.2684  -49.5539 C.3       12 UNK        -0.1800 
     72 C          -1.8962  -24.5926  -48.5904 C.2       12 UNK         0.5000 
     73 O          -2.1376  -25.5011  -49.3861 O.2       12 UNK        -0.5000 
     74 N          -2.1707  -24.6726  -47.2814 N.am      13 UNK        -0.5000 
     75 CA         -2.7526  -25.8359  -46.6082 C.3       13 UNK         0.1400 
     76 CB         -3.0275  -25.4984  -45.1357 C.3       13 UNK        -0.1800 
     77 C          -1.9040  -27.1172  -46.7194 C.2       13 UNK         0.5000 
     78 O          -2.4707  -28.2094  -46.6851 O.2       13 UNK        -0.5000 
     79 N          -0.5831  -26.9822  -46.9166 N.am      14 UNK        -0.5000 
     80 CA          0.3258  -28.1008  -47.1903 C.3       14 UNK         0.1400 
     81 CB          1.7798  -27.6212  -47.0712 C.3       14 UNK        -0.1800 
     82 C           0.0811  -28.7564  -48.5666 C.2       14 UNK         0.5000 
     83 O           0.4116  -29.9291  -48.7440 O.2       14 UNK        -0.5000 
     84 N          -0.5190  -28.0032  -49.4984 N.am      15 UNK        -0.5000 
     85 CA         -0.9752  -28.4659  -50.8098 C.3       15 UNK         0.1400 
     86 CB         -0.5750  -27.4155  -51.8608 C.3       15 UNK        -0.1800 
     87 C          -2.4990  -28.7185  -50.8277 C.2       15 UNK         0.5000 
     88 O          -3.0591  -28.9334  -51.9033 O.2       15 UNK        -0.5000 
     89 N          -3.1439  -28.6727  -49.6497 N.am      16 UNK        -0.5000 
     90 CA         -4.5864  -28.7928  -49.4063 C.3       16 UNK         0.1400 
     91 CB         -5.0996  -30.1948  -49.7970 C.3       16 UNK        -0.1800 
     92 C          -5.4188  -27.6485  -50.0274 C.2       16 UNK         0.5000 
     93 O          -6.5985  -27.8428  -50.3277 O.2       16 UNK        -0.5000 
     94 N          -4.7971  -26.4754  -50.1962 N.am      17 UNK        -0.5000 
     95 CA         -5.4112  -25.2495  -50.6983 C.3       17 UNK         0.1400 
     96 CB         -4.5474  -24.7207  -51.8604 C.3       17 UNK        -0.1800 
     97 C          -5.5843  -24.2330  -49.5494 C.2       17 UNK         0.5000 
     98 O          -5.5905  -24.6166  -48.3776 O.2       17 UNK        -0.5000 
     99 N          -5.7413  -22.9540  -49.9003 N.am      18 UNK        -0.5000 
    100 CA        -5.8812  -21.8191  -48.9927 C.3       18 UNK         0.1400 
    101 CB        -7.3578  -21.6606  -48.5870 C.3       18 UNK        -0.1800 
    102 C         -5.3565  -20.5647  -49.7088 C.2       18 UNK         0.5000 
    103 O         -5.0441  -20.6309  -50.9005 O.2       18 UNK        -0.5000 
    104 N         -5.2986  -19.4317  -48.9935 N.am      19 UNK        -0.5000 
    105 CA        -4.7986  -18.1439  -49.4993 C.3       19 UNK         0.1400 
    106 CB        -4.7793  -17.1160  -48.3583 C.3       19 UNK        -0.1800 
    107 C         -5.5736  -17.5843  -50.7107 C.2       19 UNK         0.5000 
    108 O         -5.0238  -16.7822  -51.4627 O.2       19 UNK        -0.5000 
    109 N         -6.8147  -18.0477  -50.9120 N.am      20 UNK        -0.5000 
    110 CA        -7.6365  -17.7715  -52.0915 C.3       20 UNK         0.1400 
    111 CB        -9.0462  -18.3335  -51.8514 C.3       20 UNK        -0.1800 
    112 C         -7.0501  -18.3307  -53.4070 C.2       20 UNK         0.5000 
    113 O         -7.4033  -17.8333  -54.4767 O.2       20 UNK        -0.5000 
    114 N         -6.1718  -19.3416  -53.3167 N.am      21 UNK        -0.5000 
    115 CA        -5.4696  -19.9303  -54.4579 C.3       21 UNK         0.1400 
    116 CB        -5.0468  -21.3649  -54.1033 C.3       21 UNK        -0.1800 
    117 C         -4.2480  -19.1043  -54.9084 C.2       21 UNK         0.5000 
    118 O         -3.7628  -19.3212  -56.0201 O.2       21 UNK        -0.5000 
    119 N         -3.7597  -18.1919  -54.0562 N.am      22 UNK        -0.5000 
    120 CA        -2.6458  -17.2828  -54.3621 C.3       22 UNK         0.1400 
    121 C         -3.0295  -16.2156  -55.4253 C.2       22 UNK         0.5000 
    122 N         -2.1161  -15.8683  -56.3221 N.am      22 UNK        -0.7600 
    123 O         -4.1296  -15.6677  -55.4195 O.2       22 UNK        -0.5000 
    124 C124       -2.0880  -16.5951  -53.0906 C.3       23 UNK        -0.0398 
    125 S125       -1.4135  -17.7676  -51.8625 S.3       23 UNK        -0.2404 
    126 C126        0.2572  -18.0199  -52.5378 C.3       23 UNK        -0.0205 
    127 H127        6.1654  -12.0683  -43.3673 H         1 UNK         0.0600 
    128 H128        4.4445  -11.7041  -43.2002 H         1 UNK         0.0600 
    129 H129        5.4798  -10.6455  -44.1610 H         1 UNK         0.0600 
    130 H130        3.1571  -12.9391  -44.4830 H         1 UNK         0.3000 
    131 H131        2.4201  -14.4170  -45.8770 H         1 UNK         0.0600 
    132 H132        4.9624  -14.7491  -47.5273 H         1 UNK         0.0800 
    133 H133        4.8758  -15.4145  -45.9240 H         1 UNK         0.0800 
    134 H134        3.3414  -15.5270  -49.4966 H         1 UNK         0.0800 
    135 H135        4.7245  -16.5854  -49.3089 H         1 UNK         0.0800 
    136 H136        1.6655  -16.2999  -50.9801 H         1 UNK         0.1150 
    137 H137        1.0894  -20.4826  -51.7025 H         1 UNK         0.1150 
    138 H138        4.0552  -19.1639  -48.8904 H         1 UNK         0.1150 
    139 H139        2.0384  -22.0776  -50.0941 H         1 UNK         0.0800 
    140 H140        3.6270  -21.7992  -50.7637 H         1 UNK         0.0800 
    141 H141        1.6796  -20.6123  -47.7347 H         1 UNK         0.0800 
    142 H142        2.8421  -20.6840  -46.4503 H         1 UNK         0.0800 
    143 H143        2.3276  -23.1198  -46.1005 H         1 UNK         0.0600 
    144 H144        0.5777  -20.9623  -45.4456 H         1 UNK         0.3000 
    145 H145       -1.6140  -22.7927  -43.3139 H         1 UNK         0.0600 
    146 H146        0.3742  -22.2343  -41.8975 H         1 UNK         0.0600 
    147 H147        0.5086  -20.6701  -42.6929 H         1 UNK         0.0600 
    148 H148       -0.9064  -21.0459  -41.7119 H         1 UNK         0.0600 
    149 H149       -1.5468  -20.0378  -43.9574 H         1 UNK         0.3000 
    150 H150       -3.5268  -20.2402  -46.9677 H         1 UNK         0.0600 
    151 H151       -5.0719  -20.1809  -45.0309 H         1 UNK         0.0600 
    152 H152       -4.7786  -18.5483  -45.6090 H         1 UNK         0.0600 
    153 H153       -3.9794  -19.1237  -44.1510 H         1 UNK         0.0600 
    154 H154       -2.3226  -17.9910  -45.7481 H         1 UNK         0.3000 
    155 H155        0.8359  -18.1695  -47.4311 H         1 UNK         0.0600 
    156 H156       -1.5471  -16.2553  -47.6766 H         1 UNK         0.0600 
    157 H157        0.1381  -15.8584  -48.0194 H         1 UNK         0.0600 
    158 H158       -0.7052  -17.0424  -49.0026 H         1 UNK         0.0600 
    159 H159       -0.3149  -16.3779  -45.4862 H         1 UNK         0.3000 
    160 H160        0.9534  -18.0545  -42.6015 H         1 UNK         0.0600 
    161 H161        1.7240  -15.3955  -43.9087 H         1 UNK         0.0600 
    162 H162        2.8547  -16.6889  -43.5295 H         1 UNK         0.0600 
    163 H163        2.0003  -15.8609  -42.2346 H         1 UNK         0.0600 
    164 H164       -0.5357  -15.6156  -43.0606 H         1 UNK         0.3000 
    165 H165       -3.7789  -17.0936  -42.8430 H         1 UNK         0.0600 
    166 H166       -4.0421  -15.5690  -40.9066 H         1 UNK         0.0600 
    167 H167       -3.0931  -16.9712  -40.4396 H         1 UNK         0.0600 
    168 H168       -2.2912  -15.4332  -40.7373 H         1 UNK         0.0600 
    169 H169       -2.9461  -14.3778  -42.8821 H         1 UNK         0.3000 
    170 H170       -1.9242  -14.0020  -46.1526 H         1 UNK         0.0600 
    171 H171       -4.3326  -14.2358  -46.7969 H         1 UNK         0.0600 
    172 H172       -4.8028  -13.2628  -45.4085 H         1 UNK         0.0600 
    173 H173       -3.8467  -12.5517  -46.7102 H         1 UNK         0.0600 
    174 H174       -2.8295  -11.9296  -44.5732 H         1 UNK         0.3000 
    175 H175       -1.8448  -10.9942  -42.7293 H         1 UNK         0.0600 
    176 H176        0.9694  -11.9890  -42.0244 H         1 UNK         0.0600 
    177 H177        0.1770  -10.5766  -41.3307 H         1 UNK         0.0600 
    178 H178       -0.4857  -12.1821  -41.0656 H         1 UNK         0.0600 
    179 H179       -0.9485   -9.6629  -44.2615 H         1 UNK         0.3000 
    180 H180        0.1988   -9.2385  -46.2630 H         1 UNK         0.0600 
    181 H181        2.6198   -8.3718  -44.5609 H         1 UNK         0.0600 
    182 H182        0.9911   -7.7165  -44.4312 H         1 UNK         0.0600 
    183 H183        1.9316   -7.4396  -45.8896 H         1 UNK         0.0600 
    184 H184        2.7346  -10.6900  -46.1906 H         1 UNK         0.3000 
    185 H185        2.6050  -11.3563  -49.5770 H         1 UNK         0.0600 
    186 H186        5.0192  -10.7618  -49.7086 H         1 UNK         0.0600 
    187 H187        4.0274   -9.3156  -49.8126 H         1 UNK         0.0600 
    188 H188        4.8573   -9.7006  -48.3091 H         1 UNK         0.0600 
    189 H189        4.4477  -11.9380  -47.3898 H         1 UNK         0.3000 
    190 H190       -0.5260  -21.7471  -47.8379 H         1 UNK         0.3000 
    191 H191       -0.5793  -23.6006  -49.9495 H         1 UNK         0.0600 
    192 H192       -2.8253  -21.9256  -48.7239 H         1 UNK         0.0600 
    193 H193       -2.8710  -22.6662  -50.3202 H         1 UNK         0.0600 
    194 H194       -1.7120  -21.3968  -49.9818 H         1 UNK         0.0600 
    195 H195       -2.0327  -23.8446  -46.7089 H         1 UNK         0.3000 
    196 H196       -3.7092  -26.0462  -47.0895 H         1 UNK         0.0600 
    197 H197       -3.4573  -26.3526  -44.6109 H         1 UNK         0.0600 
    198 H198       -3.7376  -24.6764  -45.0467 H         1 UNK         0.0600 
    199 H199       -2.1154  -25.2150  -44.6108 H         1 UNK         0.0600 
    200 H200       -0.1849  -26.0516  -46.9630 H         1 UNK         0.3000 
    201 H201        0.1579  -28.8635  -46.4270 H         1 UNK         0.0600 
    202 H202        1.9620  -27.1384  -46.1109 H         1 UNK         0.0600 
    203 H203        2.0357  -26.9124  -47.8590 H         1 UNK         0.0600 
    204 H204        2.4726  -28.4598  -47.1515 H         1 UNK         0.0600 
    205 H205       -0.7863  -27.0542  -49.2606 H         1 UNK         0.3000 
    206 H206       -0.4884  -29.4080  -51.0688 H         1 UNK         0.0600 
    207 H207        0.4988  -27.2283  -51.8416 H         1 UNK         0.0600 
    208 H208       -0.8260  -27.7509  -52.8677 H         1 UNK         0.0600 
    209 H209       -1.0838  -26.4651  -51.6958 H         1 UNK         0.0600 
    210 H210       -2.5896  -28.5071  -48.8190 H         1 UNK         0.3000 
    211 H211       -4.7130  -28.6928  -48.3275 H         1 UNK         0.0600 
    212 H212       -5.0849  -30.3470  -50.8764 H         1 UNK         0.0600 
    213 H213       -6.1268  -30.3428  -49.4618 H         1 UNK         0.0600 
    214 H214       -4.4954  -30.9776  -49.3385 H         1 UNK         0.0600 
    215 H215       -3.8362  -26.3781  -49.8830 H         1 UNK         0.3000 
    216 H216       -6.4100  -25.4532  -51.0885 H         1 UNK         0.0600 
    217 H217       -4.9745  -23.8266  -52.3135 H         1 UNK         0.0600 
    218 H218       -4.4691  -25.4670  -52.6514 H         1 UNK         0.0600 
    219 H219       -3.5339  -24.4845  -51.5385 H         1 UNK         0.0600 
    220 H220       -5.6572  -22.6839  -50.8725 H         1 UNK         0.3000 
    221 H221       -5.2684  -21.9832  -48.1036 H         1 UNK         0.0600 
    222 H222       -7.9929  -21.4665  -49.4523 H         1 UNK         0.0600 
    223 H223       -7.7298  -22.5605  -48.0968 H         1 UNK         0.0600 
    224 H224       -7.4926  -20.8364  -47.8859 H         1 UNK         0.0600 
    225 H225       -5.6116  -19.4400  -48.0343 H         1 UNK         0.3000 
    226 H226       -3.7691  -18.3012  -49.8281 H         1 UNK         0.0600 
    227 H227       -4.0944  -17.4183  -47.5692 H         1 UNK         0.0600 
    228 H228       -4.4395  -16.1417  -48.7125 H         1 UNK         0.0600 
    229 H229       -5.7674  -16.9800  -47.9177 H         1 UNK         0.0600 
    230 H230       -7.1918  -18.7008  -50.2422 H         1 UNK         0.3000 
    231 H231       -7.7117  -16.6878  -52.2021 H         1 UNK         0.0600 
    232 H232       -9.7012  -18.1219  -52.6977 H         1 UNK         0.0600 
    233 H233       -9.5047  -17.8873  -50.9687 H         1 UNK         0.0600 
    234 H234       -9.0291  -19.4152  -51.7120 H         1 UNK         0.0600 
    235 H235       -5.9117  -19.6984  -52.4020 H         1 UNK         0.3000 
    236 H236       -6.1588  -19.9851  -55.3033 H         1 UNK         0.0600 
    237 H237       -5.8994  -21.9580  -53.7726 H         1 UNK         0.0600 
    238 H238       -4.6167  -21.8691  -54.9695 H         1 UNK         0.0600 
    239 H239       -4.2955  -21.3807  -53.3131 H         1 UNK         0.0600 
    240 H240       -4.2342  -18.0319  -53.1777 H         1 UNK         0.3000 
    241 H241       -1.8440  -17.8920  -54.7841 H         1 UNK         0.0600 
    242 H242       -1.2047  -16.2993  -56.3473 H         1 UNK         0.3800 
    243 H243       -2.3472  -15.1661  -57.0081 H         1 UNK         0.3800 
    244 H244       -1.3071  -15.8788  -53.3512 H         1 UNK         0.0800 
    245 H245       -2.8661  -16.0041  -52.6073 H         1 UNK         0.0800 
    246 H246        0.2208  -18.8137  -53.2854 H         1 UNK         0.0800 
    247 H247        0.5924  -17.1256  -53.0647 H         1 UNK         0.0800 
@<TRIPOS>BOND
     1    1    2 1    
     2    1  127 1    
     3    1  128 1    
     4    1  129 1    
     5    2    3 2    
     6    2    4 am   BACKBONE|DICT|INTERRES
     7    4    5 1    
     8    4  130 1    
     9    5    6 1    
    10    5   65 1    
    11    5  131 1    
    12    6    7 1    
    13    6  132 1    
    14    6  133 1    
    15    7    8 1    
    16    8    9 1    
    17    8  134 1    
    18    8  135 1    
    19    9   10 ar   
    20    9   14 ar   
    21   10   11 ar   
    22   10  136 1    
    23   11   12 ar   
    24   11  126 1    
    25   12   13 ar   
    26   12  137 1    
    27   13   14 ar   
    28   13   15 1    
    29   14  138 1    
    30   15   16 1    
    31   15  139 1    
    32   15  140 1    
    33   16   17 1    
    34   17   18 1    
    35   17  141 1    
    36   17  142 1    
    37   18   19 1    
    38   18   67 1    
    39   18  143 1    
    40   19   20 am   BACKBONE|DICT|INTERRES
    41   19  144 1    
    42   20   21 2    
    43   20   22 1    
    44   22   23 1    
    45   22   24 1    
    46   22  145 1    
    47   23  146 1    
    48   23  147 1    
    49   23  148 1    
    50   24   25 am   BACKBONE|DICT|INTERRES
    51   24  149 1    
    52   25   26 2    
    53   25   27 1    
    54   27   28 1    
    55   27   29 1    
    56   27  150 1    
    57   28  151 1    
    58   28  152 1    
    59   28  153 1    
    60   29   30 am   BACKBONE|DICT|INTERRES
    61   29  154 1    
    62   30   31 2    
    63   30   32 1    
    64   32   33 1    
    65   32   34 1    
    66   32  155 1    
    67   33  156 1    
    68   33  157 1    
    69   33  158 1    
    70   34   35 am   BACKBONE|DICT|INTERRES
    71   34  159 1    
    72   35   36 2    
    73   35   37 1    
    74   37   38 1    
    75   37   39 1    
    76   37  160 1    
    77   38  161 1    
    78   38  162 1    
    79   38  163 1    
    80   39   40 am   BACKBONE|DICT|INTERRES
    81   39  164 1    
    82   40   41 2    
    83   40   42 1    
    84   42   43 1    
    85   42   44 1    
    86   42  165 1    
    87   43  166 1    
    88   43  167 1    
    89   43  168 1    
    90   44   45 am   BACKBONE|DICT|INTERRES
    91   44  169 1    
    92   45   46 2    
    93   45   47 1    
    94   47   48 1    
    95   47   49 1    
    96   47  170 1    
    97   48  171 1    
    98   48  172 1    
    99   48  173 1    
   100   49   50 am   BACKBONE|DICT|INTERRES
   101   49  174 1    
   102   50   51 2    
   103   50   52 1    
   104   52   53 1    
   105   52   54 1    
   106   52  175 1    
   107   53  176 1    
   108   53  177 1    
   109   53  178 1    
   110   54   55 am   BACKBONE|DICT|INTERRES
   111   54  179 1    
   112   55   56 2    
   113   55   57 1    
   114   57   58 1    
   115   57   59 1    
   116   57  180 1    
   117   58  181 1    
   118   58  182 1    
   119   58  183 1    
   120   59   60 am   BACKBONE|DICT|INTERRES
   121   59  184 1    
   122   60   61 2    
   123   60   62 1    
   124   62   63 1    
   125   62   64 1    
   126   62  185 1    
   127   63  186 1    
   128   63  187 1    
   129   63  188 1    
   130   64   65 am   BACKBONE|DICT|INTERRES
   131   64  189 1    
   132   65   66 2    
   133   67   68 2    
   134   67   69 am   BACKBONE|DICT|INTERRES
   135   69   70 1    
   136   69  190 1    
   137   70   71 1    
   138   70   72 1    
   139   70  191 1    
   140   71  192 1    
   141   71  193 1    
   142   71  194 1    
   143   72   73 2    
   144   72   74 am   BACKBONE|DICT|INTERRES
   145   74   75 1    
   146   74  195 1    
   147   75   76 1    
   148   75   77 1    
   149   75  196 1    
   150   76  197 1    
   151   76  198 1    
   152   76  199 1    
   153   77   78 2    
   154   77   79 am   BACKBONE|DICT|INTERRES
   155   79   80 1    
   156   79  200 1    
   157   80   81 1    
   158   80   82 1    
   159   80  201 1    
   160   81  202 1    
   161   81  203 1    
   162   81  204 1    
   163   82   83 2    
   164   82   84 am   BACKBONE|DICT|INTERRES
   165   84   85 1    
   166   84  205 1    
   167   85   86 1    
   168   85   87 1    
   169   85  206 1    
   170   86  207 1    
   171   86  208 1    
   172   86  209 1    
   173   87   88 2    
   174   87   89 am   BACKBONE|DICT|INTERRES
   175   89   90 1    
   176   89  210 1    
   177   90   91 1    
   178   90   92 1    
   179   90  211 1    
   180   91  212 1    
   181   91  213 1    
   182   91  214 1    
   183   92   93 2    
   184   92   94 am   BACKBONE|DICT|INTERRES
   185   94   95 1    
   186   94  215 1    
   187   95   96 1    
   188   95   97 1    
   189   95  216 1    
   190   96  217 1    
   191   96  218 1    
   192   96  219 1    
   193   97   98 2    
   194   97   99 am   BACKBONE|DICT|INTERRES
   195   99  100 1    
   196   99  220 1    
   197  100  101 1    
   198  100  102 1    
   199  100  221 1    
   200  101  222 1    
   201  101  223 1    
   202  101  224 1    
   203  102  103 2    
   204  102  104 am   BACKBONE|DICT|INTERRES
   205  104  105 1    
   206  104  225 1    
   207  105  106 1    
   208  105  107 1    
   209  105  226 1    
   210  106  227 1    
   211  106  228 1    
   212  106  229 1    
   213  107  108 2    
   214  107  109 am   BACKBONE|DICT|INTERRES
   215  109  110 1    
   216  109  230 1    
   217  110  111 1    
   218  110  112 1    
   219  110  231 1    
   220  111  232 1    
   221  111  233 1    
   222  111  234 1    
   223  112  113 2    
   224  112  114 am   BACKBONE|DICT|INTERRES
   225  114  115 1    
   226  114  235 1    
   227  115  116 1    
   228  115  117 1    
   229  115  236 1    
   230  116  237 1    
   231  116  238 1    
   232  116  239 1    
   233  117  118 2    
   234  117  119 am   BACKBONE|DICT|INTERRES
   235  119  120 1    
   236  119  240 1    
   237  120  121 1    
   238  120  124 1    
   239  120  241 1    
   240  121  122 am   BACKBONE|DICT|INTERRES
   241  121  123 2    
   242  122  242 1    
   243  122  243 1    
   244  124  125 1    
   245  124  244 1    
   246  124  245 1    
   247  125  126 1    
   248  126  246 1    
   249  126  247 1    
@<TRIPOS>SUBSTRUCTURE
     1 UNK         1 GROUP             0       ****    0 ROOT    
