@<TRIPOS>MOLECULE
3R540
247   249    1
SMALL
USER_CHARGES


@<TRIPOS>ATOM
      1 CA         -0.3719  -10.4409  -48.8418 C.3       0 UNK        -0.1800 
      2 C           0.5529  -11.5553  -48.3757 C.2       0 UNK         0.5000 
      3 O           0.6629  -11.7958  -47.1748 O.2       0 UNK        -0.5000 
      4 N           1.2046  -12.2491  -49.3185 N.am      1 UNK        -0.5000 
      5 CA          2.1469  -13.3513  -49.0737 C.3       1 UNK         0.1400 
      6 C6          2.8388  -13.7727  -50.3927 C.3       23 UNK        -0.0398 
      7 S7          4.2901  -14.8536  -50.1528 S.3       23 UNK        -0.2404 
      8 C8          3.9678  -16.1798  -51.3594 C.3       23 UNK        -0.0205 
      9 C9          2.7595  -17.0301  -50.9916 C.ar      23 UNK        -0.0193 
     10 C10         1.5647  -16.9115  -51.7080 C.ar      23 UNK        -0.1150 
     11 C11         0.4654  -17.7168  -51.3967 C.ar      23 UNK        -0.0193 
     12 C12         0.5662  -18.6449  -50.3562 C.ar      23 UNK        -0.1150 
     13 C13         1.7587  -18.7811  -49.6406 C.ar      23 UNK        -0.0193 
     14 C14         2.8489  -17.9662  -49.9582 C.ar      23 UNK        -0.1150 
     15 C15         1.8932  -19.8393  -48.5581 C.3       23 UNK        -0.0205 
     16 S16         1.3874  -19.2225  -46.9240 S.3       23 UNK        -0.2404 
     17 C17        -0.3573  -19.7498  -46.8316 C.3       23 UNK        -0.0398 
     18 CA         -0.5304  -21.2618  -46.5349 C.3       11 UNK         0.1400 
     19 N           0.2112  -21.7241  -45.3551 N.am      11 UNK        -0.5000 
     20 C           0.3565  -23.0130  -45.0119 C.2       10 UNK         0.5000 
     21 O          -0.0970  -23.9495  -45.6681 O.2       10 UNK        -0.5000 
     22 CA          1.0813  -23.3092  -43.6897 C.3       10 UNK         0.1400 
     23 CB          2.6057  -23.3097  -43.8804 C.3       10 UNK        -0.1800 
     24 N           0.7056  -22.3557  -42.6483 N.am      10 UNK        -0.5000 
     25 C          -0.4834  -22.3477  -42.0301 C.2       9 UNK         0.5000 
     26 O          -1.3692  -23.1763  -42.2420 O.2       9 UNK        -0.5000 
     27 CA         -0.7425  -21.1919  -41.0457 C.3       9 UNK         0.1400 
     28 CB         -0.1297  -21.4993  -39.6716 C.3       9 UNK        -0.1800 
     29 N          -0.2249  -19.9128  -41.5326 N.am      9 UNK        -0.5000 
     30 C          -0.6867  -19.2787  -42.6199 C.2       8 UNK         0.5000 
     31 O          -1.6281  -19.6876  -43.2970 O.2       8 UNK        -0.5000 
     32 CA          0.0460  -17.9962  -43.0525 C.3       8 UNK         0.1400 
     33 CB         -0.5995  -16.7796  -42.3748 C.3       8 UNK        -0.1800 
     34 N           1.4883  -17.9928  -42.7914 N.am      8 UNK        -0.5000 
     35 C           2.3560  -18.9392  -43.1808 C.2       7 UNK         0.5000 
     36 O           2.0277  -19.9652  -43.7744 O.2       7 UNK        -0.5000 
     37 CA          3.8340  -18.7385  -42.8060 C.3       7 UNK         0.1400 
     38 CB          4.5618  -17.9471  -43.9014 C.3       7 UNK        -0.1800 
     39 N           4.0294  -18.0697  -41.5201 N.am      7 UNK        -0.5000 
     40 C           3.6201  -18.5153  -40.3260 C.2       6 UNK         0.5000 
     41 O           3.0040  -19.5703  -40.1686 O.2       6 UNK        -0.5000 
     42 CA          3.9206  -17.6272  -39.1001 C.3       6 UNK         0.1400 
     43 CB          5.3297  -17.9043  -38.5425 C.3       6 UNK        -0.1800 
     44 N           3.6952  -16.1901  -39.3199 N.am      6 UNK        -0.5000 
     45 C           4.3570  -15.3429  -40.1207 C.2       5 UNK         0.5000 
     46 O           5.3482  -15.6456  -40.7892 O.2       5 UNK        -0.5000 
     47 CA          3.7784  -13.9195  -40.2228 C.3       5 UNK         0.1400 
     48 CB          4.6940  -12.9110  -39.5122 C.3       5 UNK        -0.1800 
     49 N           3.5666  -13.4855  -41.6070 N.am      5 UNK        -0.5000 
     50 C           2.8470  -14.1375  -42.5312 C.2       4 UNK         0.5000 
     51 O           2.3199  -15.2373  -42.3456 O.2       4 UNK        -0.5000 
     52 CA          2.7005  -13.4386  -43.8974 C.3       4 UNK         0.1400 
     53 CB          3.8058  -13.8891  -44.8633 C.3       4 UNK        -0.1800 
     54 N           1.3967  -13.6902  -44.5138 N.am      4 UNK        -0.5000 
     55 C           0.2223  -13.2667  -44.0215 C.2       3 UNK         0.5000 
     56 O           0.1276  -12.5734  -43.0069 O.2       3 UNK        -0.5000 
     57 CA         -1.0611  -13.6710  -44.7767 C.3       3 UNK         0.1400 
     58 CB         -2.0203  -12.4783  -44.9392 C.3       3 UNK        -0.1800 
     59 N          -0.7660  -14.2085  -46.1035 N.am      3 UNK        -0.5000 
     60 C          -0.9668  -15.4714  -46.5032 C.2       2 UNK         0.5000 
     61 O          -1.4367  -16.3482  -45.7795 O.2       2 UNK        -0.5000 
     62 CA         -0.6092  -15.8194  -47.9648 C.3       2 UNK         0.1400 
     63 CB         -1.8916  -16.0316  -48.7841 C.3       2 UNK        -0.1800 
     64 N           0.2115  -14.8066  -48.6337 N.am      2 UNK        -0.5000 
     65 C           1.4921  -14.5438  -48.3356 C.2       1 UNK         0.5000 
     66 O           2.1194  -15.1436  -47.4629 O.2       1 UNK        -0.5000 
     67 C          -2.0239  -21.6381  -46.4548 C.2       11 UNK         0.5000 
     68 O          -2.5844  -22.0874  -47.4525 O.2       11 UNK        -0.5000 
     69 N          -2.6248  -21.4971  -45.2640 N.am      12 UNK        -0.5000 
     70 CA         -3.9933  -21.9171  -44.9667 C.3       12 UNK         0.1400 
     71 CB         -4.4140  -21.3780  -43.5914 C.3       12 UNK        -0.1800 
     72 C          -4.1712  -23.4441  -45.0311 C.2       12 UNK         0.5000 
     73 O          -5.1485  -23.9094  -45.6170 O.2       12 UNK        -0.5000 
     74 N          -3.2160  -24.1987  -44.4662 N.am      13 UNK        -0.5000 
     75 CA         -3.1959  -25.6654  -44.4918 C.3       13 UNK         0.1400 
     76 CB         -2.0766  -26.1835  -43.5768 C.3       13 UNK        -0.1800 
     77 C          -3.0491  -26.2423  -45.9135 C.2       13 UNK         0.5000 
     78 O          -3.6898  -27.2433  -46.2354 O.2       13 UNK        -0.5000 
     79 N          -2.2403  -25.5767  -46.7474 N.am      14 UNK        -0.5000 
     80 CA         -2.0522  -25.8810  -48.1670 C.3       14 UNK         0.1400 
     81 CB         -0.7198  -25.2635  -48.6228 C.3       14 UNK        -0.1800 
     82 C          -3.2033  -25.3799  -49.0649 C.2       14 UNK         0.5000 
     83 O          -3.1909  -25.6655  -50.2635 O.2       14 UNK        -0.5000 
     84 N          -4.1439  -24.6110  -48.4959 N.am      15 UNK        -0.5000 
     85 CA         -5.2446  -23.8666  -49.1191 C.3       15 UNK         0.1400 
     86 CB         -6.2069  -24.7869  -49.8931 C.3       15 UNK        -0.1800 
     87 C          -4.7628  -22.6833  -49.9781 C.2       15 UNK         0.5000 
     88 O          -5.2152  -21.5591  -49.7578 O.2       15 UNK        -0.5000 
     89 N          -3.8445  -22.9538  -50.9164 N.am      16 UNK        -0.5000 
     90 CA         -3.1171  -22.0128  -51.7693 C.3       16 UNK         0.1400 
     91 CB         -2.0450  -21.2804  -50.9381 C.3       16 UNK        -0.1800 
     92 C          -4.0601  -21.0669  -52.5380 C.2       16 UNK         0.5000 
     93 O          -4.6614  -21.4882  -53.5268 O.2       16 UNK        -0.5000 
     94 N          -4.2151  -19.8269  -52.0553 N.am      17 UNK        -0.5000 
     95 CA         -5.1432  -18.8261  -52.5829 C.3       17 UNK         0.1400 
     96 CB         -4.9282  -17.4959  -51.8459 C.3       17 UNK        -0.1800 
     97 C          -6.6224  -19.2544  -52.5104 C.2       17 UNK         0.5000 
     98 O          -7.3918  -18.8919  -53.3996 O.2       17 UNK        -0.5000 
     99 N          -6.9895  -20.0593  -51.5015 N.am      18 UNK        -0.5000 
    100 CA        -8.3329  -20.6297  -51.3522 C.3       18 UNK         0.1400 
    101 CB        -8.5189  -21.1439  -49.9165 C.3       18 UNK        -0.1800 
    102 C         -8.6275  -21.7462  -52.3744 C.2       18 UNK         0.5000 
    103 O         -9.7940  -21.9898  -52.6832 O.2       18 UNK        -0.5000 
    104 N         -7.5706  -22.3793  -52.9021 N.am      19 UNK        -0.5000 
    105 CA        -7.6282  -23.3445  -54.0024 C.3       19 UNK         0.1400 
    106 CB        -6.5740  -24.4362  -53.7523 C.3       19 UNK        -0.1800 
    107 C         -7.4107  -22.6736  -55.3758 C.2       19 UNK         0.5000 
    108 O         -7.4166  -23.3694  -56.3917 O.2       19 UNK        -0.5000 
    109 N         -7.2000  -21.3473  -55.3811 N.am      20 UNK        -0.5000 
    110 CA        -6.8753  -20.4825  -56.5201 C.3       20 UNK         0.1400 
    111 CB        -8.0184  -20.4719  -57.5558 C.3       20 UNK        -0.1800 
    112 C         -5.4985  -20.7724  -57.1569 C.2       20 UNK         0.5000 
    113 O         -5.2403  -20.3198  -58.2736 O.2       20 UNK        -0.5000 
    114 N         -4.6132  -21.4755  -56.4342 N.am      21 UNK        -0.5000 
    115 CA        -3.2648  -21.8349  -56.8843 C.3       21 UNK         0.1400 
    116 CB        -2.6714  -22.8809  -55.9289 C.3       21 UNK        -0.1800 
    117 C         -2.3330  -20.6142  -57.0016 C.2       21 UNK         0.5000 
    118 O         -1.4414  -20.6059  -57.8510 O.2       21 UNK        -0.5000 
    119 N         -2.5874  -19.5976  -56.1697 N.am      22 UNK        -0.5000 
    120 CA        -1.9437  -18.2761  -56.2215 C.3       22 UNK         0.1400 
    121 C         -2.5997  -17.2981  -57.2444 C.2       22 UNK         0.5000 
    122 N         -3.6171  -17.6900  -58.0042 N.am      22 UNK        -0.7600 
    123 O         -2.1679  -16.1549  -57.3638 O.2       22 UNK        -0.5000 
    124 C124       -1.8390  -17.6410  -54.8105 C.3       23 UNK        -0.0398 
    125 S125       -0.7765  -18.6150  -53.6931 S.3       23 UNK        -0.2404 
    126 C126       -0.8215  -17.5845  -52.1956 C.3       23 UNK        -0.0205 
    127 H127       -0.3866  -10.3528  -49.9284 H         1 UNK         0.0600 
    128 H128       -1.3896  -10.6326  -48.5016 H         1 UNK         0.0600 
    129 H129       -0.0469   -9.4870  -48.4268 H         1 UNK         0.0600 
    130 H130        1.0657  -11.9989  -50.2874 H         1 UNK         0.3000 
    131 H131        2.9165  -12.9551  -48.4074 H         1 UNK         0.0600 
    132 H132        2.1200  -14.2379  -51.0672 H         1 UNK         0.0800 
    133 H133        3.1985  -12.8853  -50.9155 H         1 UNK         0.0800 
    134 H134        4.8489  -16.8204  -51.4180 H         1 UNK         0.0800 
    135 H135        3.8466  -15.7426  -52.3518 H         1 UNK         0.0800 
    136 H136        1.4917  -16.2017  -52.5199 H         1 UNK         0.1150 
    137 H137       -0.2765  -19.2721  -50.1110 H         1 UNK         0.1150 
    138 H138        3.7742  -18.0674  -49.4084 H         1 UNK         0.1150 
    139 H139        2.9327  -20.1640  -48.4928 H         1 UNK         0.0800 
    140 H140        1.3235  -20.7281  -48.8296 H         1 UNK         0.0800 
    141 H141       -0.8538  -19.4815  -47.7653 H         1 UNK         0.0800 
    142 H142       -0.8397  -19.1548  -46.0546 H         1 UNK         0.0800 
    143 H143       -0.1250  -21.8113  -47.3864 H         1 UNK         0.0600 
    144 H144        0.6691  -21.0142  -44.7910 H         1 UNK         0.3000 
    145 H145        0.7865  -24.3080  -43.3612 H         1 UNK         0.0600 
    146 H146        3.1202  -23.5319  -42.9455 H         1 UNK         0.0600 
    147 H147        2.9036  -24.0692  -44.6043 H         1 UNK         0.0600 
    148 H148        2.9734  -22.3512  -44.2464 H         1 UNK         0.0600 
    149 H149        1.3390  -21.5806  -42.4987 H         1 UNK         0.3000 
    150 H150       -1.8235  -21.0950  -40.9241 H         1 UNK         0.0600 
    151 H151        0.9568  -21.5807  -39.7240 H         1 UNK         0.0600 
    152 H152       -0.5117  -22.4411  -39.2757 H         1 UNK         0.0600 
    153 H153       -0.3725  -20.7204  -38.9485 H         1 UNK         0.0600 
    154 H154        0.5792  -19.5308  -41.0535 H         1 UNK         0.3000 
    155 H155       -0.0789  -17.8981  -44.1311 H         1 UNK         0.0600 
    156 H156       -1.6737  -16.7500  -42.5627 H         1 UNK         0.0600 
    157 H157       -0.1824  -15.8519  -42.7588 H         1 UNK         0.0600 
    158 H158       -0.4500  -16.7929  -41.2947 H         1 UNK         0.0600 
    159 H159        1.8618  -17.1467  -42.3703 H         1 UNK         0.3000 
    160 H160        4.2907  -19.7278  -42.7367 H         1 UNK         0.0600 
    161 H161        4.1834  -16.9275  -43.9704 H         1 UNK         0.0600 
    162 H162        4.4293  -18.4149  -44.8781 H         1 UNK         0.0600 
    163 H163        5.6329  -17.8948  -43.7060 H         1 UNK         0.0600 
    164 H164        4.5282  -17.1846  -41.5343 H         1 UNK         0.3000 
    165 H165        3.2061  -17.9180  -38.3283 H         1 UNK         0.0600 
    166 H166        5.5215  -17.3160  -37.6452 H         1 UNK         0.0600 
    167 H167        6.1109  -17.6754  -39.2677 H         1 UNK         0.0600 
    168 H168        5.4385  -18.9552  -38.2717 H         1 UNK         0.0600 
    169 H169        2.8785  -15.8276  -38.8473 H         1 UNK         0.3000 
    170 H170        2.8044  -13.9007  -39.7297 H         1 UNK         0.0600 
    171 H171        4.8556  -13.1958  -38.4716 H         1 UNK         0.0600 
    172 H172        5.6722  -12.8499  -39.9911 H         1 UNK         0.0600 
    173 H173        4.2571  -11.9122  -39.5102 H         1 UNK         0.0600 
    174 H174        3.9909  -12.6054  -41.8601 H         1 UNK         0.3000 
    175 H175        2.7941  -12.3612  -43.7466 H         1 UNK         0.0600 
    176 H176        3.7077  -14.9437  -45.1211 H         1 UNK         0.0600 
    177 H177        3.7721  -13.3177  -45.7912 H         1 UNK         0.0600 
    178 H178        4.7953  -13.7456  -44.4275 H         1 UNK         0.0600 
    179 H179        1.3949  -14.2693  -45.3424 H         1 UNK         0.3000 
    180 H180       -1.5637  -14.4220  -44.1650 H         1 UNK         0.0600 
    181 H181       -1.5567  -11.6625  -45.4950 H         1 UNK         0.0600 
    182 H182       -2.3273  -12.0836  -43.9700 H         1 UNK         0.0600 
    183 H183       -2.9267  -12.7718  -45.4689 H         1 UNK         0.0600 
    184 H184       -0.3349  -13.5508  -46.7442 H         1 UNK         0.3000 
    185 H185       -0.0478  -16.7553  -47.9544 H         1 UNK         0.0600 
    186 H186       -1.6638  -16.2759  -49.8194 H         1 UNK         0.0600 
    187 H187       -2.4829  -16.8537  -48.3787 H         1 UNK         0.0600 
    188 H188       -2.5212  -15.1409  -48.7828 H         1 UNK         0.0600 
    189 H189       -0.2449  -14.2458  -49.3378 H         1 UNK         0.3000 
    190 H190       -2.1160  -21.0513  -44.5046 H         1 UNK         0.3000 
    191 H191       -4.6494  -21.4745  -45.7193 H         1 UNK         0.0600 
    192 H192       -5.4343  -21.6774  -43.3485 H         1 UNK         0.0600 
    193 H193       -4.3811  -20.2886  -43.5696 H         1 UNK         0.0600 
    194 H194       -3.7640  -21.7472  -42.7973 H         1 UNK         0.0600 
    195 H195       -2.4613  -23.7434  -43.9648 H         1 UNK         0.3000 
    196 H196       -4.1490  -26.0165  -44.0910 H         1 UNK         0.0600 
    197 H197       -1.0951  -25.8471  -43.9109 H         1 UNK         0.0600 
    198 H198       -2.2165  -25.8430  -42.5508 H         1 UNK         0.0600 
    199 H199       -2.0608  -27.2739  -43.5580 H         1 UNK         0.0600 
    200 H200       -1.6916  -24.8048  -46.3778 H         1 UNK         0.3000 
    201 H201       -1.9883  -26.9641  -48.2891 H         1 UNK         0.0600 
    202 H202       -0.7328  -24.1761  -48.5344 H         1 UNK         0.0600 
    203 H203       -0.5072  -25.5064  -49.6646 H         1 UNK         0.0600 
    204 H204        0.1129  -25.6372  -48.0266 H         1 UNK         0.0600 
    205 H205       -4.0298  -24.4181  -47.5091 H         1 UNK         0.3000 
    206 H206       -5.8088  -23.4352  -48.2909 H         1 UNK         0.0600 
    207 H207       -6.6169  -25.5593  -49.2426 H         1 UNK         0.0600 
    208 H208       -7.0477  -24.2222  -50.2972 H         1 UNK         0.0600 
    209 H209       -5.7182  -25.2825  -50.7311 H         1 UNK         0.0600 
    210 H210       -3.5605  -23.9266  -50.9934 H         1 UNK         0.3000 
    211 H211       -2.6002  -22.6119  -52.5195 H         1 UNK         0.0600 
    212 H212       -1.4637  -20.6091  -51.5688 H         1 UNK         0.0600 
    213 H213       -1.3457  -21.9901  -50.4953 H         1 UNK         0.0600 
    214 H214       -2.4745  -20.6978  -50.1222 H         1 UNK         0.0600 
    215 H215       -3.7293  -19.5881  -51.2039 H         1 UNK         0.3000 
    216 H216       -4.9035  -18.6755  -53.6372 H         1 UNK         0.0600 
    217 H217       -5.0929  -17.5994  -50.7726 H         1 UNK         0.0600 
    218 H218       -5.6149  -16.7311  -52.2111 H         1 UNK         0.0600 
    219 H219       -3.9180  -17.1172  -51.9965 H         1 UNK         0.0600 
    220 H220       -6.2906  -20.3622  -50.8271 H         1 UNK         0.3000 
    221 H221       -9.0607  -19.8326  -51.5187 H         1 UNK         0.0600 
    222 H222       -7.8564  -21.9798  -49.6953 H         1 UNK         0.0600 
    223 H223       -9.5413  -21.4886  -49.7569 H         1 UNK         0.0600 
    224 H224       -8.3231  -20.3583  -49.1866 H         1 UNK         0.0600 
    225 H225       -6.6428  -22.0894  -52.6218 H         1 UNK         0.3000 
    226 H226       -8.6093  -23.8228  -54.0294 H         1 UNK         0.0600 
    227 H227       -5.5679  -24.0226  -53.6787 H         1 UNK         0.0600 
    228 H228       -6.7853  -24.9763  -52.8307 H         1 UNK         0.0600 
    229 H229       -6.5677  -25.1718  -54.5576 H         1 UNK         0.0600 
    230 H230       -7.2271  -20.8725  -54.4889 H         1 UNK         0.3000 
    231 H231       -6.8008  -19.4741  -56.1112 H         1 UNK         0.0600 
    232 H232       -8.9773  -20.2613  -57.0823 H         1 UNK         0.0600 
    233 H233       -8.1030  -21.4248  -58.0786 H         1 UNK         0.0600 
    234 H234       -7.8556  -19.7014  -58.3103 H         1 UNK         0.0600 
    235 H235       -4.8605  -21.7416  -55.4862 H         1 UNK         0.3000 
    236 H236       -3.3500  -22.2866  -57.8749 H         1 UNK         0.0600 
    237 H237       -3.3280  -23.7455  -55.8294 H         1 UNK         0.0600 
    238 H238       -1.7100  -23.2413  -56.2967 H         1 UNK         0.0600 
    239 H239       -2.5052  -22.4677  -54.9346 H         1 UNK         0.0600 
    240 H240       -3.3383  -19.7063  -55.5055 H         1 UNK         0.3000 
    241 H241       -0.9229  -18.4128  -56.5838 H         1 UNK         0.0600 
    242 H242       -3.9747  -18.6358  -57.9708 H         1 UNK         0.3800 
    243 H243       -4.0144  -17.0366  -58.6609 H         1 UNK         0.3800 
    244 H244       -2.8268  -17.5282  -54.3627 H         1 UNK         0.0800 
    245 H245       -1.4117  -16.6385  -54.8730 H         1 UNK         0.0800 
    246 H246       -1.6771  -17.8828  -51.5897 H         1 UNK         0.0800 
    247 H247       -0.9776  -16.5375  -52.4600 H         1 UNK         0.0800 
@<TRIPOS>BOND
     1    1    2 1    
     2    1  127 1    
     3    1  128 1    
     4    1  129 1    
     5    2    3 2    
     6    2    4 am   BACKBONE|DICT|INTERRES
     7    4    5 1    
     8    4  130 1    
     9    5    6 1    
    10    5   65 1    
    11    5  131 1    
    12    6    7 1    
    13    6  132 1    
    14    6  133 1    
    15    7    8 1    
    16    8    9 1    
    17    8  134 1    
    18    8  135 1    
    19    9   10 ar   
    20    9   14 ar   
    21   10   11 ar   
    22   10  136 1    
    23   11   12 ar   
    24   11  126 1    
    25   12   13 ar   
    26   12  137 1    
    27   13   14 ar   
    28   13   15 1    
    29   14  138 1    
    30   15   16 1    
    31   15  139 1    
    32   15  140 1    
    33   16   17 1    
    34   17   18 1    
    35   17  141 1    
    36   17  142 1    
    37   18   19 1    
    38   18   67 1    
    39   18  143 1    
    40   19   20 am   BACKBONE|DICT|INTERRES
    41   19  144 1    
    42   20   21 2    
    43   20   22 1    
    44   22   23 1    
    45   22   24 1    
    46   22  145 1    
    47   23  146 1    
    48   23  147 1    
    49   23  148 1    
    50   24   25 am   BACKBONE|DICT|INTERRES
    51   24  149 1    
    52   25   26 2    
    53   25   27 1    
    54   27   28 1    
    55   27   29 1    
    56   27  150 1    
    57   28  151 1    
    58   28  152 1    
    59   28  153 1    
    60   29   30 am   BACKBONE|DICT|INTERRES
    61   29  154 1    
    62   30   31 2    
    63   30   32 1    
    64   32   33 1    
    65   32   34 1    
    66   32  155 1    
    67   33  156 1    
    68   33  157 1    
    69   33  158 1    
    70   34   35 am   BACKBONE|DICT|INTERRES
    71   34  159 1    
    72   35   36 2    
    73   35   37 1    
    74   37   38 1    
    75   37   39 1    
    76   37  160 1    
    77   38  161 1    
    78   38  162 1    
    79   38  163 1    
    80   39   40 am   BACKBONE|DICT|INTERRES
    81   39  164 1    
    82   40   41 2    
    83   40   42 1    
    84   42   43 1    
    85   42   44 1    
    86   42  165 1    
    87   43  166 1    
    88   43  167 1    
    89   43  168 1    
    90   44   45 am   BACKBONE|DICT|INTERRES
    91   44  169 1    
    92   45   46 2    
    93   45   47 1    
    94   47   48 1    
    95   47   49 1    
    96   47  170 1    
    97   48  171 1    
    98   48  172 1    
    99   48  173 1    
   100   49   50 am   BACKBONE|DICT|INTERRES
   101   49  174 1    
   102   50   51 2    
   103   50   52 1    
   104   52   53 1    
   105   52   54 1    
   106   52  175 1    
   107   53  176 1    
   108   53  177 1    
   109   53  178 1    
   110   54   55 am   BACKBONE|DICT|INTERRES
   111   54  179 1    
   112   55   56 2    
   113   55   57 1    
   114   57   58 1    
   115   57   59 1    
   116   57  180 1    
   117   58  181 1    
   118   58  182 1    
   119   58  183 1    
   120   59   60 am   BACKBONE|DICT|INTERRES
   121   59  184 1    
   122   60   61 2    
   123   60   62 1    
   124   62   63 1    
   125   62   64 1    
   126   62  185 1    
   127   63  186 1    
   128   63  187 1    
   129   63  188 1    
   130   64   65 am   BACKBONE|DICT|INTERRES
   131   64  189 1    
   132   65   66 2    
   133   67   68 2    
   134   67   69 am   BACKBONE|DICT|INTERRES
   135   69   70 1    
   136   69  190 1    
   137   70   71 1    
   138   70   72 1    
   139   70  191 1    
   140   71  192 1    
   141   71  193 1    
   142   71  194 1    
   143   72   73 2    
   144   72   74 am   BACKBONE|DICT|INTERRES
   145   74   75 1    
   146   74  195 1    
   147   75   76 1    
   148   75   77 1    
   149   75  196 1    
   150   76  197 1    
   151   76  198 1    
   152   76  199 1    
   153   77   78 2    
   154   77   79 am   BACKBONE|DICT|INTERRES
   155   79   80 1    
   156   79  200 1    
   157   80   81 1    
   158   80   82 1    
   159   80  201 1    
   160   81  202 1    
   161   81  203 1    
   162   81  204 1    
   163   82   83 2    
   164   82   84 am   BACKBONE|DICT|INTERRES
   165   84   85 1    
   166   84  205 1    
   167   85   86 1    
   168   85   87 1    
   169   85  206 1    
   170   86  207 1    
   171   86  208 1    
   172   86  209 1    
   173   87   88 2    
   174   87   89 am   BACKBONE|DICT|INTERRES
   175   89   90 1    
   176   89  210 1    
   177   90   91 1    
   178   90   92 1    
   179   90  211 1    
   180   91  212 1    
   181   91  213 1    
   182   91  214 1    
   183   92   93 2    
   184   92   94 am   BACKBONE|DICT|INTERRES
   185   94   95 1    
   186   94  215 1    
   187   95   96 1    
   188   95   97 1    
   189   95  216 1    
   190   96  217 1    
   191   96  218 1    
   192   96  219 1    
   193   97   98 2    
   194   97   99 am   BACKBONE|DICT|INTERRES
   195   99  100 1    
   196   99  220 1    
   197  100  101 1    
   198  100  102 1    
   199  100  221 1    
   200  101  222 1    
   201  101  223 1    
   202  101  224 1    
   203  102  103 2    
   204  102  104 am   BACKBONE|DICT|INTERRES
   205  104  105 1    
   206  104  225 1    
   207  105  106 1    
   208  105  107 1    
   209  105  226 1    
   210  106  227 1    
   211  106  228 1    
   212  106  229 1    
   213  107  108 2    
   214  107  109 am   BACKBONE|DICT|INTERRES
   215  109  110 1    
   216  109  230 1    
   217  110  111 1    
   218  110  112 1    
   219  110  231 1    
   220  111  232 1    
   221  111  233 1    
   222  111  234 1    
   223  112  113 2    
   224  112  114 am   BACKBONE|DICT|INTERRES
   225  114  115 1    
   226  114  235 1    
   227  115  116 1    
   228  115  117 1    
   229  115  236 1    
   230  116  237 1    
   231  116  238 1    
   232  116  239 1    
   233  117  118 2    
   234  117  119 am   BACKBONE|DICT|INTERRES
   235  119  120 1    
   236  119  240 1    
   237  120  121 1    
   238  120  124 1    
   239  120  241 1    
   240  121  122 am   BACKBONE|DICT|INTERRES
   241  121  123 2    
   242  122  242 1    
   243  122  243 1    
   244  124  125 1    
   245  124  244 1    
   246  124  245 1    
   247  125  126 1    
   248  126  246 1    
   249  126  247 1    
@<TRIPOS>SUBSTRUCTURE
     1 UNK         1 GROUP             0       ****    0 ROOT    
