@<TRIPOS>MOLECULE
3R540
247   249    1
SMALL
USER_CHARGES


@<TRIPOS>ATOM
      1 CA          6.4104  -15.1142  -44.4980 C.3       0 UNK        -0.1800 
      2 C           5.2597  -14.2435  -44.9793 C.2       0 UNK         0.5000 
      3 O           4.4351  -13.8145  -44.1721 O.2       0 UNK        -0.5000 
      4 N           5.2096  -13.9581  -46.2879 N.am      1 UNK        -0.5000 
      5 CA          4.1365  -13.2167  -46.9712 C.3       1 UNK         0.1400 
      6 C6          4.1688  -13.4115  -48.5071 C.3       23 UNK        -0.0398 
      7 S7          3.9171  -15.1514  -48.9983 S.3       23 UNK        -0.2404 
      8 C8          2.1052  -15.1845  -49.2429 C.3       23 UNK        -0.0205 
      9 C9          1.5639  -16.4768  -49.8544 C.ar      23 UNK        -0.0193 
     10 C10         0.4123  -16.4126  -50.6447 C.ar      23 UNK        -0.1150 
     11 C11        -0.1103  -17.5596  -51.2477 C.ar      23 UNK        -0.0193 
     12 C12         0.5259  -18.7888  -51.0519 C.ar      23 UNK        -0.1150 
     13 C13         1.6726  -18.8754  -50.2574 C.ar      23 UNK        -0.0193 
     14 C14         2.1765  -17.7204  -49.6501 C.ar      23 UNK        -0.1150 
     15 C15         2.4095  -20.1996  -50.1057 C.3       23 UNK        -0.0205 
     16 S16         2.1797  -20.9477  -48.4632 S.3       23 UNK        -0.2404 
     17 C17         0.5263  -21.6975  -48.6220 C.3       23 UNK        -0.0398 
     18 CA          0.2645  -22.7401  -47.5070 C.3       11 UNK         0.1400 
     19 N           0.0976  -22.1141  -46.1905 N.am      11 UNK        -0.5000 
     20 C          -0.0006  -22.7767  -45.0298 C.2       10 UNK         0.5000 
     21 O           0.0968  -23.9989  -44.9327 O.2       10 UNK        -0.5000 
     22 CA         -0.3152  -21.9466  -43.7719 C.3       10 UNK         0.1400 
     23 CB          0.9523  -21.2843  -43.2118 C.3       10 UNK        -0.1800 
     24 N          -1.3465  -20.9360  -44.0110 N.am      10 UNK        -0.5000 
     25 C          -2.6183  -21.2164  -44.3291 C.2       9 UNK         0.5000 
     26 O          -3.0656  -22.3608  -44.3970 O.2       9 UNK        -0.5000 
     27 CA         -3.5356  -20.0284  -44.6750 C.3       9 UNK         0.1400 
     28 CB         -4.0901  -19.3724  -43.4024 C.3       9 UNK        -0.1800 
     29 N          -2.8733  -19.0231  -45.5084 N.am      9 UNK        -0.5000 
     30 C          -2.4190  -19.2591  -46.7479 C.2       8 UNK         0.5000 
     31 O          -2.5656  -20.3318  -47.3309 O.2       8 UNK        -0.5000 
     32 CA         -1.6221  -18.1347  -47.4344 C.3       8 UNK         0.1400 
     33 CB         -2.5645  -17.0983  -48.0618 C.3       8 UNK        -0.1800 
     34 N          -0.6836  -17.4728  -46.5285 N.am      8 UNK        -0.5000 
     35 C           0.3399  -18.0940  -45.9250 C.2       7 UNK         0.5000 
     36 O           0.6053  -19.2828  -46.0881 O.2       7 UNK        -0.5000 
     37 CA          1.1615  -17.2775  -44.9142 C.3       7 UNK         0.1400 
     38 CB          2.1203  -16.3115  -45.6183 C.3       7 UNK        -0.1800 
     39 N           0.3177  -16.5329  -43.9835 N.am      7 UNK        -0.5000 
     40 C          -0.5297  -17.0903  -43.1090 C.2       6 UNK         0.5000 
     41 O          -0.6531  -18.3041  -42.9496 O.2       6 UNK        -0.5000 
     42 CA         -1.4228  -16.1258  -42.3129 C.3       6 UNK         0.1400 
     43 CB         -0.6640  -15.5366  -41.1143 C.3       6 UNK        -0.1800 
     44 N          -1.9361  -15.0440  -43.1531 N.am      6 UNK        -0.5000 
     45 C          -2.8454  -15.2094  -44.1236 C.2       5 UNK         0.5000 
     46 O          -3.3639  -16.2909  -44.4003 O.2       5 UNK        -0.5000 
     47 CA         -3.2112  -13.9600  -44.9444 C.3       5 UNK         0.1400 
     48 CB         -4.2432  -13.1014  -44.1979 C.3       5 UNK        -0.1800 
     49 N          -2.0461  -13.1400  -45.2802 N.am      5 UNK        -0.5000 
     50 C          -1.0663  -13.5328  -46.1050 C.2       4 UNK         0.5000 
     51 O          -1.0322  -14.6310  -46.6572 O.2       4 UNK        -0.5000 
     52 CA          0.0897  -12.5452  -46.3308 C.3       4 UNK         0.1400 
     53 CB         -0.3180  -11.4767  -47.3566 C.3       4 UNK        -0.1800 
     54 N           0.5998  -11.8919  -45.1206 N.am      4 UNK        -0.5000 
     55 C           0.9802  -12.5005  -43.9875 C.2       3 UNK         0.5000 
     56 O           0.8207  -13.7014  -43.7657 O.2       3 UNK        -0.5000 
     57 CA          1.7265  -11.6157  -42.9745 C.3       3 UNK         0.1400 
     58 CB          1.9754  -12.3269  -41.6326 C.3       3 UNK        -0.1800 
     59 N           3.0112  -11.2708  -43.5734 N.am      3 UNK        -0.5000 
     60 C           3.3608  -10.0645  -44.0422 C.2       2 UNK         0.5000 
     61 O           2.6954   -9.0430  -43.8697 O.2       2 UNK        -0.5000 
     62 CA          4.6419  -10.0031  -44.9045 C.3       2 UNK         0.1400 
     63 CB          5.8714   -9.7150  -44.0302 C.3       2 UNK        -0.1800 
     64 N           4.8615  -11.2456  -45.6499 N.am      2 UNK        -0.5000 
     65 C           4.0325  -11.7191  -46.5914 C.2       1 UNK         0.5000 
     66 O           3.1584  -11.0287  -47.1150 O.2       1 UNK        -0.5000 
     67 C          -0.9266  -23.6559  -47.8614 C.2       11 UNK         0.5000 
     68 O          -0.7072  -24.7855  -48.3051 O.2       11 UNK        -0.5000 
     69 N          -2.1531  -23.1746  -47.6107 N.am      12 UNK        -0.5000 
     70 CA         -3.3994  -23.9147  -47.8133 C.3       12 UNK         0.1400 
     71 CB         -4.5965  -22.9775  -47.5955 C.3       12 UNK        -0.1800 
     72 C          -3.5103  -25.1540  -46.9091 C.2       12 UNK         0.5000 
     73 O          -3.9403  -26.2109  -47.3728 O.2       12 UNK        -0.5000 
     74 N          -3.1025  -25.0059  -45.6412 N.am      13 UNK        -0.5000 
     75 CA         -3.0444  -26.0851  -44.6570 C.3       13 UNK         0.1400 
     76 CB         -2.8154  -25.4894  -43.2596 C.3       13 UNK        -0.1800 
     77 C          -1.9683  -27.1378  -44.9818 C.2       13 UNK         0.5000 
     78 O          -2.1792  -28.3165  -44.6933 O.2       13 UNK        -0.5000 
     79 N          -0.8429  -26.7004  -45.5661 N.am      14 UNK        -0.5000 
     80 CA          0.2759  -27.5511  -45.9643 C.3       14 UNK         0.1400 
     81 CB          1.5007  -26.6928  -46.3225 C.3       14 UNK        -0.1800 
     82 C          -0.0928  -28.5168  -47.1033 C.2       14 UNK         0.5000 
     83 O          -0.0299  -29.7284  -46.8907 O.2       14 UNK        -0.5000 
     84 N          -0.4814  -27.9723  -48.2676 N.am      15 UNK        -0.5000 
     85 CA         -0.8782  -28.7283  -49.4668 C.3       15 UNK         0.1400 
     86 CB          0.2120  -29.7365  -49.9056 C.3       15 UNK        -0.1800 
     87 C          -1.1872  -27.8234  -50.6709 C.2       15 UNK         0.5000 
     88 O          -1.9719  -28.2249  -51.5321 O.2       15 UNK        -0.5000 
     89 N          -0.5225  -26.6638  -50.7564 N.am      16 UNK        -0.5000 
     90 CA         -0.5618  -25.7624  -51.9090 C.3       16 UNK         0.1400 
     91 CB          0.5217  -24.6882  -51.7236 C.3       16 UNK        -0.1800 
     92 C          -1.9357  -25.1038  -52.1356 C.2       16 UNK         0.5000 
     93 O          -2.7215  -24.9599  -51.1977 O.2       16 UNK        -0.5000 
     94 N          -2.1793  -24.6735  -53.3803 N.am      17 UNK        -0.5000 
     95 CA         -3.3136  -23.8299  -53.7514 C.3       17 UNK         0.1400 
     96 CB         -3.4714  -23.8267  -55.2811 C.3       17 UNK        -0.1800 
     97 C          -3.0869  -22.4109  -53.2042 C.2       17 UNK         0.5000 
     98 O          -2.2002  -21.7057  -53.6909 O.2       17 UNK        -0.5000 
     99 N          -3.8468  -22.0487  -52.1693 N.am      18 UNK        -0.5000 
    100 CA        -3.7409  -20.7884  -51.4503 C.3       18 UNK         0.1400 
    101 CB        -2.5155  -20.8303  -50.5204 C.3       18 UNK        -0.1800 
    102 C         -5.0363  -20.5453  -50.6642 C.2       18 UNK         0.5000 
    103 O         -5.8988  -21.4272  -50.6077 O.2       18 UNK        -0.5000 
    104 N         -5.1412  -19.3485  -50.0710 N.am      19 UNK        -0.5000 
    105 CA        -6.2166  -18.8350  -49.2108 C.3       19 UNK         0.1400 
    106 CB        -6.4041  -19.7022  -47.9509 C.3       19 UNK        -0.1800 
    107 C         -7.5485  -18.5965  -49.9468 C.2       19 UNK         0.5000 
    108 O         -8.0598  -17.4768  -49.9171 O.2       19 UNK        -0.5000 
    109 N         -8.0725  -19.6323  -50.6129 N.am      20 UNK        -0.5000 
    110 CA        -9.2454  -19.5551  -51.4855 C.3       20 UNK         0.1400 
    111 CB        -9.7741  -20.9722  -51.7561 C.3       20 UNK        -0.1800 
    112 C         -8.9163  -18.8289  -52.8024 C.2       20 UNK         0.5000 
    113 O         -9.6861  -17.9751  -53.2440 O.2       20 UNK        -0.5000 
    114 N         -7.7548  -19.1614  -53.3748 N.am      21 UNK        -0.5000 
    115 CA        -7.1457  -18.5408  -54.5435 C.3       21 UNK         0.1400 
    116 CB        -7.8774  -18.9608  -55.8314 C.3       21 UNK        -0.1800 
    117 C         -5.6800  -18.9894  -54.5749 C.2       21 UNK         0.5000 
    118 O         -5.4018  -20.1435  -54.2460 O.2       21 UNK        -0.5000 
    119 N         -4.7774  -18.0827  -54.9619 N.am      22 UNK        -0.5000 
    120 CA        -3.3264  -18.3299  -55.0659 C.3       22 UNK         0.1400 
    121 C         -2.8775  -18.9046  -56.4464 C.2       22 UNK         0.5000 
    122 N         -3.7743  -19.1170  -57.4026 N.am      22 UNK        -0.7600 
    123 O         -1.6986  -19.1696  -56.6614 O.2       22 UNK        -0.5000 
    124 C124       -2.5311  -17.0585  -54.6561 C.3       23 UNK        -0.0398 
    125 S125       -0.9118  -17.4127  -53.8882 S.3       23 UNK        -0.2404 
    126 C126       -1.3502  -17.4612  -52.1230 C.3       23 UNK        -0.0205 
    127 H127        7.0690  -15.4049  -45.3168 H         1 UNK         0.0600 
    128 H128        6.0227  -16.0212  -44.0343 H         1 UNK         0.0600 
    129 H129        7.0029  -14.5773  -43.7573 H         1 UNK         0.0600 
    130 H130        5.9246  -14.3319  -46.8960 H         1 UNK         0.3000 
    131 H131        3.2006  -13.6512  -46.6172 H         1 UNK         0.0600 
    132 H132        3.4088  -12.8039  -49.0016 H         1 UNK         0.0800 
    133 H133        5.1256  -13.0749  -48.9092 H         1 UNK         0.0800 
    134 H134        1.6027  -15.0128  -48.2927 H         1 UNK         0.0800 
    135 H135        1.8365  -14.3466  -49.8881 H         1 UNK         0.0800 
    136 H136       -0.0743  -15.4604  -50.8036 H         1 UNK         0.1150 
    137 H137        0.1435  -19.6715  -51.5428 H         1 UNK         0.1150 
    138 H138        3.0617  -17.7963  -49.0354 H         1 UNK         0.1150 
    139 H139        2.1076  -20.9061  -50.8804 H         1 UNK         0.0800 
    140 H140        3.4756  -20.0265  -50.2588 H         1 UNK         0.0800 
    141 H141        0.4599  -22.1569  -49.6082 H         1 UNK         0.0800 
    142 H142       -0.2233  -20.9061  -48.6004 H         1 UNK         0.0800 
    143 H143        1.1401  -23.3898  -47.4424 H         1 UNK         0.0600 
    144 H144        0.0778  -21.0967  -46.1742 H         1 UNK         0.3000 
    145 H145       -0.6961  -22.6322  -43.0123 H         1 UNK         0.0600 
    146 H146        0.7411  -20.7526  -42.2839 H         1 UNK         0.0600 
    147 H147        1.7170  -22.0306  -42.9932 H         1 UNK         0.0600 
    148 H148        1.3825  -20.5710  -43.9142 H         1 UNK         0.0600 
    149 H149       -1.0622  -19.9644  -43.9284 H         1 UNK         0.3000 
    150 H150       -4.3805  -20.4230  -45.2424 H         1 UNK         0.0600 
    151 H151       -4.6005  -20.1051  -42.7762 H         1 UNK         0.0600 
    152 H152       -4.8122  -18.5927  -43.6448 H         1 UNK         0.0600 
    153 H153       -3.2995  -18.9214  -42.8029 H         1 UNK         0.0600 
    154 H154       -2.7543  -18.1002  -45.1036 H         1 UNK         0.3000 
    155 H155       -1.0362  -18.5857  -48.2378 H         1 UNK         0.0600 
    156 H156       -3.1474  -16.5736  -47.3039 H         1 UNK         0.0600 
    157 H157       -2.0058  -16.3542  -48.6298 H         1 UNK         0.0600 
    158 H158       -3.2645  -17.5715  -48.7489 H         1 UNK         0.0600 
    159 H159       -0.8254  -16.4775  -46.3753 H         1 UNK         0.3000 
    160 H160        1.7603  -17.9818  -44.3331 H         1 UNK         0.0600 
    161 H161        2.8191  -15.8797  -44.9040 H         1 UNK         0.0600 
    162 H162        1.5807  -15.4909  -46.0873 H         1 UNK         0.0600 
    163 H163        2.7049  -16.8164  -46.3886 H         1 UNK         0.0600 
    164 H164        0.3841  -15.5183  -44.0155 H         1 UNK         0.3000 
    165 H165       -2.2735  -16.6938  -41.9302 H         1 UNK         0.0600 
    166 H166       -1.3026  -14.8758  -40.5280 H         1 UNK         0.0600 
    167 H167       -0.3161  -16.3277  -40.4489 H         1 UNK         0.0600 
    168 H168        0.2106  -14.9671  -41.4291 H         1 UNK         0.0600 
    169 H169       -1.5016  -14.1392  -43.0440 H         1 UNK         0.3000 
    170 H170       -3.6648  -14.3000  -45.8780 H         1 UNK         0.0600 
    171 H171       -3.8399  -12.7031  -43.2661 H         1 UNK         0.0600 
    172 H172       -4.5716  -12.2603  -44.8087 H         1 UNK         0.0600 
    173 H173       -5.1296  -13.6863  -43.9487 H         1 UNK         0.0600 
    174 H174       -1.9879  -12.2247  -44.8586 H         1 UNK         0.3000 
    175 H175        0.9163  -13.1150  -46.7557 H         1 UNK         0.0600 
    176 H176        0.5249  -10.8404  -47.6248 H         1 UNK         0.0600 
    177 H177       -1.1130  -10.8348  -46.9756 H         1 UNK         0.0600 
    178 H178       -0.6792  -11.9365  -48.2776 H         1 UNK         0.0600 
    179 H179        0.7979  -10.9055  -45.2103 H         1 UNK         0.3000 
    180 H180        1.1215  -10.7263  -42.7879 H         1 UNK         0.0600 
    181 H181        2.5648  -13.2363  -41.7597 H         1 UNK         0.0600 
    182 H182        1.0337  -12.6054  -41.1586 H         1 UNK         0.0600 
    183 H183        2.5097  -11.6781  -40.9387 H         1 UNK         0.0600 
    184 H184        3.6036  -12.0678  -43.7928 H         1 UNK         0.3000 
    185 H185        4.5270   -9.1875  -45.6215 H         1 UNK         0.0600 
    186 H186        6.7717   -9.6140  -44.6365 H         1 UNK         0.0600 
    187 H187        5.7464   -8.7833  -43.4769 H         1 UNK         0.0600 
    188 H188        6.0430  -10.5091  -43.3023 H         1 UNK         0.0600 
    189 H189        5.5492  -11.8811  -45.2725 H         1 UNK         0.3000 
    190 H190       -2.2466  -22.2171  -47.2815 H         1 UNK         0.3000 
    191 H191       -3.4203  -24.2531  -48.8489 H         1 UNK         0.0600 
    192 H192       -4.5333  -22.1041  -48.2414 H         1 UNK         0.0600 
    193 H193       -5.5353  -23.4831  -47.8237 H         1 UNK         0.0600 
    194 H194       -4.6542  -22.6234  -46.5666 H         1 UNK         0.0600 
    195 H195       -2.8268  -24.0820  -45.3211 H         1 UNK         0.3000 
    196 H196       -4.0123  -26.5906  -44.6549 H         1 UNK         0.0600 
    197 H197       -2.7915  -26.2716  -42.4999 H         1 UNK         0.0600 
    198 H198       -3.6142  -24.7982  -42.9900 H         1 UNK         0.0600 
    199 H199       -1.8712  -24.9472  -43.2034 H         1 UNK         0.0600 
    200 H200       -0.7234  -25.7018  -45.6988 H         1 UNK         0.3000 
    201 H201        0.5487  -28.1573  -45.0978 H         1 UNK         0.0600 
    202 H202        1.8261  -26.0986  -45.4686 H         1 UNK         0.0600 
    203 H203        1.2982  -26.0086  -47.1452 H         1 UNK         0.0600 
    204 H204        2.3422  -27.3202  -46.6188 H         1 UNK         0.0600 
    205 H205       -0.5935  -26.9645  -48.3124 H         1 UNK         0.3000 
    206 H206       -1.7925  -29.2753  -49.2294 H         1 UNK         0.0600 
    207 H207        0.2856  -30.5858  -49.2281 H         1 UNK         0.0600 
    208 H208       -0.0058  -30.1554  -50.8894 H         1 UNK         0.0600 
    209 H209        1.1932  -29.2642  -49.9638 H         1 UNK         0.0600 
    210 H210        0.0694  -26.3766  -49.9917 H         1 UNK         0.3000 
    211 H211       -0.3177  -26.3491  -52.7972 H         1 UNK         0.0600 
    212 H212        0.3471  -24.1036  -50.8217 H         1 UNK         0.0600 
    213 H213        0.5427  -23.9946  -52.5652 H         1 UNK         0.0600 
    214 H214        1.5131  -25.1349  -51.6470 H         1 UNK         0.0600 
    215 H215       -1.4708  -24.7987  -54.0885 H         1 UNK         0.3000 
    216 H216       -4.2255  -24.2457  -53.3169 H         1 UNK         0.0600 
    217 H217       -4.3039  -23.1894  -55.5823 H         1 UNK         0.0600 
    218 H218       -3.6742  -24.8290  -55.6587 H         1 UNK         0.0600 
    219 H219       -2.5766  -23.4538  -55.7813 H         1 UNK         0.0600 
    220 H220       -4.5744  -22.6621  -51.8239 H         1 UNK         0.3000 
    221 H221       -3.6308  -19.9788  -52.1721 H         1 UNK         0.0600 
    222 H222       -1.6022  -21.0504  -51.0704 H         1 UNK         0.0600 
    223 H223       -2.6287  -21.6008  -49.7602 H         1 UNK         0.0600 
    224 H224       -2.3655  -19.8791  -50.0109 H         1 UNK         0.0600 
    225 H225       -4.3905  -18.6923  -50.2241 H         1 UNK         0.3000 
    226 H226       -5.8727  -17.8565  -48.8714 H         1 UNK         0.0600 
    227 H227       -5.4665  -19.8080  -47.4059 H         1 UNK         0.0600 
    228 H228       -7.1256  -19.2479  -47.2709 H         1 UNK         0.0600 
    229 H229       -6.7673  -20.7022  -48.1883 H         1 UNK         0.0600 
    230 H230       -7.5496  -20.5043  -50.6031 H         1 UNK         0.3000 
    231 H231      -10.0272  -18.9907  -50.9725 H         1 UNK         0.0600 
    232 H232       -9.0250  -21.5977  -52.2433 H         1 UNK         0.0600 
    233 H233      -10.6516  -20.9441  -52.4035 H         1 UNK         0.0600 
    234 H234      -10.0693  -21.4648  -50.8295 H         1 UNK         0.0600 
    235 H235       -7.1815  -19.8799  -52.9511 H         1 UNK         0.3000 
    236 H236       -7.1888  -17.4555  -54.4311 H         1 UNK         0.0600 
    237 H237       -8.9158  -18.6298  -55.8277 H         1 UNK         0.0600 
    238 H238       -7.4035  -18.5227  -56.7105 H         1 UNK         0.0600 
    239 H239       -7.8726  -20.0441  -55.9595 H         1 UNK         0.0600 
    240 H240       -5.0906  -17.1639  -55.2416 H         1 UNK         0.3000 
    241 H241       -3.0783  -19.1104  -54.3450 H         1 UNK         0.0600 
    242 H242       -4.7484  -18.9145  -57.2499 H         1 UNK         0.3800 
    243 H243       -3.4727  -19.4908  -58.2889 H         1 UNK         0.3800 
    244 H244       -2.3753  -16.4042  -55.5157 H         1 UNK         0.0800 
    245 H245       -3.1063  -16.4631  -53.9456 H         1 UNK         0.0800 
    246 H246       -2.0008  -18.3141  -51.9387 H         1 UNK         0.0800 
    247 H247       -1.9232  -16.5704  -51.8608 H         1 UNK         0.0800 
@<TRIPOS>BOND
     1    1    2 1    
     2    1  127 1    
     3    1  128 1    
     4    1  129 1    
     5    2    3 2    
     6    2    4 am   BACKBONE|DICT|INTERRES
     7    4    5 1    
     8    4  130 1    
     9    5    6 1    
    10    5   65 1    
    11    5  131 1    
    12    6    7 1    
    13    6  132 1    
    14    6  133 1    
    15    7    8 1    
    16    8    9 1    
    17    8  134 1    
    18    8  135 1    
    19    9   10 ar   
    20    9   14 ar   
    21   10   11 ar   
    22   10  136 1    
    23   11   12 ar   
    24   11  126 1    
    25   12   13 ar   
    26   12  137 1    
    27   13   14 ar   
    28   13   15 1    
    29   14  138 1    
    30   15   16 1    
    31   15  139 1    
    32   15  140 1    
    33   16   17 1    
    34   17   18 1    
    35   17  141 1    
    36   17  142 1    
    37   18   19 1    
    38   18   67 1    
    39   18  143 1    
    40   19   20 am   BACKBONE|DICT|INTERRES
    41   19  144 1    
    42   20   21 2    
    43   20   22 1    
    44   22   23 1    
    45   22   24 1    
    46   22  145 1    
    47   23  146 1    
    48   23  147 1    
    49   23  148 1    
    50   24   25 am   BACKBONE|DICT|INTERRES
    51   24  149 1    
    52   25   26 2    
    53   25   27 1    
    54   27   28 1    
    55   27   29 1    
    56   27  150 1    
    57   28  151 1    
    58   28  152 1    
    59   28  153 1    
    60   29   30 am   BACKBONE|DICT|INTERRES
    61   29  154 1    
    62   30   31 2    
    63   30   32 1    
    64   32   33 1    
    65   32   34 1    
    66   32  155 1    
    67   33  156 1    
    68   33  157 1    
    69   33  158 1    
    70   34   35 am   BACKBONE|DICT|INTERRES
    71   34  159 1    
    72   35   36 2    
    73   35   37 1    
    74   37   38 1    
    75   37   39 1    
    76   37  160 1    
    77   38  161 1    
    78   38  162 1    
    79   38  163 1    
    80   39   40 am   BACKBONE|DICT|INTERRES
    81   39  164 1    
    82   40   41 2    
    83   40   42 1    
    84   42   43 1    
    85   42   44 1    
    86   42  165 1    
    87   43  166 1    
    88   43  167 1    
    89   43  168 1    
    90   44   45 am   BACKBONE|DICT|INTERRES
    91   44  169 1    
    92   45   46 2    
    93   45   47 1    
    94   47   48 1    
    95   47   49 1    
    96   47  170 1    
    97   48  171 1    
    98   48  172 1    
    99   48  173 1    
   100   49   50 am   BACKBONE|DICT|INTERRES
   101   49  174 1    
   102   50   51 2    
   103   50   52 1    
   104   52   53 1    
   105   52   54 1    
   106   52  175 1    
   107   53  176 1    
   108   53  177 1    
   109   53  178 1    
   110   54   55 am   BACKBONE|DICT|INTERRES
   111   54  179 1    
   112   55   56 2    
   113   55   57 1    
   114   57   58 1    
   115   57   59 1    
   116   57  180 1    
   117   58  181 1    
   118   58  182 1    
   119   58  183 1    
   120   59   60 am   BACKBONE|DICT|INTERRES
   121   59  184 1    
   122   60   61 2    
   123   60   62 1    
   124   62   63 1    
   125   62   64 1    
   126   62  185 1    
   127   63  186 1    
   128   63  187 1    
   129   63  188 1    
   130   64   65 am   BACKBONE|DICT|INTERRES
   131   64  189 1    
   132   65   66 2    
   133   67   68 2    
   134   67   69 am   BACKBONE|DICT|INTERRES
   135   69   70 1    
   136   69  190 1    
   137   70   71 1    
   138   70   72 1    
   139   70  191 1    
   140   71  192 1    
   141   71  193 1    
   142   71  194 1    
   143   72   73 2    
   144   72   74 am   BACKBONE|DICT|INTERRES
   145   74   75 1    
   146   74  195 1    
   147   75   76 1    
   148   75   77 1    
   149   75  196 1    
   150   76  197 1    
   151   76  198 1    
   152   76  199 1    
   153   77   78 2    
   154   77   79 am   BACKBONE|DICT|INTERRES
   155   79   80 1    
   156   79  200 1    
   157   80   81 1    
   158   80   82 1    
   159   80  201 1    
   160   81  202 1    
   161   81  203 1    
   162   81  204 1    
   163   82   83 2    
   164   82   84 am   BACKBONE|DICT|INTERRES
   165   84   85 1    
   166   84  205 1    
   167   85   86 1    
   168   85   87 1    
   169   85  206 1    
   170   86  207 1    
   171   86  208 1    
   172   86  209 1    
   173   87   88 2    
   174   87   89 am   BACKBONE|DICT|INTERRES
   175   89   90 1    
   176   89  210 1    
   177   90   91 1    
   178   90   92 1    
   179   90  211 1    
   180   91  212 1    
   181   91  213 1    
   182   91  214 1    
   183   92   93 2    
   184   92   94 am   BACKBONE|DICT|INTERRES
   185   94   95 1    
   186   94  215 1    
   187   95   96 1    
   188   95   97 1    
   189   95  216 1    
   190   96  217 1    
   191   96  218 1    
   192   96  219 1    
   193   97   98 2    
   194   97   99 am   BACKBONE|DICT|INTERRES
   195   99  100 1    
   196   99  220 1    
   197  100  101 1    
   198  100  102 1    
   199  100  221 1    
   200  101  222 1    
   201  101  223 1    
   202  101  224 1    
   203  102  103 2    
   204  102  104 am   BACKBONE|DICT|INTERRES
   205  104  105 1    
   206  104  225 1    
   207  105  106 1    
   208  105  107 1    
   209  105  226 1    
   210  106  227 1    
   211  106  228 1    
   212  106  229 1    
   213  107  108 2    
   214  107  109 am   BACKBONE|DICT|INTERRES
   215  109  110 1    
   216  109  230 1    
   217  110  111 1    
   218  110  112 1    
   219  110  231 1    
   220  111  232 1    
   221  111  233 1    
   222  111  234 1    
   223  112  113 2    
   224  112  114 am   BACKBONE|DICT|INTERRES
   225  114  115 1    
   226  114  235 1    
   227  115  116 1    
   228  115  117 1    
   229  115  236 1    
   230  116  237 1    
   231  116  238 1    
   232  116  239 1    
   233  117  118 2    
   234  117  119 am   BACKBONE|DICT|INTERRES
   235  119  120 1    
   236  119  240 1    
   237  120  121 1    
   238  120  124 1    
   239  120  241 1    
   240  121  122 am   BACKBONE|DICT|INTERRES
   241  121  123 2    
   242  122  242 1    
   243  122  243 1    
   244  124  125 1    
   245  124  244 1    
   246  124  245 1    
   247  125  126 1    
   248  126  246 1    
   249  126  247 1    
@<TRIPOS>SUBSTRUCTURE
     1 UNK         1 GROUP             0       ****    0 ROOT    
