@<TRIPOS>MOLECULE
3R540
247   249    1
SMALL
USER_CHARGES


@<TRIPOS>ATOM
      1 CA         -0.4442  -14.4398  -51.0858 C.3       0 UNK        -0.1800 
      2 C          -1.4797  -13.4666  -51.6476 C.2       0 UNK         0.5000 
      3 O          -1.1768  -12.7357  -52.5880 O.2       0 UNK        -0.5000 
      4 N          -2.7090  -13.4149  -51.1145 N.am      1 UNK        -0.5000 
      5 CA         -3.1790  -14.1430  -49.9275 C.3       1 UNK         0.1400 
      6 C6         -4.7230  -14.2545  -49.8884 C.3       23 UNK        -0.0398 
      7 S7         -5.3794  -15.2971  -51.2352 S.3       23 UNK        -0.2404 
      8 C8         -5.6582  -16.8778  -50.3709 C.3       23 UNK        -0.0205 
      9 C9         -4.3481  -17.5510  -49.9933 C.ar      23 UNK        -0.0193 
     10 C10        -3.6681  -18.3391  -50.9242 C.ar      23 UNK        -0.1150 
     11 C11        -2.4490  -18.9340  -50.5907 C.ar      23 UNK        -0.0193 
     12 C12        -1.9049  -18.7256  -49.3211 C.ar      23 UNK        -0.1150 
     13 C13        -2.5795  -17.9459  -48.3729 C.ar      23 UNK        -0.0193 
     14 C14        -3.8070  -17.3746  -48.7171 C.ar      23 UNK        -0.1150 
     15 C15        -2.0044  -17.6527  -46.9879 C.3       23 UNK        -0.0205 
     16 S16        -0.7874  -18.8582  -46.3675 S.3       23 UNK        -0.2404 
     17 C17        -1.8212  -20.3349  -46.1161 C.3       23 UNK        -0.0398 
     18 CA         -0.9668  -21.6203  -46.1610 C.3       11 UNK         0.1400 
     19 N           0.0276  -21.6678  -45.0803 N.am      11 UNK        -0.5000 
     20 C           1.0008  -22.5825  -44.9524 C.2       10 UNK         0.5000 
     21 O           1.1657  -23.5111  -45.7442 O.2       10 UNK        -0.5000 
     22 CA          1.9042  -22.4746  -43.7107 C.3       10 UNK         0.1400 
     23 CB          3.2455  -21.8173  -44.0660 C.3       10 UNK        -0.1800 
     24 N           1.2761  -21.7162  -42.6296 N.am      10 UNK        -0.5000 
     25 C           0.3111  -22.1706  -41.8196 C.2       9 UNK         0.5000 
     26 O          -0.1515  -23.3100  -41.8932 O.2       9 UNK        -0.5000 
     27 CA         -0.2477  -21.1667  -40.7866 C.3       9 UNK         0.1400 
     28 CB         -0.8418  -21.8517  -39.5389 C.3       9 UNK        -0.1800 
     29 N           0.7162  -20.1230  -40.4165 N.am      9 UNK        -0.5000 
     30 C           1.8850  -20.2687  -39.7727 C.2       8 UNK         0.5000 
     31 O           2.2913  -21.3382  -39.3173 O.2       8 UNK        -0.5000 
     32 CA          2.7732  -19.0129  -39.6393 C.3       8 UNK         0.1400 
     33 CB          3.9734  -19.1117  -40.5939 C.3       8 UNK        -0.1800 
     34 N           2.0641  -17.7602  -39.9107 N.am      8 UNK        -0.5000 
     35 C           1.1699  -17.1902  -39.0911 C.2       7 UNK         0.5000 
     36 O           0.8849  -17.6279  -37.9761 O.2       7 UNK        -0.5000 
     37 CA          0.4459  -15.9424  -39.6287 C.3       7 UNK         0.1400 
     38 CB          1.2638  -14.6712  -39.3536 C.3       7 UNK        -0.1800 
     39 N           0.1681  -16.0430  -41.0627 N.am      7 UNK        -0.5000 
     40 C          -0.7515  -16.8543  -41.6049 C.2       6 UNK         0.5000 
     41 O          -1.4951  -17.5836  -40.9493 O.2       6 UNK        -0.5000 
     42 CA         -0.8183  -16.8872  -43.1411 C.3       6 UNK         0.1400 
     43 CB         -1.6711  -15.7247  -43.6721 C.3       6 UNK        -0.1800 
     44 N           0.5139  -16.8396  -43.7441 N.am      6 UNK        -0.5000 
     45 C           1.3875  -17.8584  -43.7093 C.2       5 UNK         0.5000 
     46 O           1.1437  -18.9452  -43.1859 O.2       5 UNK        -0.5000 
     47 CA          2.7762  -17.6305  -44.3369 C.3       5 UNK         0.1400 
     48 CB          2.7740  -18.0728  -45.8079 C.3       5 UNK        -0.1800 
     49 N           3.2334  -16.2446  -44.2614 N.am      5 UNK        -0.5000 
     50 C           3.3781  -15.5235  -43.1406 C.2       4 UNK         0.5000 
     51 O           3.2303  -15.9843  -42.0083 O.2       4 UNK        -0.5000 
     52 CA          3.6692  -14.0198  -43.3247 C.3       4 UNK         0.1400 
     53 CB          5.1683  -13.7379  -43.1476 C.3       4 UNK        -0.1800 
     54 N           3.2271  -13.4917  -44.6234 N.am      4 UNK        -0.5000 
     55 C           1.9560  -13.4681  -45.0482 C.2       3 UNK         0.5000 
     56 O           1.0024  -13.8707  -44.3762 O.2       3 UNK        -0.5000 
     57 CA          1.7226  -12.9873  -46.4852 C.3       3 UNK         0.1400 
     58 CB          2.0345  -14.1170  -47.4867 C.3       3 UNK        -0.1800 
     59 N           0.3304  -12.5747  -46.6204 N.am      3 UNK        -0.5000 
     60 C          -0.1571  -11.7985  -47.5911 C.2       2 UNK         0.5000 
     61 O           0.5240  -11.3377  -48.5097 O.2       2 UNK        -0.5000 
     62 CA         -1.6667  -11.5110  -47.5510 C.3       2 UNK         0.1400 
     63 CB         -1.9600  -10.0068  -47.6769 C.3       2 UNK        -0.1800 
     64 N          -2.3158  -12.2203  -48.6492 N.am      2 UNK        -0.5000 
     65 C          -2.6555  -13.5158  -48.6173 C.2       1 UNK         0.5000 
     66 O          -2.5551  -14.2172  -47.6111 O.2       1 UNK        -0.5000 
     67 C          -1.8655  -22.8744  -46.2306 C.2       11 UNK         0.5000 
     68 O          -2.4167  -23.1588  -47.2936 O.2       11 UNK        -0.5000 
     69 N          -1.9493  -23.6344  -45.1281 N.am      12 UNK        -0.5000 
     70 CA         -2.5800  -24.9523  -45.0588 C.3       12 UNK         0.1400 
     71 CB         -2.5326  -25.4545  -43.6084 C.3       12 UNK        -0.1800 
     72 C          -1.9340  -25.9827  -46.0088 C.2       12 UNK         0.5000 
     73 O          -2.6479  -26.8083  -46.5778 O.2       12 UNK        -0.5000 
     74 N          -0.6075  -25.8970  -46.1890 N.am      13 UNK        -0.5000 
     75 CA          0.1516  -26.7350  -47.1179 C.3       13 UNK         0.1400 
     76 CB          1.6022  -26.8516  -46.6258 C.3       13 UNK        -0.1800 
     77 C           0.1127  -26.1896  -48.5570 C.2       13 UNK         0.5000 
     78 O           0.2016  -26.9726  -49.5038 O.2       13 UNK        -0.5000 
     79 N          -0.0407  -24.8664  -48.7085 N.am      14 UNK        -0.5000 
     80 CA         -0.1107  -24.1549  -49.9873 C.3       14 UNK         0.1400 
     81 CB          0.3326  -22.6973  -49.7751 C.3       14 UNK        -0.1800 
     82 C          -1.5149  -24.2676  -50.6170 C.2       14 UNK         0.5000 
     83 O          -2.2140  -23.2651  -50.7821 O.2       14 UNK        -0.5000 
     84 N          -1.9103  -25.5119  -50.9212 N.am      15 UNK        -0.5000 
     85 CA         -3.1858  -25.9264  -51.5179 C.3       15 UNK         0.1400 
     86 CB         -3.2988  -25.3995  -52.9638 C.3       15 UNK        -0.1800 
     87 C          -4.4205  -25.5800  -50.6557 C.2       15 UNK         0.5000 
     88 O          -5.5192  -25.4371  -51.1929 O.2       15 UNK        -0.5000 
     89 N          -4.2155  -25.4608  -49.3348 N.am      16 UNK        -0.5000 
     90 CA         -5.1966  -25.0700  -48.3184 C.3       16 UNK         0.1400 
     91 CB         -6.2684  -26.1652  -48.1385 C.3       16 UNK        -0.1800 
     92 C          -5.7854  -23.6656  -48.5684 C.2       16 UNK         0.5000 
     93 O          -6.9985  -23.4777  -48.4601 O.2       16 UNK        -0.5000 
     94 N          -4.8981  -22.7129  -48.8950 N.am      17 UNK        -0.5000 
     95 CA         -5.1695  -21.3055  -49.1989 C.3       17 UNK         0.1400 
     96 CB         -5.6537  -20.5617  -47.9360 C.3       17 UNK        -0.1800 
     97 C          -6.1235  -21.1467  -50.4012 C.2       17 UNK         0.5000 
     98 O          -7.2310  -20.6260  -50.2521 O.2       17 UNK        -0.5000 
     99 N          -5.6815  -21.6517  -51.5615 N.am      18 UNK        -0.5000 
    100 CA        -6.4116  -21.6319  -52.8312 C.3       18 UNK         0.1400 
    101 CB        -5.8894  -22.7821  -53.7159 C.3       18 UNK        -0.1800 
    102 C         -6.3464  -20.2447  -53.5130 C.2       18 UNK         0.5000 
    103 O         -6.7224  -19.2425  -52.9054 O.2       18 UNK        -0.5000 
    104 N         -5.8916  -20.1944  -54.7722 N.am      19 UNK        -0.5000 
    105 CA        -5.6333  -18.9560  -55.5079 C.3       19 UNK         0.1400 
    106 CB        -5.3995  -19.2964  -56.9879 C.3       19 UNK        -0.1800 
    107 C         -4.4105  -18.2223  -54.9312 C.2       19 UNK         0.5000 
    108 O         -3.4850  -18.8787  -54.4531 O.2       19 UNK        -0.5000 
    109 N         -4.4010  -16.8871  -55.0315 N.am      20 UNK        -0.5000 
    110 CA        -3.3587  -16.0019  -54.4933 C.3       20 UNK         0.1400 
    111 CB        -3.7970  -14.5448  -54.7066 C.3       20 UNK        -0.1800 
    112 C         -1.9458  -16.2288  -55.0736 C.2       20 UNK         0.5000 
    113 O         -0.9621  -15.8602  -54.4327 O.2       20 UNK        -0.5000 
    114 N         -1.8663  -16.8361  -56.2661 N.am      21 UNK        -0.5000 
    115 CA        -0.6199  -17.2810  -56.8929 C.3       21 UNK         0.1400 
    116 CB        -0.8859  -17.5534  -58.3816 C.3       21 UNK        -0.1800 
    117 C         -0.0149  -18.5304  -56.2171 C.2       21 UNK         0.5000 
    118 O          1.1903  -18.7537  -56.3370 O.2       21 UNK        -0.5000 
    119 N         -0.8570  -19.3159  -55.5308 N.am      22 UNK        -0.5000 
    120 CA        -0.5189  -20.5167  -54.7474 C.3       22 UNK         0.1400 
    121 C          0.0474  -21.7161  -55.5680 C.2       22 UNK         0.5000 
    122 N         -0.1318  -21.7597  -56.8825 N.am      22 UNK        -0.7600 
    123 O          0.6297  -22.6405  -55.0069 O.2       22 UNK        -0.5000 
    124 C124        0.3269  -20.1993  -53.4818 C.3       23 UNK        -0.0398 
    125 S125       -0.3936  -18.8907  -52.4298 S.3       23 UNK        -0.2404 
    126 C126       -1.7196  -19.8104  -51.5931 C.3       23 UNK        -0.0205 
    127 H127       -0.8001  -15.4681  -51.1566 H         1 UNK         0.0600 
    128 H128        0.4846  -14.3756  -51.6530 H         1 UNK         0.0600 
    129 H129       -0.2133  -14.2143  -50.0451 H         1 UNK         0.0600 
    130 H130       -3.3870  -12.7943  -51.5325 H         1 UNK         0.3000 
    131 H131       -2.7749  -15.1546  -49.9680 H         1 UNK         0.0600 
    132 H132       -5.1786  -13.2661  -49.9674 H         1 UNK         0.0800 
    133 H133       -5.0653  -14.6606  -48.9351 H         1 UNK         0.0800 
    134 H134       -6.2337  -17.5380  -51.0194 H         1 UNK         0.0800 
    135 H135       -6.2765  -16.7140  -49.4872 H         1 UNK         0.0800 
    136 H136       -4.0880  -18.4841  -51.9092 H         1 UNK         0.1150 
    137 H137       -0.9489  -19.1698  -49.0854 H         1 UNK         0.1150 
    138 H138       -4.3287  -16.7623  -47.9951 H         1 UNK         0.1150 
    139 H139       -1.5200  -16.6765  -47.0264 H         1 UNK         0.0800 
    140 H140       -2.8107  -17.5700  -46.2576 H         1 UNK         0.0800 
    141 H141       -2.3506  -20.2452  -45.1662 H         1 UNK         0.0800 
    142 H142       -2.5812  -20.3573  -46.8985 H         1 UNK         0.0800 
    143 H143       -0.3988  -21.6041  -47.0906 H         1 UNK         0.0600 
    144 H144       -0.0093  -20.9172  -44.4045 H         1 UNK         0.3000 
    145 H145        2.1023  -23.4888  -43.3577 H         1 UNK         0.0600 
    146 H146        3.9163  -21.8043  -43.2067 H         1 UNK         0.0600 
    147 H147        3.7498  -22.3627  -44.8649 H         1 UNK         0.0600 
    148 H148        3.1134  -20.7893  -44.4010 H         1 UNK         0.0600 
    149 H149        1.5121  -20.7299  -42.5722 H         1 UNK         0.3000 
    150 H150       -1.0633  -20.6469  -41.2913 H         1 UNK         0.0600 
    151 H151       -1.6739  -22.5026  -39.8100 H         1 UNK         0.0600 
    152 H152       -1.2240  -21.1165  -38.8307 H         1 UNK         0.0600 
    153 H153       -0.1046  -22.4660  -39.0216 H         1 UNK         0.0600 
    154 H154        0.5029  -19.2011  -40.7721 H         1 UNK         0.3000 
    155 H155        3.1501  -18.9811  -38.6150 H         1 UNK         0.0600 
    156 H156        4.5794  -19.9907  -40.3711 H         1 UNK         0.0600 
    157 H157        4.6215  -18.2392  -40.5085 H         1 UNK         0.0600 
    158 H158        3.6521  -19.1915  -41.6321 H         1 UNK         0.0600 
    159 H159        2.2936  -17.2850  -40.7778 H         1 UNK         0.3000 
    160 H160       -0.5059  -15.8544  -39.1003 H         1 UNK         0.0600 
    161 H161        2.2322  -14.6947  -39.8542 H         1 UNK         0.0600 
    162 H162        0.7335  -13.7804  -39.6907 H         1 UNK         0.0600 
    163 H163        1.4509  -14.5532  -38.2855 H         1 UNK         0.0600 
    164 H164        0.7638  -15.5096  -41.6796 H         1 UNK         0.3000 
    165 H165       -1.2959  -17.8227  -43.4400 H         1 UNK         0.0600 
    166 H166       -1.6916  -15.7096  -44.7613 H         1 UNK         0.0600 
    167 H167       -2.7021  -15.8117  -43.3275 H         1 UNK         0.0600 
    168 H168       -1.2950  -14.7588  -43.3338 H         1 UNK         0.0600 
    169 H169        0.7892  -15.9590  -44.1627 H         1 UNK         0.3000 
    170 H170        3.4921  -18.2478  -43.7924 H         1 UNK         0.0600 
    171 H171        2.4126  -19.0964  -45.9135 H         1 UNK         0.0600 
    172 H172        2.1279  -17.4387  -46.4165 H         1 UNK         0.0600 
    173 H173        3.7772  -18.0375  -46.2329 H         1 UNK         0.0600 
    174 H174        3.3859  -15.7764  -45.1415 H         1 UNK         0.3000 
    175 H175        3.1244  -13.4864  -42.5429 H         1 UNK         0.0600 
    176 H176        5.7643  -14.2291  -43.9178 H         1 UNK         0.0600 
    177 H177        5.3768  -12.6687  -43.1908 H         1 UNK         0.0600 
    178 H178        5.5215  -14.0972  -42.1800 H         1 UNK         0.0600 
    179 H179        3.9539  -13.1504  -45.2366 H         1 UNK         0.3000 
    180 H180        2.3732  -12.1310  -46.6748 H         1 UNK         0.0600 
    181 H181        3.0636  -14.4635  -47.3858 H         1 UNK         0.0600 
    182 H182        1.3801  -14.9771  -47.3365 H         1 UNK         0.0600 
    183 H183        1.9108  -13.7818  -48.5164 H         1 UNK         0.0600 
    184 H184       -0.2753  -12.9234  -45.8869 H         1 UNK         0.3000 
    185 H185       -2.0764  -11.8544  -46.5983 H         1 UNK         0.0600 
    186 H186       -1.4773   -9.4483  -46.8740 H         1 UNK         0.0600 
    187 H187       -1.6006   -9.5994  -48.6228 H         1 UNK         0.0600 
    188 H188       -3.0301   -9.8086  -47.6130 H         1 UNK         0.0600 
    189 H189       -2.3799  -11.7267  -49.5279 H         1 UNK         0.3000 
    190 H190       -1.4569  -23.3312  -44.2998 H         1 UNK         0.3000 
    191 H191       -3.6268  -24.8370  -45.3421 H         1 UNK         0.0600 
    192 H192       -3.0182  -26.4267  -43.5150 H         1 UNK         0.0600 
    193 H193       -3.0475  -24.7683  -42.9356 H         1 UNK         0.0600 
    194 H194       -1.5068  -25.5633  -43.2532 H         1 UNK         0.0600 
    195 H195       -0.0894  -25.1584  -45.7264 H         1 UNK         0.3000 
    196 H196       -0.2797  -27.7384  -47.1300 H         1 UNK         0.0600 
    197 H197        2.1799  -27.5146  -47.2712 H         1 UNK         0.0600 
    198 H198        1.6447  -27.2623  -45.6169 H         1 UNK         0.0600 
    199 H199        2.1060  -25.8846  -46.6162 H         1 UNK         0.0600 
    200 H200       -0.1391  -24.3030  -47.8767 H         1 UNK         0.3000 
    201 H201        0.5983  -24.6140  -50.6795 H         1 UNK         0.0600 
    202 H202        1.2641  -22.6387  -49.2118 H         1 UNK         0.0600 
    203 H203       -0.4217  -22.1176  -49.2449 H         1 UNK         0.0600 
    204 H204        0.5040  -22.2075  -50.7330 H         1 UNK         0.0600 
    205 H205       -1.2657  -26.2627  -50.6922 H         1 UNK         0.3000 
    206 H206       -3.1565  -27.0156  -51.5677 H         1 UNK         0.0600 
    207 H207       -2.4382  -25.7015  -53.5605 H         1 UNK         0.0600 
    208 H208       -4.1878  -25.7907  -53.4598 H         1 UNK         0.0600 
    209 H209       -3.3587  -24.3119  -52.9925 H         1 UNK         0.0600 
    210 H210       -3.2733  -25.5927  -48.9956 H         1 UNK         0.3000 
    211 H211       -4.6484  -24.9975  -47.3811 H         1 UNK         0.0600 
    212 H212       -6.8950  -26.2715  -49.0244 H         1 UNK         0.0600 
    213 H213       -6.9254  -25.9337  -47.2994 H         1 UNK         0.0600 
    214 H214       -5.8099  -27.1324  -47.9325 H         1 UNK         0.0600 
    215 H215       -3.9207  -22.9813  -48.9341 H         1 UNK         0.3000 
    216 H216       -4.2145  -20.8686  -49.4902 H         1 UNK         0.0600 
    217 H217       -5.7727  -19.4966  -48.1351 H         1 UNK         0.0600 
    218 H218       -4.9401  -20.6629  -47.1194 H         1 UNK         0.0600 
    219 H219       -6.6159  -20.9355  -47.5854 H         1 UNK         0.0600 
    220 H220       -4.7655  -22.0775  -51.5780 H         1 UNK         0.3000 
    221 H221       -7.4655  -21.8298  -52.6254 H         1 UNK         0.0600 
    222 H222       -4.8362  -22.6550  -53.9694 H         1 UNK         0.0600 
    223 H223       -5.9946  -23.7405  -53.2086 H         1 UNK         0.0600 
    224 H224       -6.4549  -22.8586  -54.6455 H         1 UNK         0.0600 
    225 H225       -5.5761  -21.0489  -55.2058 H         1 UNK         0.3000 
    226 H226       -6.5097  -18.3094  -55.4263 H         1 UNK         0.0600 
    227 H227       -6.2620  -19.8077  -57.4159 H         1 UNK         0.0600 
    228 H228       -5.2344  -18.3933  -57.5767 H         1 UNK         0.0600 
    229 H229       -4.5280  -19.9391  -57.1212 H         1 UNK         0.0600 
    230 H230       -5.1929  -16.4272  -55.4572 H         1 UNK         0.3000 
    231 H231       -3.2928  -16.1870  -53.4188 H         1 UNK         0.0600 
    232 H232       -3.9296  -14.3161  -55.7646 H         1 UNK         0.0600 
    233 H233       -4.7368  -14.3359  -54.1953 H         1 UNK         0.0600 
    234 H234       -3.0551  -13.8498  -54.3129 H         1 UNK         0.0600 
    235 H235       -2.7257  -17.0865  -56.7315 H         1 UNK         0.3000 
    236 H236        0.1139  -16.4758  -56.8174 H         1 UNK         0.0600 
    237 H237       -1.6270  -18.3414  -58.5212 H         1 UNK         0.0600 
    238 H238       -1.2474  -16.6582  -58.8879 H         1 UNK         0.0600 
    239 H239        0.0267  -17.8666  -58.8906 H         1 UNK         0.0600 
    240 H240       -1.8208  -19.0161  -55.4244 H         1 UNK         0.3000 
    241 H241       -1.4804  -20.8885  -54.3938 H         1 UNK         0.0600 
    242 H242        0.2276  -22.5416  -57.4072 H         1 UNK         0.3800 
    243 H243       -0.6113  -21.0127  -57.3582 H         1 UNK         0.3800 
    244 H244        1.3304  -19.8848  -53.7716 H         1 UNK         0.0800 
    245 H245        0.4565  -21.0937  -52.8713 H         1 UNK         0.0800 
    246 H246       -2.4223  -20.1988  -52.3309 H         1 UNK         0.0800 
    247 H247       -1.3019  -20.6764  -51.0818 H         1 UNK         0.0800 
@<TRIPOS>BOND
     1    1    2 1    
     2    1  127 1    
     3    1  128 1    
     4    1  129 1    
     5    2    3 2    
     6    2    4 am   BACKBONE|DICT|INTERRES
     7    4    5 1    
     8    4  130 1    
     9    5    6 1    
    10    5   65 1    
    11    5  131 1    
    12    6    7 1    
    13    6  132 1    
    14    6  133 1    
    15    7    8 1    
    16    8    9 1    
    17    8  134 1    
    18    8  135 1    
    19    9   10 ar   
    20    9   14 ar   
    21   10   11 ar   
    22   10  136 1    
    23   11   12 ar   
    24   11  126 1    
    25   12   13 ar   
    26   12  137 1    
    27   13   14 ar   
    28   13   15 1    
    29   14  138 1    
    30   15   16 1    
    31   15  139 1    
    32   15  140 1    
    33   16   17 1    
    34   17   18 1    
    35   17  141 1    
    36   17  142 1    
    37   18   19 1    
    38   18   67 1    
    39   18  143 1    
    40   19   20 am   BACKBONE|DICT|INTERRES
    41   19  144 1    
    42   20   21 2    
    43   20   22 1    
    44   22   23 1    
    45   22   24 1    
    46   22  145 1    
    47   23  146 1    
    48   23  147 1    
    49   23  148 1    
    50   24   25 am   BACKBONE|DICT|INTERRES
    51   24  149 1    
    52   25   26 2    
    53   25   27 1    
    54   27   28 1    
    55   27   29 1    
    56   27  150 1    
    57   28  151 1    
    58   28  152 1    
    59   28  153 1    
    60   29   30 am   BACKBONE|DICT|INTERRES
    61   29  154 1    
    62   30   31 2    
    63   30   32 1    
    64   32   33 1    
    65   32   34 1    
    66   32  155 1    
    67   33  156 1    
    68   33  157 1    
    69   33  158 1    
    70   34   35 am   BACKBONE|DICT|INTERRES
    71   34  159 1    
    72   35   36 2    
    73   35   37 1    
    74   37   38 1    
    75   37   39 1    
    76   37  160 1    
    77   38  161 1    
    78   38  162 1    
    79   38  163 1    
    80   39   40 am   BACKBONE|DICT|INTERRES
    81   39  164 1    
    82   40   41 2    
    83   40   42 1    
    84   42   43 1    
    85   42   44 1    
    86   42  165 1    
    87   43  166 1    
    88   43  167 1    
    89   43  168 1    
    90   44   45 am   BACKBONE|DICT|INTERRES
    91   44  169 1    
    92   45   46 2    
    93   45   47 1    
    94   47   48 1    
    95   47   49 1    
    96   47  170 1    
    97   48  171 1    
    98   48  172 1    
    99   48  173 1    
   100   49   50 am   BACKBONE|DICT|INTERRES
   101   49  174 1    
   102   50   51 2    
   103   50   52 1    
   104   52   53 1    
   105   52   54 1    
   106   52  175 1    
   107   53  176 1    
   108   53  177 1    
   109   53  178 1    
   110   54   55 am   BACKBONE|DICT|INTERRES
   111   54  179 1    
   112   55   56 2    
   113   55   57 1    
   114   57   58 1    
   115   57   59 1    
   116   57  180 1    
   117   58  181 1    
   118   58  182 1    
   119   58  183 1    
   120   59   60 am   BACKBONE|DICT|INTERRES
   121   59  184 1    
   122   60   61 2    
   123   60   62 1    
   124   62   63 1    
   125   62   64 1    
   126   62  185 1    
   127   63  186 1    
   128   63  187 1    
   129   63  188 1    
   130   64   65 am   BACKBONE|DICT|INTERRES
   131   64  189 1    
   132   65   66 2    
   133   67   68 2    
   134   67   69 am   BACKBONE|DICT|INTERRES
   135   69   70 1    
   136   69  190 1    
   137   70   71 1    
   138   70   72 1    
   139   70  191 1    
   140   71  192 1    
   141   71  193 1    
   142   71  194 1    
   143   72   73 2    
   144   72   74 am   BACKBONE|DICT|INTERRES
   145   74   75 1    
   146   74  195 1    
   147   75   76 1    
   148   75   77 1    
   149   75  196 1    
   150   76  197 1    
   151   76  198 1    
   152   76  199 1    
   153   77   78 2    
   154   77   79 am   BACKBONE|DICT|INTERRES
   155   79   80 1    
   156   79  200 1    
   157   80   81 1    
   158   80   82 1    
   159   80  201 1    
   160   81  202 1    
   161   81  203 1    
   162   81  204 1    
   163   82   83 2    
   164   82   84 am   BACKBONE|DICT|INTERRES
   165   84   85 1    
   166   84  205 1    
   167   85   86 1    
   168   85   87 1    
   169   85  206 1    
   170   86  207 1    
   171   86  208 1    
   172   86  209 1    
   173   87   88 2    
   174   87   89 am   BACKBONE|DICT|INTERRES
   175   89   90 1    
   176   89  210 1    
   177   90   91 1    
   178   90   92 1    
   179   90  211 1    
   180   91  212 1    
   181   91  213 1    
   182   91  214 1    
   183   92   93 2    
   184   92   94 am   BACKBONE|DICT|INTERRES
   185   94   95 1    
   186   94  215 1    
   187   95   96 1    
   188   95   97 1    
   189   95  216 1    
   190   96  217 1    
   191   96  218 1    
   192   96  219 1    
   193   97   98 2    
   194   97   99 am   BACKBONE|DICT|INTERRES
   195   99  100 1    
   196   99  220 1    
   197  100  101 1    
   198  100  102 1    
   199  100  221 1    
   200  101  222 1    
   201  101  223 1    
   202  101  224 1    
   203  102  103 2    
   204  102  104 am   BACKBONE|DICT|INTERRES
   205  104  105 1    
   206  104  225 1    
   207  105  106 1    
   208  105  107 1    
   209  105  226 1    
   210  106  227 1    
   211  106  228 1    
   212  106  229 1    
   213  107  108 2    
   214  107  109 am   BACKBONE|DICT|INTERRES
   215  109  110 1    
   216  109  230 1    
   217  110  111 1    
   218  110  112 1    
   219  110  231 1    
   220  111  232 1    
   221  111  233 1    
   222  111  234 1    
   223  112  113 2    
   224  112  114 am   BACKBONE|DICT|INTERRES
   225  114  115 1    
   226  114  235 1    
   227  115  116 1    
   228  115  117 1    
   229  115  236 1    
   230  116  237 1    
   231  116  238 1    
   232  116  239 1    
   233  117  118 2    
   234  117  119 am   BACKBONE|DICT|INTERRES
   235  119  120 1    
   236  119  240 1    
   237  120  121 1    
   238  120  124 1    
   239  120  241 1    
   240  121  122 am   BACKBONE|DICT|INTERRES
   241  121  123 2    
   242  122  242 1    
   243  122  243 1    
   244  124  125 1    
   245  124  244 1    
   246  124  245 1    
   247  125  126 1    
   248  126  246 1    
   249  126  247 1    
@<TRIPOS>SUBSTRUCTURE
     1 UNK         1 GROUP             0       ****    0 ROOT    
