@<TRIPOS>MOLECULE
3R540
247   249    1
SMALL
USER_CHARGES


@<TRIPOS>ATOM
      1 CA          0.6032  -11.6064  -51.4644 C.3       0 UNK        -0.1800 
      2 C           0.3547  -12.2112  -50.0902 C.2       0 UNK         0.5000 
      3 O          -0.7145  -12.7727  -49.8566 O.2       0 UNK        -0.5000 
      4 N           1.3408  -12.0977  -49.1879 N.am      1 UNK        -0.5000 
      5 CA          1.3339  -12.6238  -47.8126 C.3       1 UNK         0.1400 
      6 C6          1.3424  -14.1765  -47.7394 C.3       23 UNK        -0.0398 
      7 S7          2.8737  -14.9040  -48.4186 S.3       23 UNK        -0.2404 
      8 C8          2.3911  -15.3903  -50.1055 C.3       23 UNK        -0.0205 
      9 C9          1.4457  -16.5817  -50.1294 C.ar      23 UNK        -0.0193 
     10 C10         0.0690  -16.3862  -50.2779 C.ar      23 UNK        -0.1150 
     11 C11        -0.8001  -17.4778  -50.3419 C.ar      23 UNK        -0.0193 
     12 C12        -0.2791  -18.7707  -50.2733 C.ar      23 UNK        -0.1150 
     13 C13         1.0922  -18.9838  -50.1137 C.ar      23 UNK        -0.0193 
     14 C14         1.9509  -17.8830  -50.0411 C.ar      23 UNK        -0.1150 
     15 C15         1.6435  -20.4008  -50.0352 C.3       23 UNK        -0.0205 
     16 S16         1.7192  -21.0109  -48.3198 S.3       23 UNK        -0.2404 
     17 C17        -0.0538  -21.1805  -47.9275 C.3       23 UNK        -0.0398 
     18 CA         -0.3414  -22.2539  -46.8488 C.3       11 UNK         0.1400 
     19 N           0.1690  -21.8515  -45.5368 N.am      11 UNK        -0.5000 
     20 C           0.4185  -22.6675  -44.5055 C.2       10 UNK         0.5000 
     21 O           0.3354  -23.8953  -44.5715 O.2       10 UNK        -0.5000 
     22 CA          0.7748  -22.0009  -43.1641 C.3       10 UNK         0.1400 
     23 CB          2.2793  -21.7020  -43.0864 C.3       10 UNK        -0.1800 
     24 N           0.0097  -20.7745  -42.9222 N.am      10 UNK        -0.5000 
     25 C          -1.3161  -20.7341  -42.7169 C.2       9 UNK         0.5000 
     26 O          -2.0267  -21.7376  -42.6473 O.2       9 UNK        -0.5000 
     27 CA         -1.9639  -19.3431  -42.5743 C.3       9 UNK         0.1400 
     28 CB         -1.8286  -18.8250  -41.1346 C.3       9 UNK        -0.1800 
     29 N          -1.4108  -18.3575  -43.5033 N.am      9 UNK        -0.5000 
     30 C          -1.5629  -18.3962  -44.8353 C.2       8 UNK         0.5000 
     31 O          -2.2450  -19.2368  -45.4177 O.2       8 UNK        -0.5000 
     32 CA         -0.7882  -17.3453  -45.6558 C.3       8 UNK         0.1400 
     33 CB         -1.5696  -16.0255  -45.7377 C.3       8 UNK        -0.1800 
     34 N           0.5532  -17.0965  -45.1212 N.am      8 UNK        -0.5000 
     35 C           1.5188  -18.0257  -45.0643 C.2       7 UNK         0.5000 
     36 O           1.3900  -19.1706  -45.4928 O.2       7 UNK        -0.5000 
     37 CA          2.8152  -17.6374  -44.3367 C.3       7 UNK         0.1400 
     38 CB          3.7531  -16.8399  -45.2548 C.3       7 UNK        -0.1800 
     39 N           2.5349  -16.8796  -43.1169 N.am      7 UNK        -0.5000 
     40 C           2.0369  -17.4289  -41.9984 C.2       6 UNK         0.5000 
     41 O           1.8061  -18.6314  -41.8792 O.2       6 UNK        -0.5000 
     42 CA          1.7048  -16.4831  -40.8276 C.3       6 UNK         0.1400 
     43 CB          2.9301  -16.2993  -39.9204 C.3       6 UNK        -0.1800 
     44 N           1.2280  -15.1714  -41.2636 N.am      6 UNK        -0.5000 
     45 C           0.1018  -14.9579  -41.9581 C.2       5 UNK         0.5000 
     46 O          -0.6999  -15.8464  -42.2428 O.2       5 UNK        -0.5000 
     47 CA         -0.1427  -13.5239  -42.4660 C.3       5 UNK         0.1400 
     48 CB         -1.0526  -12.7540  -41.4984 C.3       5 UNK        -0.1800 
     49 N           1.0822  -12.7498  -42.6899 N.am      5 UNK        -0.5000 
     50 C           2.0704  -13.0840  -43.5302 C.2       4 UNK         0.5000 
     51 O           2.0926  -14.1414  -44.1613 O.2       4 UNK        -0.5000 
     52 CA          3.2114  -12.0600  -43.6869 C.3       4 UNK         0.1400 
     53 CB          4.2863  -12.5215  -44.6882 C.3       4 UNK        -0.1800 
     54 N           2.6910  -10.7597  -44.1101 N.am      4 UNK        -0.5000 
     55 C           2.1660   -9.8300  -43.3000 C.2       3 UNK         0.5000 
     56 O           2.0913   -9.9538  -42.0770 O.2       3 UNK        -0.5000 
     57 CA          1.5788   -8.5844  -43.9845 C.3       3 UNK         0.1400 
     58 CB          2.6920   -7.6085  -44.3962 C.3       3 UNK        -0.1800 
     59 N           0.7893   -8.9523  -45.1609 N.am      3 UNK        -0.5000 
     60 C          -0.4510   -9.4600  -45.1080 C.2       2 UNK         0.5000 
     61 O          -1.0950   -9.5969  -44.0675 O.2       2 UNK        -0.5000 
     62 CA         -1.0553   -9.9168  -46.4471 C.3       2 UNK         0.1400 
     63 CB         -1.5198   -8.7144  -47.2837 C.3       2 UNK        -0.1800 
     64 N          -0.1018  -10.7128  -47.2212 N.am      2 UNK        -0.5000 
     65 C           0.2352  -11.9788  -46.9320 C.2       1 UNK         0.5000 
     66 O          -0.2717  -12.6130  -46.0071 O.2       1 UNK        -0.5000 
     67 C          -1.8472  -22.6017  -46.7707 C.2       11 UNK         0.5000 
     68 O          -2.6742  -21.9197  -47.3772 O.2       11 UNK        -0.5000 
     69 N          -2.1805  -23.6695  -46.0334 N.am      12 UNK        -0.5000 
     70 CA         -3.5184  -24.2561  -45.9655 C.3       12 UNK         0.1400 
     71 CB         -3.5386  -25.3396  -44.8775 C.3       12 UNK        -0.1800 
     72 C          -3.9210  -24.8465  -47.3287 C.2       12 UNK         0.5000 
     73 O          -3.1125  -25.5447  -47.9446 O.2       12 UNK        -0.5000 
     74 N          -5.1533  -24.5602  -47.7724 N.am      13 UNK        -0.5000 
     75 CA         -5.6576  -24.8138  -49.1297 C.3       13 UNK         0.1400 
     76 CB         -7.0966  -24.2900  -49.2423 C.3       13 UNK        -0.1800 
     77 C          -5.5701  -26.2714  -49.6209 C.2       13 UNK         0.5000 
     78 O          -5.4878  -26.4932  -50.8293 O.2       13 UNK        -0.5000 
     79 N          -5.5309  -27.2295  -48.6850 N.am      14 UNK        -0.5000 
     80 CA         -5.3023  -28.6554  -48.9306 C.3       14 UNK         0.1400 
     81 CB         -5.4353  -29.4125  -47.6004 C.3       14 UNK        -0.1800 
     82 C          -3.9466  -28.9748  -49.5989 C.2       14 UNK         0.5000 
     83 O          -3.8280  -30.0199  -50.2396 O.2       14 UNK        -0.5000 
     84 N          -2.9593  -28.0754  -49.4644 N.am      15 UNK        -0.5000 
     85 CA         -1.6618  -28.1599  -50.1393 C.3       15 UNK         0.1400 
     86 CB         -0.6739  -27.2095  -49.4447 C.3       15 UNK        -0.1800 
     87 C          -1.7336  -27.8540  -51.6512 C.2       15 UNK         0.5000 
     88 O          -0.8114  -28.2298  -52.3768 O.2       15 UNK        -0.5000 
     89 N          -2.8178  -27.1958  -52.0937 N.am      16 UNK        -0.5000 
     90 CA         -3.1056  -26.7603  -53.4641 C.3       16 UNK         0.1400 
     91 CB         -3.2986  -27.9818  -54.3895 C.3       16 UNK        -0.1800 
     92 C          -2.0829  -25.7372  -54.0102 C.2       16 UNK         0.5000 
     93 O          -1.3434  -25.1245  -53.2359 O.2       16 UNK        -0.5000 
     94 N          -2.0920  -25.5294  -55.3356 N.am      17 UNK        -0.5000 
     95 CA         -1.2703  -24.5668  -56.0781 C.3       17 UNK         0.1400 
     96 CB          0.2082  -25.0179  -56.0954 C.3       17 UNK        -0.1800 
     97 C          -1.4922  -23.1299  -55.5596 C.2       17 UNK         0.5000 
     98 O          -2.6212  -22.6418  -55.6251 O.2       17 UNK        -0.5000 
     99 N          -0.4433  -22.4939  -55.0199 N.am      18 UNK        -0.5000 
    100 CA        -0.4942  -21.1644  -54.4073 C.3       18 UNK         0.1400 
    101 CB         0.9315  -20.7158  -54.0510 C.3       18 UNK        -0.1800 
    102 C         -1.3985  -21.0918  -53.1626 C.2       18 UNK         0.5000 
    103 O         -1.9858  -20.0420  -52.9069 O.2       18 UNK        -0.5000 
    104 N         -1.5238  -22.2034  -52.4223 N.am      19 UNK        -0.5000 
    105 CA        -2.3470  -22.2903  -51.2162 C.3       19 UNK         0.1400 
    106 CB        -2.0253  -23.5853  -50.4653 C.3       19 UNK        -0.1800 
    107 C         -3.8526  -22.1821  -51.4995 C.2       19 UNK         0.5000 
    108 O         -4.5935  -21.6864  -50.6519 O.2       19 UNK        -0.5000 
    109 N         -4.2845  -22.5920  -52.6994 N.am      20 UNK        -0.5000 
    110 CA        -5.6759  -22.4987  -53.1464 C.3       20 UNK         0.1400 
    111 CB        -5.8404  -23.3013  -54.4456 C.3       20 UNK        -0.1800 
    112 C         -6.1709  -21.0472  -53.3284 C.2       20 UNK         0.5000 
    113 O         -7.3817  -20.8284  -53.3775 O.2       20 UNK        -0.5000 
    114 N         -5.2412  -20.0841  -53.4145 N.am      21 UNK        -0.5000 
    115 CA        -5.5331  -18.6583  -53.5412 C.3       21 UNK         0.1400 
    116 CB        -4.3399  -17.9590  -54.2118 C.3       21 UNK        -0.1800 
    117 C         -5.8843  -17.9741  -52.2042 C.2       21 UNK         0.5000 
    118 O         -6.3960  -16.8537  -52.2447 O.2       21 UNK        -0.5000 
    119 N         -5.6161  -18.6153  -51.0554 N.am      22 UNK        -0.5000 
    120 CA        -5.8991  -18.0380  -49.7277 C.3       22 UNK         0.1400 
    121 C         -6.2655  -19.0484  -48.6039 C.2       22 UNK         0.5000 
    122 N         -6.0984  -20.3533  -48.7675 N.am      22 UNK        -0.7600 
    123 O         -6.7587  -18.6367  -47.5570 O.2       22 UNK        -0.5000 
    124 C124       -4.8384  -16.9932  -49.2823 C.3       23 UNK        -0.0398 
    125 S125       -3.1766  -17.6785  -48.9525 S.3       23 UNK        -0.2404 
    126 C126       -2.2986  -17.2660  -50.4913 C.3       23 UNK        -0.0205 
    127 H127       -0.1445  -10.8429  -51.6790 H         1 UNK         0.0600 
    128 H128        1.5893  -11.1466  -51.5339 H         1 UNK         0.0600 
    129 H129        0.5336  -12.3785  -52.2307 H         1 UNK         0.0600 
    130 H130        2.1935  -11.6279  -49.4594 H         1 UNK         0.3000 
    131 H131        2.2687  -12.2802  -47.3696 H         1 UNK         0.0600 
    132 H132        1.2913  -14.5106  -46.7024 H         1 UNK         0.0800 
    133 H133        0.4645  -14.5968  -48.2271 H         1 UNK         0.0800 
    134 H134        1.9501  -14.5410  -50.6260 H         1 UNK         0.0800 
    135 H135        3.2949  -15.6409  -50.6627 H         1 UNK         0.0800 
    136 H136       -0.3268  -15.3831  -50.3478 H         1 UNK         0.1150 
    137 H137       -0.9527  -19.6094  -50.3339 H         1 UNK         0.1150 
    138 H138        3.0142  -18.0382  -49.9227 H         1 UNK         0.1150 
    139 H139        1.0403  -21.0778  -50.6424 H         1 UNK         0.0800 
    140 H140        2.6474  -20.4281  -50.4613 H         1 UNK         0.0800 
    141 H141       -0.5644  -21.4440  -48.8524 H         1 UNK         0.0800 
    142 H142       -0.4462  -20.2083  -47.6225 H         1 UNK         0.0800 
    143 H143        0.1722  -23.1690  -47.1517 H         1 UNK         0.0600 
    144 H144        0.3252  -20.8559  -45.4113 H         1 UNK         0.3000 
    145 H145        0.5311  -22.7087  -42.3691 H         1 UNK         0.0600 
    146 H146        2.5524  -21.3039  -42.1092 H         1 UNK         0.0600 
    147 H147        2.8655  -22.6083  -43.2431 H         1 UNK         0.0600 
    148 H148        2.5868  -20.9785  -43.8414 H         1 UNK         0.0600 
    149 H149        0.5369  -19.9087  -42.8998 H         1 UNK         0.3000 
    150 H150       -3.0279  -19.4491  -42.7956 H         1 UNK         0.0600 
    151 H151       -2.2692  -19.5260  -40.4247 H         1 UNK         0.0600 
    152 H152       -2.3395  -17.8702  -41.0091 H         1 UNK         0.0600 
    153 H153       -0.7849  -18.6856  -40.8532 H         1 UNK         0.0600 
    154 H154       -0.9019  -17.5797  -43.0936 H         1 UNK         0.3000 
    155 H155       -0.6756  -17.7339  -46.6708 H         1 UNK         0.0600 
    156 H156       -1.0748  -15.3123  -46.3954 H         1 UNK         0.0600 
    157 H157       -1.6824  -15.5581  -44.7597 H         1 UNK         0.0600 
    158 H158       -2.5701  -16.1917  -46.1391 H         1 UNK         0.0600 
    159 H159        0.7345  -16.1836  -44.7269 H         1 UNK         0.3000 
    160 H160        3.3312  -18.5586  -44.0578 H         1 UNK         0.0600 
    161 H161        3.2980  -15.9100  -45.5928 H         1 UNK         0.0600 
    162 H162        4.0071  -17.4172  -46.1447 H         1 UNK         0.0600 
    163 H163        4.6857  -16.5917  -44.7485 H         1 UNK         0.0600 
    164 H164        2.6170  -15.8716  -43.1843 H         1 UNK         0.3000 
    165 H165        0.9114  -16.9490  -40.2398 H         1 UNK         0.0600 
    166 H166        3.7517  -15.8117  -40.4467 H         1 UNK         0.0600 
    167 H167        2.6865  -15.6973  -39.0449 H         1 UNK         0.0600 
    168 H168        3.2961  -17.2617  -39.5599 H         1 UNK         0.0600 
    169 H169        1.8278  -14.3820  -41.0756 H         1 UNK         0.3000 
    170 H170       -0.6564  -13.6048  -43.4259 H         1 UNK         0.0600 
    171 H171       -1.9872  -13.2907  -41.3296 H         1 UNK         0.0600 
    172 H172       -0.5760  -12.6079  -40.5283 H         1 UNK         0.0600 
    173 H173       -1.3101  -11.7727  -41.8984 H         1 UNK         0.0600 
    174 H174        1.1484  -11.8542  -42.2205 H         1 UNK         0.3000 
    175 H175        3.6913  -11.9559  -42.7116 H         1 UNK         0.0600 
    176 H176        5.0921  -11.7915  -44.7667 H         1 UNK         0.0600 
    177 H177        4.7343  -13.4644  -44.3717 H         1 UNK         0.0600 
    178 H178        3.8750  -12.6765  -45.6854 H         1 UNK         0.0600 
    179 H179        2.6819  -10.5844  -45.1026 H         1 UNK         0.3000 
    180 H180        0.9312   -8.0765  -43.2664 H         1 UNK         0.0600 
    181 H181        3.3702   -8.0491  -45.1279 H         1 UNK         0.0600 
    182 H182        3.2886   -7.3121  -43.5324 H         1 UNK         0.0600 
    183 H183        2.2762   -6.6989  -44.8299 H         1 UNK         0.0600 
    184 H184        1.2362   -8.8573  -46.0605 H         1 UNK         0.3000 
    185 H185       -1.9296  -10.5343  -46.2291 H         1 UNK         0.0600 
    186 H186       -2.0088   -9.0407  -48.2019 H         1 UNK         0.0600 
    187 H187       -2.2398   -8.1101  -46.7303 H         1 UNK         0.0600 
    188 H188       -0.6888   -8.0643  -47.5596 H         1 UNK         0.0600 
    189 H189        0.3355  -10.2662  -48.0138 H         1 UNK         0.3000 
    190 H190       -1.4381  -24.1578  -45.5450 H         1 UNK         0.3000 
    191 H191       -4.2221  -23.4680  -45.6897 H         1 UNK         0.0600 
    192 H192       -3.2737  -24.9248  -43.9045 H         1 UNK         0.0600 
    193 H193       -4.5314  -25.7815  -44.7839 H         1 UNK         0.0600 
    194 H194       -2.8387  -26.1464  -45.0999 H         1 UNK         0.0600 
    195 H195       -5.7553  -24.0056  -47.1816 H         1 UNK         0.3000 
    196 H196       -5.0361  -24.2294  -49.8076 H         1 UNK         0.0600 
    197 H197       -7.4935  -24.4464  -50.2465 H         1 UNK         0.0600 
    198 H198       -7.1432  -23.2193  -49.0435 H         1 UNK         0.0600 
    199 H199       -7.7636  -24.7942  -48.5422 H         1 UNK         0.0600 
    200 H200       -5.5858  -26.9433  -47.7188 H         1 UNK         0.3000 
    201 H201       -6.0867  -29.0041  -49.6054 H         1 UNK         0.0600 
    202 H202       -6.4219  -29.2678  -47.1599 H         1 UNK         0.0600 
    203 H203       -4.6904  -29.0826  -46.8750 H         1 UNK         0.0600 
    204 H204       -5.3001  -30.4853  -47.7453 H         1 UNK         0.0600 
    205 H205       -3.1225  -27.2386  -48.9099 H         1 UNK         0.3000 
    206 H206       -1.2843  -29.1786  -50.0288 H         1 UNK         0.0600 
    207 H207       -0.9852  -26.1692  -49.5383 H         1 UNK         0.0600 
    208 H208       -0.5851  -27.4376  -48.3824 H         1 UNK         0.0600 
    209 H209        0.3220  -27.2931  -49.8812 H         1 UNK         0.0600 
    210 H210       -3.5289  -26.9494  -51.4153 H         1 UNK         0.3000 
    211 H211       -4.0588  -26.2332  -53.4076 H         1 UNK         0.0600 
    212 H212       -2.3534  -28.4822  -54.6031 H         1 UNK         0.0600 
    213 H213       -3.7437  -27.6959  -55.3427 H         1 UNK         0.0600 
    214 H214       -3.9672  -28.7141  -53.9364 H         1 UNK         0.0600 
    215 H215       -2.7566  -26.0471  -55.8926 H         1 UNK         0.3000 
    216 H216       -1.6302  -24.5766  -57.1079 H         1 UNK         0.0600 
    217 H217        0.3026  -26.0133  -56.5296 H         1 UNK         0.0600 
    218 H218        0.6433  -25.0560  -55.0961 H         1 UNK         0.0600 
    219 H219        0.8183  -24.3474  -56.7019 H         1 UNK         0.0600 
    220 H220        0.4425  -22.9767  -54.9820 H         1 UNK         0.3000 
    221 H221       -0.8986  -20.4696  -55.1463 H         1 UNK         0.0600 
    222 H222        1.4022  -21.3966  -53.3407 H         1 UNK         0.0600 
    223 H223        1.5630  -20.6648  -54.9380 H         1 UNK         0.0600 
    224 H224        0.9272  -19.7229  -53.5983 H         1 UNK         0.0600 
    225 H225       -1.0751  -23.0601  -52.7281 H         1 UNK         0.3000 
    226 H226       -2.0900  -21.4547  -50.5676 H         1 UNK         0.0600 
    227 H227       -0.9535  -23.7058  -50.3082 H         1 UNK         0.0600 
    228 H228       -2.4973  -23.5701  -49.4872 H         1 UNK         0.0600 
    229 H229       -2.3977  -24.4670  -50.9854 H         1 UNK         0.0600 
    230 H230       -3.6085  -22.9225  -53.3746 H         1 UNK         0.3000 
    231 H231       -6.3033  -22.9611  -52.3812 H         1 UNK         0.0600 
    232 H232       -6.8836  -23.3177  -54.7636 H         1 UNK         0.0600 
    233 H233       -5.5254  -24.3366  -54.3154 H         1 UNK         0.0600 
    234 H234       -5.2582  -22.8710  -55.2606 H         1 UNK         0.0600 
    235 H235       -4.2639  -20.3386  -53.3511 H         1 UNK         0.3000 
    236 H236       -6.3962  -18.5396  -54.1997 H         1 UNK         0.0600 
    237 H237       -4.5674  -16.9124  -54.4176 H         1 UNK         0.0600 
    238 H238       -3.4515  -17.9791  -53.5817 H         1 UNK         0.0600 
    239 H239       -4.0880  -18.4289  -55.1627 H         1 UNK         0.0600 
    240 H240       -5.2050  -19.5385  -51.0744 H         1 UNK         0.3000 
    241 H241       -6.8325  -17.4818  -49.8375 H         1 UNK         0.0600 
    242 H242       -5.6041  -20.7572  -49.5605 H         1 UNK         0.3800 
    243 H243       -6.3615  -20.9569  -48.0075 H         1 UNK         0.3800 
    244 H244       -4.7625  -16.2008  -50.0273 H         1 UNK         0.0800 
    245 H245       -5.1728  -16.4923  -48.3724 H         1 UNK         0.0800 
    246 H246       -2.6773  -17.8922  -51.2994 H         1 UNK         0.0800 
    247 H247       -2.5081  -16.2321  -50.7696 H         1 UNK         0.0800 
@<TRIPOS>BOND
     1    1    2 1    
     2    1  127 1    
     3    1  128 1    
     4    1  129 1    
     5    2    3 2    
     6    2    4 am   BACKBONE|DICT|INTERRES
     7    4    5 1    
     8    4  130 1    
     9    5    6 1    
    10    5   65 1    
    11    5  131 1    
    12    6    7 1    
    13    6  132 1    
    14    6  133 1    
    15    7    8 1    
    16    8    9 1    
    17    8  134 1    
    18    8  135 1    
    19    9   10 ar   
    20    9   14 ar   
    21   10   11 ar   
    22   10  136 1    
    23   11   12 ar   
    24   11  126 1    
    25   12   13 ar   
    26   12  137 1    
    27   13   14 ar   
    28   13   15 1    
    29   14  138 1    
    30   15   16 1    
    31   15  139 1    
    32   15  140 1    
    33   16   17 1    
    34   17   18 1    
    35   17  141 1    
    36   17  142 1    
    37   18   19 1    
    38   18   67 1    
    39   18  143 1    
    40   19   20 am   BACKBONE|DICT|INTERRES
    41   19  144 1    
    42   20   21 2    
    43   20   22 1    
    44   22   23 1    
    45   22   24 1    
    46   22  145 1    
    47   23  146 1    
    48   23  147 1    
    49   23  148 1    
    50   24   25 am   BACKBONE|DICT|INTERRES
    51   24  149 1    
    52   25   26 2    
    53   25   27 1    
    54   27   28 1    
    55   27   29 1    
    56   27  150 1    
    57   28  151 1    
    58   28  152 1    
    59   28  153 1    
    60   29   30 am   BACKBONE|DICT|INTERRES
    61   29  154 1    
    62   30   31 2    
    63   30   32 1    
    64   32   33 1    
    65   32   34 1    
    66   32  155 1    
    67   33  156 1    
    68   33  157 1    
    69   33  158 1    
    70   34   35 am   BACKBONE|DICT|INTERRES
    71   34  159 1    
    72   35   36 2    
    73   35   37 1    
    74   37   38 1    
    75   37   39 1    
    76   37  160 1    
    77   38  161 1    
    78   38  162 1    
    79   38  163 1    
    80   39   40 am   BACKBONE|DICT|INTERRES
    81   39  164 1    
    82   40   41 2    
    83   40   42 1    
    84   42   43 1    
    85   42   44 1    
    86   42  165 1    
    87   43  166 1    
    88   43  167 1    
    89   43  168 1    
    90   44   45 am   BACKBONE|DICT|INTERRES
    91   44  169 1    
    92   45   46 2    
    93   45   47 1    
    94   47   48 1    
    95   47   49 1    
    96   47  170 1    
    97   48  171 1    
    98   48  172 1    
    99   48  173 1    
   100   49   50 am   BACKBONE|DICT|INTERRES
   101   49  174 1    
   102   50   51 2    
   103   50   52 1    
   104   52   53 1    
   105   52   54 1    
   106   52  175 1    
   107   53  176 1    
   108   53  177 1    
   109   53  178 1    
   110   54   55 am   BACKBONE|DICT|INTERRES
   111   54  179 1    
   112   55   56 2    
   113   55   57 1    
   114   57   58 1    
   115   57   59 1    
   116   57  180 1    
   117   58  181 1    
   118   58  182 1    
   119   58  183 1    
   120   59   60 am   BACKBONE|DICT|INTERRES
   121   59  184 1    
   122   60   61 2    
   123   60   62 1    
   124   62   63 1    
   125   62   64 1    
   126   62  185 1    
   127   63  186 1    
   128   63  187 1    
   129   63  188 1    
   130   64   65 am   BACKBONE|DICT|INTERRES
   131   64  189 1    
   132   65   66 2    
   133   67   68 2    
   134   67   69 am   BACKBONE|DICT|INTERRES
   135   69   70 1    
   136   69  190 1    
   137   70   71 1    
   138   70   72 1    
   139   70  191 1    
   140   71  192 1    
   141   71  193 1    
   142   71  194 1    
   143   72   73 2    
   144   72   74 am   BACKBONE|DICT|INTERRES
   145   74   75 1    
   146   74  195 1    
   147   75   76 1    
   148   75   77 1    
   149   75  196 1    
   150   76  197 1    
   151   76  198 1    
   152   76  199 1    
   153   77   78 2    
   154   77   79 am   BACKBONE|DICT|INTERRES
   155   79   80 1    
   156   79  200 1    
   157   80   81 1    
   158   80   82 1    
   159   80  201 1    
   160   81  202 1    
   161   81  203 1    
   162   81  204 1    
   163   82   83 2    
   164   82   84 am   BACKBONE|DICT|INTERRES
   165   84   85 1    
   166   84  205 1    
   167   85   86 1    
   168   85   87 1    
   169   85  206 1    
   170   86  207 1    
   171   86  208 1    
   172   86  209 1    
   173   87   88 2    
   174   87   89 am   BACKBONE|DICT|INTERRES
   175   89   90 1    
   176   89  210 1    
   177   90   91 1    
   178   90   92 1    
   179   90  211 1    
   180   91  212 1    
   181   91  213 1    
   182   91  214 1    
   183   92   93 2    
   184   92   94 am   BACKBONE|DICT|INTERRES
   185   94   95 1    
   186   94  215 1    
   187   95   96 1    
   188   95   97 1    
   189   95  216 1    
   190   96  217 1    
   191   96  218 1    
   192   96  219 1    
   193   97   98 2    
   194   97   99 am   BACKBONE|DICT|INTERRES
   195   99  100 1    
   196   99  220 1    
   197  100  101 1    
   198  100  102 1    
   199  100  221 1    
   200  101  222 1    
   201  101  223 1    
   202  101  224 1    
   203  102  103 2    
   204  102  104 am   BACKBONE|DICT|INTERRES
   205  104  105 1    
   206  104  225 1    
   207  105  106 1    
   208  105  107 1    
   209  105  226 1    
   210  106  227 1    
   211  106  228 1    
   212  106  229 1    
   213  107  108 2    
   214  107  109 am   BACKBONE|DICT|INTERRES
   215  109  110 1    
   216  109  230 1    
   217  110  111 1    
   218  110  112 1    
   219  110  231 1    
   220  111  232 1    
   221  111  233 1    
   222  111  234 1    
   223  112  113 2    
   224  112  114 am   BACKBONE|DICT|INTERRES
   225  114  115 1    
   226  114  235 1    
   227  115  116 1    
   228  115  117 1    
   229  115  236 1    
   230  116  237 1    
   231  116  238 1    
   232  116  239 1    
   233  117  118 2    
   234  117  119 am   BACKBONE|DICT|INTERRES
   235  119  120 1    
   236  119  240 1    
   237  120  121 1    
   238  120  124 1    
   239  120  241 1    
   240  121  122 am   BACKBONE|DICT|INTERRES
   241  121  123 2    
   242  122  242 1    
   243  122  243 1    
   244  124  125 1    
   245  124  244 1    
   246  124  245 1    
   247  125  126 1    
   248  126  246 1    
   249  126  247 1    
@<TRIPOS>SUBSTRUCTURE
     1 UNK         1 GROUP             0       ****    0 ROOT    
