@<TRIPOS>MOLECULE
3R540
247   249    1
SMALL
USER_CHARGES


@<TRIPOS>ATOM
      1 CA          5.6027  -16.6874  -47.5004 C.3       0 UNK        -0.1800 
      2 C           5.0628  -15.2644  -47.5374 C.2       0 UNK         0.5000 
      3 O           5.6535  -14.4020  -48.1879 O.2       0 UNK        -0.5000 
      4 N           3.9325  -15.0348  -46.8581 N.am      1 UNK        -0.5000 
      5 CA          3.2073  -13.7650  -46.7377 C.3       1 UNK         0.1400 
      6 C6          2.7774  -13.1843  -48.1209 C.3       23 UNK        -0.0398 
      7 S7          1.0673  -12.5415  -48.1606 S.3       23 UNK        -0.2404 
      8 C8          0.0558  -14.0375  -47.8995 C.3       23 UNK        -0.0205 
      9 C9          0.1399  -15.0386  -49.0435 C.ar      23 UNK        -0.0193 
     10 C10        -0.8456  -15.0593  -50.0350 C.ar      23 UNK        -0.1150 
     11 C11        -0.7834  -15.9874  -51.0791 C.ar      23 UNK        -0.0193 
     12 C12         0.3009  -16.8656  -51.1516 C.ar      23 UNK        -0.1150 
     13 C13         1.2702  -16.8827  -50.1474 C.ar      23 UNK        -0.0193 
     14 C14         1.1749  -15.9783  -49.0885 C.ar      23 UNK        -0.1150 
     15 C15         2.3999  -17.9015  -50.1979 C.3       23 UNK        -0.0205 
     16 S16         2.1549  -19.2727  -49.0217 S.3       23 UNK        -0.2404 
     17 C17         0.4266  -19.7640  -49.3585 C.3       23 UNK        -0.0398 
     18 CA          0.0090  -21.0880  -48.6689 C.3       11 UNK         0.1400 
     19 N           0.2814  -21.0773  -47.2341 N.am      11 UNK        -0.5000 
     20 C           1.0371  -21.9701  -46.5829 C.2       10 UNK         0.5000 
     21 O           1.6366  -22.8911  -47.1384 O.2       10 UNK        -0.5000 
     22 CA          1.1567  -21.8265  -45.0490 C.3       10 UNK         0.1400 
     23 CB          2.5558  -21.3106  -44.6755 C.3       10 UNK        -0.1800 
     24 N           0.1577  -20.9536  -44.4267 N.am      10 UNK        -0.5000 
     25 C          -1.1718  -21.1102  -44.4858 C.2       9 UNK         0.5000 
     26 O          -1.7275  -22.0510  -45.0511 O.2       9 UNK        -0.5000 
     27 CA         -2.0249  -19.9675  -43.9052 C.3       9 UNK         0.1400 
     28 CB         -2.2458  -20.1674  -42.3998 C.3       9 UNK        -0.1800 
     29 N          -1.4516  -18.6402  -44.1482 N.am      9 UNK        -0.5000 
     30 C          -1.1672  -18.1278  -45.3560 C.2       8 UNK         0.5000 
     31 O          -1.3670  -18.7236  -46.4147 O.2       8 UNK        -0.5000 
     32 CA         -0.5045  -16.7451  -45.3857 C.3       8 UNK         0.1400 
     33 CB         -1.5397  -15.6353  -45.1402 C.3       8 UNK        -0.1800 
     34 N           0.5573  -16.6685  -44.3841 N.am      8 UNK        -0.5000 
     35 C           1.8419  -16.9767  -44.6141 C.2       7 UNK         0.5000 
     36 O           2.3068  -17.1689  -45.7370 O.2       7 UNK        -0.5000 
     37 CA          2.7827  -17.0865  -43.3979 C.3       7 UNK         0.1400 
     38 CB          3.7767  -15.9136  -43.3615 C.3       7 UNK        -0.1800 
     39 N           2.0666  -17.1554  -42.1234 N.am      7 UNK        -0.5000 
     40 C           1.4274  -18.2433  -41.6683 C.2       6 UNK         0.5000 
     41 O           1.3795  -19.3102  -42.2787 O.2       6 UNK        -0.5000 
     42 CA          0.6640  -18.0942  -40.3375 C.3       6 UNK         0.1400 
     43 CB          1.5903  -18.3975  -39.1509 C.3       6 UNK        -0.1800 
     44 N           0.0751  -16.7654  -40.1608 N.am      6 UNK        -0.5000 
     45 C          -0.8422  -16.2152  -40.9701 C.2       5 UNK         0.5000 
     46 O          -1.3380  -16.8037  -41.9305 O.2       5 UNK        -0.5000 
     47 CA         -1.2018  -14.7387  -40.7081 C.3       5 UNK         0.1400 
     48 CB         -2.4062  -14.6369  -39.7613 C.3       5 UNK        -0.1800 
     49 N          -0.0786  -13.9722  -40.1555 N.am      5 UNK        -0.5000 
     50 C           1.0766  -13.7585  -40.7997 C.2       4 UNK         0.5000 
     51 O           1.2849  -14.1140  -41.9629 O.2       4 UNK        -0.5000 
     52 CA          2.2094  -13.1217  -39.9845 C.3       4 UNK         0.1400 
     53 CB          2.7348  -14.1301  -38.9395 C.3       4 UNK        -0.1800 
     54 N           3.2779  -12.7378  -40.9018 N.am      4 UNK        -0.5000 
     55 C           4.3646  -12.0202  -40.5988 C.2       3 UNK         0.5000 
     56 O           4.5883  -11.5481  -39.4832 O.2       3 UNK        -0.5000 
     57 CA          5.3776  -11.7886  -41.7345 C.3       3 UNK         0.1400 
     58 CB          6.3590  -12.9671  -41.8278 C.3       3 UNK        -0.1800 
     59 N           4.7646  -11.5755  -43.0466 N.am      3 UNK        -0.5000 
     60 C           4.0241  -10.5172  -43.3932 C.2       2 UNK         0.5000 
     61 O           3.6925   -9.6338  -42.6017 O.2       2 UNK        -0.5000 
     62 CA          3.5976  -10.3910  -44.8712 C.3       2 UNK         0.1400 
     63 CB          4.6757   -9.6473  -45.6819 C.3       2 UNK        -0.1800 
     64 N           3.2006  -11.6311  -45.5557 N.am      2 UNK        -0.5000 
     65 C           3.9270  -12.7174  -45.8573 C.2       1 UNK         0.5000 
     66 O           5.0800  -12.9036  -45.4616 O.2       1 UNK        -0.5000 
     67 C          -1.4900  -21.3634  -48.8966 C.2       11 UNK         0.5000 
     68 O          -1.8402  -22.3081  -49.6041 O.2       11 UNK        -0.5000 
     69 N          -2.3497  -20.5184  -48.3099 N.am      12 UNK        -0.5000 
     70 CA         -3.7863  -20.4769  -48.5710 C.3       12 UNK         0.1400 
     71 CB         -4.3447  -19.1168  -48.1253 C.3       12 UNK        -0.1800 
     72 C          -4.5533  -21.6340  -47.9170 C.2       12 UNK         0.5000 
     73 O          -5.2665  -22.3547  -48.6142 O.2       12 UNK        -0.5000 
     74 N          -4.3834  -21.8070  -46.5987 N.am      13 UNK        -0.5000 
     75 CA         -5.0364  -22.8683  -45.8224 C.3       13 UNK         0.1400 
     76 CB         -5.0008  -22.5257  -44.3248 C.3       13 UNK        -0.1800 
     77 C          -4.4146  -24.2499  -46.0950 C.2       13 UNK         0.5000 
     78 O          -5.1173  -25.2591  -46.0363 O.2       13 UNK        -0.5000 
     79 N          -3.1214  -24.2588  -46.4457 N.am      14 UNK        -0.5000 
     80 CA         -2.3875  -25.4136  -46.9647 C.3       14 UNK         0.1400 
     81 CB         -0.8915  -25.0737  -46.9817 C.3       14 UNK        -0.1800 
     82 C          -2.8482  -25.8548  -48.3709 C.2       14 UNK         0.5000 
     83 O          -2.5319  -26.9737  -48.7765 O.2       14 UNK        -0.5000 
     84 N          -3.5842  -24.9801  -49.0748 N.am      15 UNK        -0.5000 
     85 CA         -4.1730  -25.1647  -50.4007 C.3       15 UNK         0.1400 
     86 CB         -5.2519  -26.2668  -50.3661 C.3       15 UNK        -0.1800 
     87 C          -3.1061  -25.3808  -51.4905 C.2       15 UNK         0.5000 
     88 O          -3.1906  -26.3371  -52.2640 O.2       15 UNK        -0.5000 
     89 N          -2.1200  -24.4736  -51.5394 N.am      16 UNK        -0.5000 
     90 CA         -1.0204  -24.4585  -52.5097 C.3       16 UNK         0.1400 
     91 CB         -0.0885  -23.2790  -52.1917 C.3       16 UNK        -0.1800 
     92 C          -1.4709  -24.4029  -53.9851 C.2       16 UNK         0.5000 
     93 O          -0.7841  -24.9559  -54.8449 O.2       16 UNK        -0.5000 
     94 N          -2.6197  -23.7666  -54.2445 N.am      17 UNK        -0.5000 
     95 CA         -3.2818  -23.6953  -55.5474 C.3       17 UNK         0.1400 
     96 CB         -3.4900  -22.2188  -55.9210 C.3       17 UNK        -0.1800 
     97 C          -4.6088  -24.4821  -55.5455 C.2       17 UNK         0.5000 
     98 O          -5.5006  -24.1742  -56.3388 O.2       17 UNK        -0.5000 
     99 N          -4.7262  -25.4829  -54.6587 N.am      18 UNK        -0.5000 
    100 CA        -5.8775  -26.3697  -54.4746 C.3       18 UNK         0.1400 
    101 CB        -6.0065  -27.3364  -55.6738 C.3       18 UNK        -0.1800 
    102 C         -7.1610  -25.5740  -54.1555 C.2       18 UNK         0.5000 
    103 O         -7.1849  -24.8420  -53.1644 O.2       18 UNK        -0.5000 
    104 N         -8.1892  -25.6989  -55.0054 N.am      19 UNK        -0.5000 
    105 CA        -9.4826  -25.0195  -54.8896 C.3       19 UNK         0.1400 
    106 CB       -10.4265  -25.5657  -55.9718 C.3       19 UNK        -0.1800 
    107 C         -9.4058  -23.4805  -54.9685 C.2       19 UNK         0.5000 
    108 O        -10.3180  -22.8104  -54.4835 O.2       19 UNK        -0.5000 
    109 N         -8.3228  -22.9442  -55.5492 N.am      20 UNK        -0.5000 
    110 CA        -8.0400  -21.5092  -55.6145 C.3       20 UNK         0.1400 
    111 CB        -7.2400  -21.2160  -56.8944 C.3       20 UNK        -0.1800 
    112 C         -7.3067  -20.9802  -54.3628 C.2       20 UNK         0.5000 
    113 O         -6.9292  -19.8070  -54.3518 O.2       20 UNK        -0.5000 
    114 N         -7.0985  -21.8349  -53.3469 N.am      21 UNK        -0.5000 
    115 CA        -6.3738  -21.5920  -52.0962 C.3       21 UNK         0.1400 
    116 CB        -7.0487  -20.4974  -51.2415 C.3       21 UNK        -0.1800 
    117 C         -4.8858  -21.3282  -52.3722 C.2       21 UNK         0.5000 
    118 O         -4.1048  -22.2777  -52.3816 O.2       21 UNK        -0.5000 
    119 N         -4.5320  -20.0683  -52.6403 N.am      22 UNK        -0.5000 
    120 CA        -3.2045  -19.6406  -53.1006 C.3       22 UNK         0.1400 
    121 C         -3.2244  -18.9159  -54.4794 C.2       22 UNK         0.5000 
    122 N         -4.3617  -18.7802  -55.1527 N.am      22 UNK        -0.7600 
    123 O         -2.1799  -18.4886  -54.9628 O.2       22 UNK        -0.5000 
    124 C124       -2.4513  -18.8418  -52.0090 C.3       23 UNK        -0.0398 
    125 S125       -3.2044  -17.2261  -51.5913 S.3       23 UNK        -0.2404 
    126 C126       -1.9006  -16.0590  -52.1096 C.3       23 UNK        -0.0205 
    127 H127        5.6998  -17.0788  -48.5131 H         1 UNK         0.0600 
    128 H128        4.9459  -17.3555  -46.9420 H         1 UNK         0.0600 
    129 H129        6.5857  -16.7039  -47.0300 H         1 UNK         0.0600 
    130 H130        3.4912  -15.8191  -46.3854 H         1 UNK         0.3000 
    131 H131        2.3218  -14.0373  -46.1661 H         1 UNK         0.0600 
    132 H132        3.4512  -12.3865  -48.4395 H         1 UNK         0.0800 
    133 H133        2.8642  -13.9299  -48.9098 H         1 UNK         0.0800 
    134 H134        0.3540  -14.5123  -46.9698 H         1 UNK         0.0800 
    135 H135       -0.9811  -13.7304  -47.7542 H         1 UNK         0.0800 
    136 H136       -1.6731  -14.3654  -49.9844 H         1 UNK         0.1150 
    137 H137        0.3796  -17.5622  -51.9724 H         1 UNK         0.1150 
    138 H138        1.9106  -16.0117  -48.2996 H         1 UNK         0.1150 
    139 H139        2.5022  -18.3115  -51.2037 H         1 UNK         0.0800 
    140 H140        3.3456  -17.4067  -49.9723 H         1 UNK         0.0800 
    141 H141        0.2953  -19.8484  -50.4386 H         1 UNK         0.0800 
    142 H142       -0.2133  -18.9423  -49.0307 H         1 UNK         0.0800 
    143 H143        0.5606  -21.8975  -49.1509 H         1 UNK         0.0600 
    144 H144       -0.1750  -20.3459  -46.7026 H         1 UNK         0.3000 
    145 H145        1.0310  -22.8240  -44.6238 H         1 UNK         0.0600 
    146 H146        2.7044  -21.3185  -43.5957 H         1 UNK         0.0600 
    147 H147        2.7128  -20.2907  -45.0297 H         1 UNK         0.0600 
    148 H148        3.3367  -21.9345  -45.1122 H         1 UNK         0.0600 
    149 H149        0.5227  -20.1750  -43.8875 H         1 UNK         0.3000 
    150 H150       -2.9983  -19.9943  -44.3980 H         1 UNK         0.0600 
    151 H151       -2.7546  -21.1115  -42.2022 H         1 UNK         0.0600 
    152 H152       -2.8608  -19.3714  -41.9797 H         1 UNK         0.0600 
    153 H153       -1.3017  -20.1863  -41.8563 H         1 UNK         0.0600 
    154 H154       -1.3058  -18.0574  -43.3283 H         1 UNK         0.3000 
    155 H155       -0.0833  -16.6145  -46.3831 H         1 UNK         0.0600 
    156 H156       -2.2597  -15.5934  -45.9584 H         1 UNK         0.0600 
    157 H157       -1.0665  -14.6561  -45.0695 H         1 UNK         0.0600 
    158 H158       -2.1031  -15.7932  -44.2208 H         1 UNK         0.0600 
    159 H159        0.2633  -16.5093  -43.4299 H         1 UNK         0.3000 
    160 H160        3.3572  -18.0081  -43.5143 H         1 UNK         0.0600 
    161 H161        3.2731  -14.9482  -43.4008 H         1 UNK         0.0600 
    162 H162        4.4598  -15.9570  -44.2100 H         1 UNK         0.0600 
    163 H163        4.3870  -15.9391  -42.4587 H         1 UNK         0.0600 
    164 H164        2.0007  -16.2930  -41.6013 H         1 UNK         0.3000 
    165 H165       -0.1480  -18.8229  -40.3322 H         1 UNK         0.0600 
    166 H166        1.0445  -18.3717  -38.2076 H         1 UNK         0.0600 
    167 H167        2.0297  -19.3916  -39.2434 H         1 UNK         0.0600 
    168 H168        2.4100  -17.6808  -39.0849 H         1 UNK         0.0600 
    169 H169        0.4232  -16.2152  -39.3902 H         1 UNK         0.3000 
    170 H170       -1.4781  -14.2927  -41.6660 H         1 UNK         0.0600 
    171 H171       -2.1824  -15.0502  -38.7770 H         1 UNK         0.0600 
    172 H172       -2.7166  -13.6003  -39.6283 H         1 UNK         0.0600 
    173 H173       -3.2626  -15.1827  -40.1598 H         1 UNK         0.0600 
    174 H174       -0.1791  -13.6484  -39.2039 H         1 UNK         0.3000 
    175 H175        1.8254  -12.2285  -39.4880 H         1 UNK         0.0600 
    176 H176        3.1485  -15.0204  -39.4151 H         1 UNK         0.0600 
    177 H177        3.5154  -13.6953  -38.3158 H         1 UNK         0.0600 
    178 H178        1.9423  -14.4555  -38.2649 H         1 UNK         0.0600 
    179 H179        3.1378  -13.0580  -41.8520 H         1 UNK         0.3000 
    180 H180        5.9489  -10.8918  -41.4858 H         1 UNK         0.0600 
    181 H181        7.1410  -12.7713  -42.5617 H         1 UNK         0.0600 
    182 H182        5.8536  -13.8893  -42.1163 H         1 UNK         0.0600 
    183 H183        6.8495  -13.1459  -40.8700 H         1 UNK         0.0600 
    184 H184        5.0109  -12.2280  -43.7882 H         1 UNK         0.3000 
    185 H185        2.7041   -9.7646  -44.8743 H         1 UNK         0.0600 
    186 H186        4.3413   -9.4582  -46.7021 H         1 UNK         0.0600 
    187 H187        4.9057   -8.6808  -45.2316 H         1 UNK         0.0600 
    188 H188        5.6072  -10.2119  -45.7335 H         1 UNK         0.0600 
    189 H189        2.2507  -11.6132  -45.9026 H         1 UNK         0.3000 
    190 H190       -1.9874  -19.7900  -47.6967 H         1 UNK         0.3000 
    191 H191       -3.9359  -20.5575  -49.6487 H         1 UNK         0.0600 
    192 H192       -4.1923  -18.9444  -47.0592 H         1 UNK         0.0600 
    193 H193       -5.4154  -19.0488  -48.3213 H         1 UNK         0.0600 
    194 H194       -3.8638  -18.3007  -48.6650 H         1 UNK         0.0600 
    195 H195       -3.7201  -21.2250  -46.1095 H         1 UNK         0.3000 
    196 H196       -6.0844  -22.9136  -46.1270 H         1 UNK         0.0600 
    197 H197       -5.4125  -21.5347  -44.1336 H         1 UNK         0.0600 
    198 H198       -3.9900  -22.5559  -43.9209 H         1 UNK         0.0600 
    199 H199       -5.5955  -23.2396  -43.7537 H         1 UNK         0.0600 
    200 H200       -2.6047  -23.3903  -46.3612 H         1 UNK         0.3000 
    201 H201       -2.5459  -26.2519  -46.2835 H         1 UNK         0.0600 
    202 H202       -0.5419  -24.7648  -45.9963 H         1 UNK         0.0600 
    203 H203       -0.6782  -24.2676  -47.6844 H         1 UNK         0.0600 
    204 H204       -0.2962  -25.9362  -47.2836 H         1 UNK         0.0600 
    205 H205       -3.7667  -24.0780  -48.6555 H         1 UNK         0.3000 
    206 H206       -4.6760  -24.2283  -50.6426 H         1 UNK         0.0600 
    207 H207       -4.8233  -27.2540  -50.1920 H         1 UNK         0.0600 
    208 H208       -5.9837  -26.0749  -49.5814 H         1 UNK         0.0600 
    209 H209       -5.7955  -26.3080  -51.3086 H         1 UNK         0.0600 
    210 H210       -2.1340  -23.7079  -50.8690 H         1 UNK         0.3000 
    211 H211       -0.4580  -25.3846  -52.3767 H         1 UNK         0.0600 
    212 H212       -0.6164  -22.3259  -52.2470 H         1 UNK         0.0600 
    213 H213        0.7458  -23.2359  -52.8930 H         1 UNK         0.0600 
    214 H214        0.3339  -23.3716  -51.1912 H         1 UNK         0.0600 
    215 H215       -3.1191  -23.3295  -53.4699 H         1 UNK         0.3000 
    216 H216       -2.6545  -24.1482  -56.3172 H         1 UNK         0.0600 
    217 H217       -3.8500  -22.1211  -56.9455 H         1 UNK         0.0600 
    218 H218       -2.5578  -21.6581  -55.8535 H         1 UNK         0.0600 
    219 H219       -4.2208  -21.7410  -55.2692 H         1 UNK         0.0600 
    220 H220       -3.9605  -25.6433  -54.0126 H         1 UNK         0.3000 
    221 H221       -5.6650  -26.9735  -53.5921 H         1 UNK         0.0600 
    222 H222       -6.2069  -26.8135  -56.6096 H         1 UNK         0.0600 
    223 H223       -5.0876  -27.9070  -55.8094 H         1 UNK         0.0600 
    224 H224       -6.8074  -28.0596  -55.5143 H         1 UNK         0.0600 
    225 H225       -8.0703  -26.2982  -55.8093 H         1 UNK         0.3000 
    226 H226       -9.9003  -25.2711  -53.9126 H         1 UNK         0.0600 
    227 H227      -10.5628  -26.6427  -55.8708 H         1 UNK         0.0600 
    228 H228      -11.4136  -25.1072  -55.8985 H         1 UNK         0.0600 
    229 H229      -10.0458  -25.3666  -56.9743 H         1 UNK         0.0600 
    230 H230       -7.5984  -23.5595  -55.9022 H         1 UNK         0.3000 
    231 H231       -8.9814  -20.9605  -55.6839 H         1 UNK         0.0600 
    232 H232       -7.0820  -20.1446  -57.0236 H         1 UNK         0.0600 
    233 H233       -7.7667  -21.5731  -57.7793 H         1 UNK         0.0600 
    234 H234       -6.2597  -21.6895  -56.8749 H         1 UNK         0.0600 
    235 H235       -7.3924  -22.7972  -53.4743 H         1 UNK         0.3000 
    236 H236       -6.4242  -22.5222  -51.5279 H         1 UNK         0.0600 
    237 H237       -7.0919  -19.5312  -51.7436 H         1 UNK         0.0600 
    238 H238       -8.0697  -20.7811  -50.9867 H         1 UNK         0.0600 
    239 H239       -6.5119  -20.3537  -50.3036 H         1 UNK         0.0600 
    240 H240       -5.2502  -19.3576  -52.6574 H         1 UNK         0.3000 
    241 H241       -2.6037  -20.5311  -53.2944 H         1 UNK         0.0600 
    242 H242       -4.3455  -18.3118  -56.0441 H         1 UNK         0.3800 
    243 H243       -5.2434  -19.1403  -54.7974 H         1 UNK         0.3800 
    244 H244       -1.4201  -18.7062  -52.3254 H         1 UNK         0.0800 
    245 H245       -2.3946  -19.4322  -51.0958 H         1 UNK         0.0800 
    246 H246       -1.5072  -16.3458  -53.0862 H         1 UNK         0.0800 
    247 H247       -2.3454  -15.0714  -52.2402 H         1 UNK         0.0800 
@<TRIPOS>BOND
     1    1    2 1    
     2    1  127 1    
     3    1  128 1    
     4    1  129 1    
     5    2    3 2    
     6    2    4 am   BACKBONE|DICT|INTERRES
     7    4    5 1    
     8    4  130 1    
     9    5    6 1    
    10    5   65 1    
    11    5  131 1    
    12    6    7 1    
    13    6  132 1    
    14    6  133 1    
    15    7    8 1    
    16    8    9 1    
    17    8  134 1    
    18    8  135 1    
    19    9   10 ar   
    20    9   14 ar   
    21   10   11 ar   
    22   10  136 1    
    23   11   12 ar   
    24   11  126 1    
    25   12   13 ar   
    26   12  137 1    
    27   13   14 ar   
    28   13   15 1    
    29   14  138 1    
    30   15   16 1    
    31   15  139 1    
    32   15  140 1    
    33   16   17 1    
    34   17   18 1    
    35   17  141 1    
    36   17  142 1    
    37   18   19 1    
    38   18   67 1    
    39   18  143 1    
    40   19   20 am   BACKBONE|DICT|INTERRES
    41   19  144 1    
    42   20   21 2    
    43   20   22 1    
    44   22   23 1    
    45   22   24 1    
    46   22  145 1    
    47   23  146 1    
    48   23  147 1    
    49   23  148 1    
    50   24   25 am   BACKBONE|DICT|INTERRES
    51   24  149 1    
    52   25   26 2    
    53   25   27 1    
    54   27   28 1    
    55   27   29 1    
    56   27  150 1    
    57   28  151 1    
    58   28  152 1    
    59   28  153 1    
    60   29   30 am   BACKBONE|DICT|INTERRES
    61   29  154 1    
    62   30   31 2    
    63   30   32 1    
    64   32   33 1    
    65   32   34 1    
    66   32  155 1    
    67   33  156 1    
    68   33  157 1    
    69   33  158 1    
    70   34   35 am   BACKBONE|DICT|INTERRES
    71   34  159 1    
    72   35   36 2    
    73   35   37 1    
    74   37   38 1    
    75   37   39 1    
    76   37  160 1    
    77   38  161 1    
    78   38  162 1    
    79   38  163 1    
    80   39   40 am   BACKBONE|DICT|INTERRES
    81   39  164 1    
    82   40   41 2    
    83   40   42 1    
    84   42   43 1    
    85   42   44 1    
    86   42  165 1    
    87   43  166 1    
    88   43  167 1    
    89   43  168 1    
    90   44   45 am   BACKBONE|DICT|INTERRES
    91   44  169 1    
    92   45   46 2    
    93   45   47 1    
    94   47   48 1    
    95   47   49 1    
    96   47  170 1    
    97   48  171 1    
    98   48  172 1    
    99   48  173 1    
   100   49   50 am   BACKBONE|DICT|INTERRES
   101   49  174 1    
   102   50   51 2    
   103   50   52 1    
   104   52   53 1    
   105   52   54 1    
   106   52  175 1    
   107   53  176 1    
   108   53  177 1    
   109   53  178 1    
   110   54   55 am   BACKBONE|DICT|INTERRES
   111   54  179 1    
   112   55   56 2    
   113   55   57 1    
   114   57   58 1    
   115   57   59 1    
   116   57  180 1    
   117   58  181 1    
   118   58  182 1    
   119   58  183 1    
   120   59   60 am   BACKBONE|DICT|INTERRES
   121   59  184 1    
   122   60   61 2    
   123   60   62 1    
   124   62   63 1    
   125   62   64 1    
   126   62  185 1    
   127   63  186 1    
   128   63  187 1    
   129   63  188 1    
   130   64   65 am   BACKBONE|DICT|INTERRES
   131   64  189 1    
   132   65   66 2    
   133   67   68 2    
   134   67   69 am   BACKBONE|DICT|INTERRES
   135   69   70 1    
   136   69  190 1    
   137   70   71 1    
   138   70   72 1    
   139   70  191 1    
   140   71  192 1    
   141   71  193 1    
   142   71  194 1    
   143   72   73 2    
   144   72   74 am   BACKBONE|DICT|INTERRES
   145   74   75 1    
   146   74  195 1    
   147   75   76 1    
   148   75   77 1    
   149   75  196 1    
   150   76  197 1    
   151   76  198 1    
   152   76  199 1    
   153   77   78 2    
   154   77   79 am   BACKBONE|DICT|INTERRES
   155   79   80 1    
   156   79  200 1    
   157   80   81 1    
   158   80   82 1    
   159   80  201 1    
   160   81  202 1    
   161   81  203 1    
   162   81  204 1    
   163   82   83 2    
   164   82   84 am   BACKBONE|DICT|INTERRES
   165   84   85 1    
   166   84  205 1    
   167   85   86 1    
   168   85   87 1    
   169   85  206 1    
   170   86  207 1    
   171   86  208 1    
   172   86  209 1    
   173   87   88 2    
   174   87   89 am   BACKBONE|DICT|INTERRES
   175   89   90 1    
   176   89  210 1    
   177   90   91 1    
   178   90   92 1    
   179   90  211 1    
   180   91  212 1    
   181   91  213 1    
   182   91  214 1    
   183   92   93 2    
   184   92   94 am   BACKBONE|DICT|INTERRES
   185   94   95 1    
   186   94  215 1    
   187   95   96 1    
   188   95   97 1    
   189   95  216 1    
   190   96  217 1    
   191   96  218 1    
   192   96  219 1    
   193   97   98 2    
   194   97   99 am   BACKBONE|DICT|INTERRES
   195   99  100 1    
   196   99  220 1    
   197  100  101 1    
   198  100  102 1    
   199  100  221 1    
   200  101  222 1    
   201  101  223 1    
   202  101  224 1    
   203  102  103 2    
   204  102  104 am   BACKBONE|DICT|INTERRES
   205  104  105 1    
   206  104  225 1    
   207  105  106 1    
   208  105  107 1    
   209  105  226 1    
   210  106  227 1    
   211  106  228 1    
   212  106  229 1    
   213  107  108 2    
   214  107  109 am   BACKBONE|DICT|INTERRES
   215  109  110 1    
   216  109  230 1    
   217  110  111 1    
   218  110  112 1    
   219  110  231 1    
   220  111  232 1    
   221  111  233 1    
   222  111  234 1    
   223  112  113 2    
   224  112  114 am   BACKBONE|DICT|INTERRES
   225  114  115 1    
   226  114  235 1    
   227  115  116 1    
   228  115  117 1    
   229  115  236 1    
   230  116  237 1    
   231  116  238 1    
   232  116  239 1    
   233  117  118 2    
   234  117  119 am   BACKBONE|DICT|INTERRES
   235  119  120 1    
   236  119  240 1    
   237  120  121 1    
   238  120  124 1    
   239  120  241 1    
   240  121  122 am   BACKBONE|DICT|INTERRES
   241  121  123 2    
   242  122  242 1    
   243  122  243 1    
   244  124  125 1    
   245  124  244 1    
   246  124  245 1    
   247  125  126 1    
   248  126  246 1    
   249  126  247 1    
@<TRIPOS>SUBSTRUCTURE
     1 UNK         1 GROUP             0       ****    0 ROOT    
