@<TRIPOS>MOLECULE
3R540
247   249    1
SMALL
USER_CHARGES


@<TRIPOS>ATOM
      1 CA         -1.8404  -12.5501  -44.8400 C.3       0 UNK        -0.1800 
      2 C          -0.9585  -12.1568  -46.0143 C.2       0 UNK         0.5000 
      3 O          -1.3429  -11.2969  -46.8086 O.2       0 UNK        -0.5000 
      4 N           0.2295  -12.7651  -46.1254 N.am      1 UNK        -0.5000 
      5 CA          1.2461  -12.4424  -47.1330 C.3       1 UNK         0.1400 
      6 C6          2.1916  -13.6359  -47.4206 C.3       23 UNK        -0.0398 
      7 S7          1.2997  -15.1395  -47.9332 S.3       23 UNK        -0.2404 
      8 C8          1.5937  -15.1595  -49.7234 C.3       23 UNK        -0.0205 
      9 C9          0.9823  -16.4038  -50.3449 C.ar      23 UNK        -0.0193 
     10 C10        -0.2633  -16.3453  -50.9791 C.ar      23 UNK        -0.1150 
     11 C11        -0.8216  -17.4950  -51.5466 C.ar      23 UNK        -0.0193 
     12 C12        -0.1316  -18.7066  -51.4662 C.ar      23 UNK        -0.1150 
     13 C13         1.1090  -18.7785  -50.8289 C.ar      23 UNK        -0.0193 
     14 C14         1.6643  -17.6222  -50.2756 C.ar      23 UNK        -0.1150 
     15 C15         1.8492  -20.1038  -50.7400 C.3       23 UNK        -0.0205 
     16 S16         1.7542  -20.8235  -49.0708 S.3       23 UNK        -0.2404 
     17 C17        -0.0421  -21.0803  -48.8701 C.3       23 UNK        -0.0398 
     18 CA         -0.3480  -22.2853  -47.9528 C.3       11 UNK         0.1400 
     19 N           0.0917  -22.0676  -46.5700 N.am      11 UNK        -0.5000 
     20 C           0.1470  -23.0302  -45.6392 C.2       10 UNK         0.5000 
     21 O          -0.1501  -24.2049  -45.8552 O.2       10 UNK        -0.5000 
     22 CA          0.5534  -22.6075  -44.2171 C.3       10 UNK         0.1400 
     23 CB          2.0700  -22.3851  -44.1200 C.3       10 UNK        -0.1800 
     24 N          -0.1590  -21.4137  -43.7613 N.am      10 UNK        -0.5000 
     25 C          -1.4862  -21.3477  -43.5817 C.2       9 UNK         0.5000 
     26 O          -2.2450  -22.3026  -43.7463 O.2       9 UNK        -0.5000 
     27 CA         -2.0747  -19.9787  -43.1942 C.3       9 UNK         0.1400 
     28 CB         -1.9140  -19.7204  -41.6891 C.3       9 UNK        -0.1800 
     29 N          -1.4895  -18.8708  -43.9489 N.am      9 UNK        -0.5000 
     30 C          -1.5561  -18.7351  -45.2818 C.2       8 UNK         0.5000 
     31 O          -2.1438  -19.5180  -46.0259 O.2       8 UNK        -0.5000 
     32 CA         -0.7875  -17.5527  -45.8916 C.3       8 UNK         0.1400 
     33 CB         -1.5731  -16.2470  -45.7115 C.3       8 UNK        -0.1800 
     34 N           0.5505  -17.4167  -45.3176 N.am      8 UNK        -0.5000 
     35 C           1.5113  -18.3455  -45.4282 C.2       7 UNK         0.5000 
     36 O           1.3778  -19.4050  -46.0399 O.2       7 UNK        -0.5000 
     37 CA          2.8149  -18.0721  -44.6620 C.3       7 UNK         0.1400 
     38 CB          3.6980  -17.0674  -45.4167 C.3       7 UNK        -0.1800 
     39 N           2.5529  -17.5887  -43.3052 N.am      7 UNK        -0.5000 
     40 C           2.0000  -18.3351  -42.3370 C.2       6 UNK         0.5000 
     41 O           1.6922  -19.5177  -42.4789 O.2       6 UNK        -0.5000 
     42 CA          1.7090  -17.6394  -40.9946 C.3       6 UNK         0.1400 
     43 CB          2.9343  -17.7167  -40.0720 C.3       6 UNK        -0.1800 
     44 N           1.3067  -16.2409  -41.1452 N.am      6 UNK        -0.5000 
     45 C           0.1900  -15.8238  -41.7595 C.2       5 UNK         0.5000 
     46 O          -0.6405  -16.5833  -42.2585 O.2       5 UNK        -0.5000 
     47 CA         -0.0010  -14.2988  -41.8749 C.3       5 UNK         0.1400 
     48 CB         -0.7733  -13.7514  -40.6668 C.3       5 UNK        -0.1800 
     49 N           1.2681  -13.5778  -42.0098 N.am      5 UNK        -0.5000 
     50 C           2.0917  -13.6932  -43.0581 C.2       4 UNK         0.5000 
     51 O           1.8036  -14.3283  -44.0750 O.2       4 UNK        -0.5000 
     52 CA          3.4572  -12.9965  -42.9228 C.3       4 UNK         0.1400 
     53 CB          4.5121  -13.5484  -43.8961 C.3       4 UNK        -0.1800 
     54 N           3.3364  -11.5513  -43.1020 N.am      4 UNK        -0.5000 
     55 C           3.0130  -10.6914  -42.1251 C.2       3 UNK         0.5000 
     56 O           2.7287  -11.0488  -40.9805 O.2       3 UNK        -0.5000 
     57 CA          3.0233   -9.1855  -42.4599 C.3       3 UNK         0.1400 
     58 CB          4.3382   -8.5442  -41.9904 C.3       3 UNK        -0.1800 
     59 N           2.8455   -8.9062  -43.8850 N.am      3 UNK        -0.5000 
     60 C           1.6754   -8.9918  -44.5282 C.2       2 UNK         0.5000 
     61 O           0.6112   -9.2653  -43.9703 O.2       2 UNK        -0.5000 
     62 CA          1.6828   -8.7788  -46.0561 C.3       2 UNK         0.1400 
     63 CB          2.9888   -8.1744  -46.6217 C.3       2 UNK        -0.1800 
     64 N           1.3377  -10.0351  -46.7241 N.am      2 UNK        -0.5000 
     65 C           2.0116  -11.1921  -46.6541 C.2       1 UNK         0.5000 
     66 O           3.1329  -11.3018  -46.1543 O.2       1 UNK        -0.5000 
     67 C          -1.8371  -22.6823  -48.0288 C.2       11 UNK         0.5000 
     68 O          -2.1822  -23.5783  -48.8012 O.2       11 UNK        -0.5000 
     69 N          -2.6847  -22.0510  -47.2025 N.am      12 UNK        -0.5000 
     70 CA         -4.1014  -22.3838  -47.0543 C.3       12 UNK         0.1400 
     71 CB         -4.8049  -21.3431  -46.1720 C.3       12 UNK        -0.1800 
     72 C          -4.3287  -23.8052  -46.5189 C.2       12 UNK         0.5000 
     73 O          -5.1925  -24.5068  -47.0398 O.2       12 UNK        -0.5000 
     74 N          -3.5333  -24.2202  -45.5246 N.am      13 UNK        -0.5000 
     75 CA         -3.5465  -25.5762  -44.9779 C.3       13 UNK         0.1400 
     76 CB         -2.7127  -25.6213  -43.6883 C.3       13 UNK        -0.1800 
     77 C          -3.0511  -26.6260  -45.9898 C.2       13 UNK         0.5000 
     78 O          -3.6660  -27.6859  -46.1098 O.2       13 UNK        -0.5000 
     79 N          -1.9616  -26.3094  -46.7038 N.am      14 UNK        -0.5000 
     80 CA         -1.3272  -27.1843  -47.6897 C.3       14 UNK         0.1400 
     81 CB          0.0342  -26.5995  -48.0969 C.3       14 UNK        -0.1800 
     82 C          -2.2000  -27.4381  -48.9311 C.2       14 UNK         0.5000 
     83 O          -2.3580  -28.5913  -49.3339 O.2       14 UNK        -0.5000 
     84 N          -2.7472  -26.3637  -49.5152 N.am      15 UNK        -0.5000 
     85 CA         -3.5547  -26.4217  -50.7370 C.3       15 UNK         0.1400 
     86 CB         -3.3261  -25.1338  -51.5410 C.3       15 UNK        -0.1800 
     87 C          -5.0563  -26.6343  -50.4704 C.2       15 UNK         0.5000 
     88 O          -5.8163  -26.7757  -51.4290 O.2       15 UNK        -0.5000 
     89 N          -5.4699  -26.6025  -49.1955 N.am      16 UNK        -0.5000 
     90 CA         -6.8299  -26.7228  -48.6460 C.3       16 UNK         0.1400 
     91 CB         -7.4769  -28.0677  -49.0267 C.3       16 UNK        -0.1800 
     92 C          -7.7630  -25.5396  -48.9804 C.2       16 UNK         0.5000 
     93 O          -8.4897  -25.0727  -48.1026 O.2       16 UNK        -0.5000 
     94 N          -7.7205  -25.0723  -50.2319 N.am      17 UNK        -0.5000 
     95 CA         -8.4926  -23.9484  -50.7637 C.3       17 UNK         0.1400 
     96 CB         -9.1275  -24.3946  -52.0922 C.3       17 UNK        -0.1800 
     97 C          -7.6270  -22.6879  -50.9697 C.2       17 UNK         0.5000 
     98 O          -8.1240  -21.7076  -51.5247 O.2       17 UNK        -0.5000 
     99 N          -6.3483  -22.7408  -50.5578 N.am      18 UNK        -0.5000 
    100 CA        -5.3091  -21.7167  -50.7565 C.3       18 UNK         0.1400 
    101 CB        -5.6575  -20.4107  -50.0115 C.3       18 UNK        -0.1800 
    102 C         -4.9637  -21.4809  -52.2436 C.2       18 UNK         0.5000 
    103 O         -4.5296  -20.3918  -52.6147 O.2       18 UNK        -0.5000 
    104 N         -5.1373  -22.5234  -53.0665 N.am      19 UNK        -0.5000 
    105 CA        -4.9578  -22.5172  -54.5204 C.3       19 UNK         0.1400 
    106 CB        -5.7928  -23.6690  -55.1059 C.3       19 UNK        -0.1800 
    107 C         -3.4868  -22.6007  -54.9868 C.2       19 UNK         0.5000 
    108 O         -3.2444  -22.7830  -56.1811 O.2       19 UNK        -0.5000 
    109 N         -2.5271  -22.4857  -54.0585 N.am      20 UNK        -0.5000 
    110 CA        -1.0826  -22.5145  -54.2960 C.3       20 UNK         0.1400 
    111 CB        -0.3630  -22.7134  -52.9494 C.3       20 UNK        -0.1800 
    112 C         -0.5903  -21.2560  -55.0420 C.2       20 UNK         0.5000 
    113 O         -0.0177  -20.3578  -54.4258 O.2       20 UNK        -0.5000 
    114 N         -0.8471  -21.2207  -56.3567 N.am      21 UNK        -0.5000 
    115 CA        -0.5263  -20.1500  -57.3088 C.3       21 UNK         0.1400 
    116 CB         0.9980  -19.9257  -57.4066 C.3       21 UNK        -0.1800 
    117 C         -1.3149  -18.8441  -57.0644 C.2       21 UNK         0.5000 
    118 O         -0.8576  -17.7699  -57.4601 O.2       21 UNK        -0.5000 
    119 N         -2.4974  -18.9649  -56.4508 N.am      22 UNK        -0.5000 
    120 CA        -3.4550  -17.8791  -56.2009 C.3       22 UNK         0.1400 
    121 C         -4.8511  -18.2761  -56.7461 C.2       22 UNK         0.5000 
    122 N         -5.6354  -17.3174  -57.2188 N.am      22 UNK        -0.7600 
    123 O         -5.2447  -19.4407  -56.7171 O.2       22 UNK        -0.5000 
    124 C124       -3.5542  -17.5141  -54.6968 C.3       23 UNK        -0.0398 
    125 S125       -1.9716  -16.9441  -53.9896 S.3       23 UNK        -0.2404 
    126 C126       -2.1670  -17.4409  -52.2507 C.3       23 UNK        -0.0205 
    127 H127       -2.8797  -12.2855  -45.0355 H         1 UNK         0.0600 
    128 H128       -1.5186  -12.0290  -43.9381 H         1 UNK         0.0600 
    129 H129       -1.7985  -13.6215  -44.6595 H         1 UNK         0.0600 
    130 H130        0.5266  -13.4400  -45.4287 H         1 UNK         0.3000 
    131 H131        0.7511  -12.1891  -48.0731 H         1 UNK         0.0600 
    132 H132        2.7636  -13.8961  -46.5316 H         1 UNK         0.0800 
    133 H133        2.9247  -13.3680  -48.1830 H         1 UNK         0.0800 
    134 H134        1.1735  -14.2584  -50.1727 H         1 UNK         0.0800 
    135 H135        2.6666  -15.1392  -49.9206 H         1 UNK         0.0800 
    136 H136       -0.7961  -15.4065  -51.0360 H         1 UNK         0.1150 
    137 H137       -0.5614  -19.5936  -51.9085 H         1 UNK         0.1150 
    138 H138        2.6215  -17.6743  -49.7758 H         1 UNK         0.1150 
    139 H139        1.4599  -20.8157  -51.4684 H         1 UNK         0.0800 
    140 H140        2.8976  -19.9488  -50.9982 H         1 UNK         0.0800 
    141 H141       -0.4794  -21.2366  -49.8574 H         1 UNK         0.0800 
    142 H142       -0.4865  -20.1654  -48.4734 H         1 UNK         0.0800 
    143 H143        0.2149  -23.1388  -48.3369 H         1 UNK         0.0600 
    144 H144        0.3899  -21.1262  -46.3293 H         1 UNK         0.3000 
    145 H145        0.2911  -23.4259  -43.5434 H         1 UNK         0.0600 
    146 H146        2.3723  -22.1808  -43.0928 H         1 UNK         0.0600 
    147 H147        2.6162  -23.2696  -44.4498 H         1 UNK         0.0600 
    148 H148        2.3972  -21.5480  -44.7368 H         1 UNK         0.0600 
    149 H149        0.4075  -20.5956  -43.5607 H         1 UNK         0.3000 
    150 H150       -3.1424  -20.0010  -43.4206 H         1 UNK         0.0600 
    151 H151       -2.3853  -20.5119  -41.1054 H         1 UNK         0.0600 
    152 H152       -2.3800  -18.7788  -41.3981 H         1 UNK         0.0600 
    153 H153       -0.8647  -19.6784  -41.3976 H         1 UNK         0.0600 
    154 H154       -1.0136  -18.1533  -43.4102 H         1 UNK         0.3000 
    155 H155       -0.6741  -17.7390  -46.9621 H         1 UNK         0.0600 
    156 H156       -2.5643  -16.3247  -46.1598 H         1 UNK         0.0600 
    157 H157       -1.0667  -15.4121  -46.1928 H         1 UNK         0.0600 
    158 H158       -1.7082  -16.0002  -44.6587 H         1 UNK         0.0600 
    159 H159        0.7436  -16.5771  -44.7900 H         1 UNK         0.3000 
    160 H160        3.3622  -19.0144  -44.5881 H         1 UNK         0.0600 
    161 H161        3.2195  -16.0922  -45.5019 H         1 UNK         0.0600 
    162 H162        3.9057  -17.4165  -46.4291 H         1 UNK         0.0600 
    163 H163        4.6566  -16.9303  -44.9166 H         1 UNK         0.0600 
    164 H164        2.7377  -16.6136  -43.1243 H         1 UNK         0.3000 
    165 H165        0.8868  -18.1742  -40.5153 H         1 UNK         0.0600 
    166 H166        2.7147  -17.3007  -39.0885 H         1 UNK         0.0600 
    167 H167        3.2455  -18.7517  -39.9232 H         1 UNK         0.0600 
    168 H168        3.7857  -17.1740  -40.4848 H         1 UNK         0.0600 
    169 H169        1.9281  -15.5459  -40.7592 H         1 UNK         0.3000 
    170 H170       -0.5935  -14.1144  -42.7702 H         1 UNK         0.0600 
    171 H171       -1.7328  -14.2582  -40.5549 H         1 UNK         0.0600 
    172 H172       -0.2186  -13.8877  -39.7377 H         1 UNK         0.0600 
    173 H173       -0.9803  -12.6872  -40.7819 H         1 UNK         0.0600 
    174 H174        1.5497  -12.9848  -41.2386 H         1 UNK         0.3000 
    175 H175        3.8261  -13.2038  -41.9159 H         1 UNK         0.0600 
    176 H176        4.2614  -13.3429  -44.9346 H         1 UNK         0.0600 
    177 H177        5.4904  -13.1094  -43.7009 H         1 UNK         0.0600 
    178 H178        4.6159  -14.6284  -43.7887 H         1 UNK         0.0600 
    179 H179        3.4822  -11.2034  -44.0430 H         1 UNK         0.3000 
    180 H180        2.2041   -8.7206  -41.9073 H         1 UNK         0.0600 
    181 H181        5.1994   -8.9618  -42.5136 H         1 UNK         0.0600 
    182 H182        4.4928   -8.7058  -40.9227 H         1 UNK         0.0600 
    183 H183        4.3333   -7.4668  -42.1569 H         1 UNK         0.0600 
    184 H184        3.6780   -8.7006  -44.4182 H         1 UNK         0.3000 
    185 H185        0.8750   -8.0783  -46.2728 H         1 UNK         0.0600 
    186 H186        3.2008   -7.2077  -46.1634 H         1 UNK         0.0600 
    187 H187        3.8566   -8.8139  -46.4607 H         1 UNK         0.0600 
    188 H188        2.9024   -8.0062  -47.6952 H         1 UNK         0.0600 
    189 H189        0.3815  -10.0935  -47.0579 H         1 UNK         0.3000 
    190 H190       -2.3416  -21.2812  -46.6325 H         1 UNK         0.3000 
    191 H191       -4.5556  -22.3423  -48.0425 H         1 UNK         0.0600 
    192 H192       -4.7276  -20.3449  -46.6031 H         1 UNK         0.0600 
    193 H193       -5.8666  -21.5712  -46.0703 H         1 UNK         0.0600 
    194 H194       -4.3782  -21.3095  -45.1698 H         1 UNK         0.0600 
    195 H195       -2.8827  -23.5628  -45.1042 H         1 UNK         0.3000 
    196 H196       -4.5783  -25.8246  -44.7202 H         1 UNK         0.0600 
    197 H197       -2.7172  -26.6218  -43.2543 H         1 UNK         0.0600 
    198 H198       -3.1126  -24.9390  -42.9380 H         1 UNK         0.0600 
    199 H199       -1.6735  -25.3451  -43.8689 H         1 UNK         0.0600 
    200 H200       -1.4852  -25.4340  -46.5033 H         1 UNK         0.3000 
    201 H201       -1.1471  -28.1486  -47.2100 H         1 UNK         0.0600 
    202 H202        0.6977  -26.5111  -47.2365 H         1 UNK         0.0600 
    203 H203       -0.0693  -25.6095  -48.5418 H         1 UNK         0.0600 
    204 H204        0.5328  -27.2382  -48.8271 H         1 UNK         0.0600 
    205 H205       -2.5565  -25.4383  -49.1373 H         1 UNK         0.3000 
    206 H206       -3.2200  -27.2577  -51.3548 H         1 UNK         0.0600 
    207 H207       -2.2709  -25.0116  -51.7777 H         1 UNK         0.0600 
    208 H208       -3.8676  -25.1555  -52.4874 H         1 UNK         0.0600 
    209 H209       -3.6491  -24.2535  -50.9883 H         1 UNK         0.0600 
    210 H210       -4.7628  -26.4122  -48.4978 H         1 UNK         0.3000 
    211 H211       -6.7046  -26.7219  -47.5620 H         1 UNK         0.0600 
    212 H212       -7.6672  -28.1436  -50.0975 H         1 UNK         0.0600 
    213 H213       -8.4335  -28.1944  -48.5183 H         1 UNK         0.0600 
    214 H214       -6.8419  -28.9052  -48.7378 H         1 UNK         0.0600 
    215 H215       -7.1147  -25.5649  -50.8843 H         1 UNK         0.3000 
    216 H216       -9.2952  -23.6785  -50.0746 H         1 UNK         0.0600 
    217 H217       -9.7573  -23.6101  -52.5137 H         1 UNK         0.0600 
    218 H218       -9.7589  -25.2720  -51.9503 H         1 UNK         0.0600 
    219 H219       -8.3700  -24.6446  -52.8361 H         1 UNK         0.0600 
    220 H220       -6.0577  -23.5832  -50.0826 H         1 UNK         0.3000 
    221 H221       -4.3980  -22.1123  -50.3081 H         1 UNK         0.0600 
    222 H222       -6.4736  -19.8735  -50.4953 H         1 UNK         0.0600 
    223 H223       -5.9528  -20.6042  -48.9808 H         1 UNK         0.0600 
    224 H224       -4.7990  -19.7386  -49.9824 H         1 UNK         0.0600 
    225 H225       -5.4904  -23.3813  -52.6712 H         1 UNK         0.3000 
    226 H226       -5.3584  -21.5793  -54.9103 H         1 UNK         0.0600 
    227 H227       -6.8409  -23.5817  -54.8186 H         1 UNK         0.0600 
    228 H228       -5.7596  -23.6676  -56.1962 H         1 UNK         0.0600 
    229 H229       -5.4308  -24.6405  -54.7667 H         1 UNK         0.0600 
    230 H230       -2.8191  -22.2954  -53.1126 H         1 UNK         0.3000 
    231 H231       -0.8517  -23.3784  -54.9227 H         1 UNK         0.0600 
    232 H232       -0.5802  -23.6919  -52.5251 H         1 UNK         0.0600 
    233 H233       -0.6562  -21.9591  -52.2198 H         1 UNK         0.0600 
    234 H234        0.7194  -22.6546  -53.0706 H         1 UNK         0.0600 
    235 H235       -1.4137  -21.9766  -56.7274 H         1 UNK         0.3000 
    236 H236       -0.8598  -20.5138  -58.2816 H         1 UNK         0.0600 
    237 H237        1.2429  -19.2613  -58.2360 H         1 UNK         0.0600 
    238 H238        1.4009  -19.4742  -56.4997 H         1 UNK         0.0600 
    239 H239        1.5253  -20.8639  -57.5787 H         1 UNK         0.0600 
    240 H240       -2.8258  -19.8894  -56.2118 H         1 UNK         0.3000 
    241 H241       -3.1407  -16.9864  -56.7450 H         1 UNK         0.0600 
    242 H242       -5.3388  -16.3536  -57.2482 H         1 UNK         0.3800 
    243 H243       -6.5501  -17.5620  -57.5658 H         1 UNK         0.3800 
    244 H244       -3.9115  -18.3757  -54.1328 H         1 UNK         0.0800 
    245 H245       -4.2891  -16.7223  -54.5424 H         1 UNK         0.0800 
    246 H246       -2.8329  -16.7410  -51.7439 H         1 UNK         0.0800 
    247 H247       -2.6460  -18.4195  -52.1945 H         1 UNK         0.0800 
@<TRIPOS>BOND
     1    1    2 1    
     2    1  127 1    
     3    1  128 1    
     4    1  129 1    
     5    2    3 2    
     6    2    4 am   BACKBONE|DICT|INTERRES
     7    4    5 1    
     8    4  130 1    
     9    5    6 1    
    10    5   65 1    
    11    5  131 1    
    12    6    7 1    
    13    6  132 1    
    14    6  133 1    
    15    7    8 1    
    16    8    9 1    
    17    8  134 1    
    18    8  135 1    
    19    9   10 ar   
    20    9   14 ar   
    21   10   11 ar   
    22   10  136 1    
    23   11   12 ar   
    24   11  126 1    
    25   12   13 ar   
    26   12  137 1    
    27   13   14 ar   
    28   13   15 1    
    29   14  138 1    
    30   15   16 1    
    31   15  139 1    
    32   15  140 1    
    33   16   17 1    
    34   17   18 1    
    35   17  141 1    
    36   17  142 1    
    37   18   19 1    
    38   18   67 1    
    39   18  143 1    
    40   19   20 am   BACKBONE|DICT|INTERRES
    41   19  144 1    
    42   20   21 2    
    43   20   22 1    
    44   22   23 1    
    45   22   24 1    
    46   22  145 1    
    47   23  146 1    
    48   23  147 1    
    49   23  148 1    
    50   24   25 am   BACKBONE|DICT|INTERRES
    51   24  149 1    
    52   25   26 2    
    53   25   27 1    
    54   27   28 1    
    55   27   29 1    
    56   27  150 1    
    57   28  151 1    
    58   28  152 1    
    59   28  153 1    
    60   29   30 am   BACKBONE|DICT|INTERRES
    61   29  154 1    
    62   30   31 2    
    63   30   32 1    
    64   32   33 1    
    65   32   34 1    
    66   32  155 1    
    67   33  156 1    
    68   33  157 1    
    69   33  158 1    
    70   34   35 am   BACKBONE|DICT|INTERRES
    71   34  159 1    
    72   35   36 2    
    73   35   37 1    
    74   37   38 1    
    75   37   39 1    
    76   37  160 1    
    77   38  161 1    
    78   38  162 1    
    79   38  163 1    
    80   39   40 am   BACKBONE|DICT|INTERRES
    81   39  164 1    
    82   40   41 2    
    83   40   42 1    
    84   42   43 1    
    85   42   44 1    
    86   42  165 1    
    87   43  166 1    
    88   43  167 1    
    89   43  168 1    
    90   44   45 am   BACKBONE|DICT|INTERRES
    91   44  169 1    
    92   45   46 2    
    93   45   47 1    
    94   47   48 1    
    95   47   49 1    
    96   47  170 1    
    97   48  171 1    
    98   48  172 1    
    99   48  173 1    
   100   49   50 am   BACKBONE|DICT|INTERRES
   101   49  174 1    
   102   50   51 2    
   103   50   52 1    
   104   52   53 1    
   105   52   54 1    
   106   52  175 1    
   107   53  176 1    
   108   53  177 1    
   109   53  178 1    
   110   54   55 am   BACKBONE|DICT|INTERRES
   111   54  179 1    
   112   55   56 2    
   113   55   57 1    
   114   57   58 1    
   115   57   59 1    
   116   57  180 1    
   117   58  181 1    
   118   58  182 1    
   119   58  183 1    
   120   59   60 am   BACKBONE|DICT|INTERRES
   121   59  184 1    
   122   60   61 2    
   123   60   62 1    
   124   62   63 1    
   125   62   64 1    
   126   62  185 1    
   127   63  186 1    
   128   63  187 1    
   129   63  188 1    
   130   64   65 am   BACKBONE|DICT|INTERRES
   131   64  189 1    
   132   65   66 2    
   133   67   68 2    
   134   67   69 am   BACKBONE|DICT|INTERRES
   135   69   70 1    
   136   69  190 1    
   137   70   71 1    
   138   70   72 1    
   139   70  191 1    
   140   71  192 1    
   141   71  193 1    
   142   71  194 1    
   143   72   73 2    
   144   72   74 am   BACKBONE|DICT|INTERRES
   145   74   75 1    
   146   74  195 1    
   147   75   76 1    
   148   75   77 1    
   149   75  196 1    
   150   76  197 1    
   151   76  198 1    
   152   76  199 1    
   153   77   78 2    
   154   77   79 am   BACKBONE|DICT|INTERRES
   155   79   80 1    
   156   79  200 1    
   157   80   81 1    
   158   80   82 1    
   159   80  201 1    
   160   81  202 1    
   161   81  203 1    
   162   81  204 1    
   163   82   83 2    
   164   82   84 am   BACKBONE|DICT|INTERRES
   165   84   85 1    
   166   84  205 1    
   167   85   86 1    
   168   85   87 1    
   169   85  206 1    
   170   86  207 1    
   171   86  208 1    
   172   86  209 1    
   173   87   88 2    
   174   87   89 am   BACKBONE|DICT|INTERRES
   175   89   90 1    
   176   89  210 1    
   177   90   91 1    
   178   90   92 1    
   179   90  211 1    
   180   91  212 1    
   181   91  213 1    
   182   91  214 1    
   183   92   93 2    
   184   92   94 am   BACKBONE|DICT|INTERRES
   185   94   95 1    
   186   94  215 1    
   187   95   96 1    
   188   95   97 1    
   189   95  216 1    
   190   96  217 1    
   191   96  218 1    
   192   96  219 1    
   193   97   98 2    
   194   97   99 am   BACKBONE|DICT|INTERRES
   195   99  100 1    
   196   99  220 1    
   197  100  101 1    
   198  100  102 1    
   199  100  221 1    
   200  101  222 1    
   201  101  223 1    
   202  101  224 1    
   203  102  103 2    
   204  102  104 am   BACKBONE|DICT|INTERRES
   205  104  105 1    
   206  104  225 1    
   207  105  106 1    
   208  105  107 1    
   209  105  226 1    
   210  106  227 1    
   211  106  228 1    
   212  106  229 1    
   213  107  108 2    
   214  107  109 am   BACKBONE|DICT|INTERRES
   215  109  110 1    
   216  109  230 1    
   217  110  111 1    
   218  110  112 1    
   219  110  231 1    
   220  111  232 1    
   221  111  233 1    
   222  111  234 1    
   223  112  113 2    
   224  112  114 am   BACKBONE|DICT|INTERRES
   225  114  115 1    
   226  114  235 1    
   227  115  116 1    
   228  115  117 1    
   229  115  236 1    
   230  116  237 1    
   231  116  238 1    
   232  116  239 1    
   233  117  118 2    
   234  117  119 am   BACKBONE|DICT|INTERRES
   235  119  120 1    
   236  119  240 1    
   237  120  121 1    
   238  120  124 1    
   239  120  241 1    
   240  121  122 am   BACKBONE|DICT|INTERRES
   241  121  123 2    
   242  122  242 1    
   243  122  243 1    
   244  124  125 1    
   245  124  244 1    
   246  124  245 1    
   247  125  126 1    
   248  126  246 1    
   249  126  247 1    
@<TRIPOS>SUBSTRUCTURE
     1 UNK         1 GROUP             0       ****    0 ROOT    
