@<TRIPOS>MOLECULE
3R540
247   249    1
SMALL
USER_CHARGES


@<TRIPOS>ATOM
      1 CA          2.1909  -16.1711  -50.5603 C.3       0 UNK        -0.1800 
      2 C           1.0492  -15.4774  -49.8353 C.2       0 UNK         0.5000 
      3 O           1.2505  -14.3985  -49.2777 O.2       0 UNK        -0.5000 
      4 N          -0.1504  -16.0756  -49.8607 N.am      1 UNK        -0.5000 
      5 CA         -1.3898  -15.5934  -49.2319 C.3       1 UNK         0.1400 
      6 C6         -2.5703  -16.5701  -49.4700 C.3       23 UNK        -0.0398 
      7 S7         -2.5717  -17.9746  -48.3090 S.3       23 UNK        -0.2404 
      8 C8         -2.1380  -19.3842  -49.3763 C.3       23 UNK        -0.0205 
      9 C9         -0.6559  -19.4595  -49.7217 C.ar      23 UNK        -0.0193 
     10 C10        -0.2632  -19.7888  -51.0198 C.ar      23 UNK        -0.1150 
     11 C11         1.0902  -19.8952  -51.3513 C.ar      23 UNK        -0.0193 
     12 C12         2.0589  -19.7042  -50.3606 C.ar      23 UNK        -0.1150 
     13 C13         1.6818  -19.3784  -49.0542 C.ar      23 UNK        -0.0193 
     14 C14         0.3244  -19.2464  -48.7486 C.ar      23 UNK        -0.1150 
     15 C15         2.7374  -19.1271  -47.9842 C.3       23 UNK        -0.0205 
     16 S16         3.2822  -20.6516  -47.1399 S.3       23 UNK        -0.2404 
     17 C17         1.8014  -21.1327  -46.1903 C.3       23 UNK        -0.0398 
     18 CA          1.6117  -22.6675  -46.1491 C.3       11 UNK         0.1400 
     19 N           2.3914  -23.2826  -45.0721 N.am      11 UNK        -0.5000 
     20 C           2.5761  -24.5987  -44.9078 C.2       10 UNK         0.5000 
     21 O           2.1408  -25.4540  -45.6777 O.2       10 UNK        -0.5000 
     22 CA          3.3270  -25.0273  -43.6343 C.3       10 UNK         0.1400 
     23 CB          4.8409  -24.8257  -43.7987 C.3       10 UNK        -0.1800 
     24 N           2.8628  -24.3037  -42.4483 N.am      10 UNK        -0.5000 
     25 C           1.6386  -24.4340  -41.9170 C.2       9 UNK         0.5000 
     26 O           0.7883  -25.2129  -42.3466 O.2       9 UNK        -0.5000 
     27 CA          1.2898  -23.5124  -40.7313 C.3       9 UNK         0.1400 
     28 CB          1.7254  -24.1550  -39.4060 C.3       9 UNK        -0.1800 
     29 N           1.8605  -22.1638  -40.8264 N.am      9 UNK        -0.5000 
     30 C           1.6395  -21.3038  -41.8296 C.2       8 UNK         0.5000 
     31 O           0.9798  -21.5815  -42.8328 O.2       8 UNK        -0.5000 
     32 CA          2.3206  -19.9280  -41.7173 C.3       8 UNK         0.1400 
     33 CB          3.8102  -20.0449  -42.0790 C.3       8 UNK        -0.1800 
     34 N           1.7065  -18.9448  -42.6096 N.am      8 UNK        -0.5000 
     35 C           0.5020  -18.3843  -42.4372 C.2       7 UNK         0.5000 
     36 O          -0.1857  -18.5435  -41.4254 O.2       7 UNK        -0.5000 
     37 CA          0.0437  -17.4518  -43.5793 C.3       7 UNK         0.1400 
     38 CB          0.0878  -18.1451  -44.9575 C.3       7 UNK        -0.1800 
     39 N          -1.2600  -16.8173  -43.3759 N.am      7 UNK        -0.5000 
     40 C          -2.4681  -17.3973  -43.3075 C.2       6 UNK         0.5000 
     41 O          -2.6650  -18.6113  -43.3746 O.2       6 UNK        -0.5000 
     42 CA         -3.6765  -16.4480  -43.1613 C.3       6 UNK         0.1400 
     43 CB         -4.0837  -16.3173  -41.6856 C.3       6 UNK        -0.1800 
     44 N          -3.4297  -15.1097  -43.7071 N.am      6 UNK        -0.5000 
     45 C          -3.3138  -14.8285  -45.0126 C.2       5 UNK         0.5000 
     46 O          -3.4856  -15.6572  -45.9051 O.2       5 UNK        -0.5000 
     47 CA         -2.9230  -13.3878  -45.3985 C.3       5 UNK         0.1400 
     48 CB         -3.2153  -12.3377  -44.3029 C.3       5 UNK        -0.1800 
     49 N          -1.5250  -13.3132  -45.8330 N.am      5 UNK        -0.5000 
     50 C          -0.4334  -13.6265  -45.1172 C.2       4 UNK         0.5000 
     51 O          -0.4701  -14.0170  -43.9490 O.2       4 UNK        -0.5000 
     52 CA          0.9369  -13.4953  -45.8104 C.3       4 UNK         0.1400 
     53 CB          1.5433  -14.8803  -46.0866 C.3       4 UNK        -0.1800 
     54 N           0.8984  -12.7489  -47.0680 N.am      4 UNK        -0.5000 
     55 C           0.8609  -11.4134  -47.1664 C.2       3 UNK         0.5000 
     56 O           0.7660  -10.6614  -46.1960 O.2       3 UNK        -0.5000 
     57 CA          0.9549  -10.8148  -48.5792 C.3       3 UNK         0.1400 
     58 CB          2.4250  -10.7054  -49.0136 C.3       3 UNK        -0.1800 
     59 N           0.2324  -11.6272  -49.5576 N.am      3 UNK        -0.5000 
     60 C          -0.8595  -11.2320  -50.2262 C.2       2 UNK         0.5000 
     61 O          -1.3745  -10.1194  -50.1062 O.2       2 UNK        -0.5000 
     62 CA         -1.4880  -12.2501  -51.2007 C.3       2 UNK         0.1400 
     63 CB         -0.8711  -12.0616  -52.5957 C.3       2 UNK        -0.1800 
     64 N          -1.3309  -13.6465  -50.7789 N.am      2 UNK        -0.5000 
     65 C          -1.7926  -14.1515  -49.6235 C.2       1 UNK         0.5000 
     66 O          -2.4865  -13.5042  -48.8388 O.2       1 UNK        -0.5000 
     67 C           0.1198  -23.0357  -46.0409 C.2       11 UNK         0.5000 
     68 O          -0.4863  -23.3913  -47.0494 O.2       11 UNK        -0.5000 
     69 N          -0.4338  -22.9841  -44.8226 N.am      12 UNK        -0.5000 
     70 CA         -1.8181  -23.3507  -44.5223 C.3       12 UNK         0.1400 
     71 CB         -2.1361  -22.9808  -43.0665 C.3       12 UNK        -0.1800 
     72 C          -2.1306  -24.8358  -44.7911 C.2       12 UNK         0.5000 
     73 O          -3.2662  -25.1558  -45.1368 O.2       12 UNK        -0.5000 
     74 N          -1.1277  -25.7115  -44.6447 N.am      13 UNK        -0.5000 
     75 CA         -1.2123  -27.1227  -45.0099 C.3       13 UNK         0.1400 
     76 CB         -0.1386  -27.9158  -44.2484 C.3       13 UNK        -0.1800 
     77 C          -1.0772  -27.3294  -46.5296 C.2       13 UNK         0.5000 
     78 O          -1.8829  -28.0530  -47.1160 O.2       13 UNK        -0.5000 
     79 N          -0.0581  -26.7046  -47.1373 N.am      14 UNK        -0.5000 
     80 CA          0.2844  -26.8546  -48.5535 C.3       14 UNK         0.1400 
     81 CB          1.6735  -26.2490  -48.8078 C.3       14 UNK        -0.1800 
     82 C          -0.7500  -26.2388  -49.5121 C.2       14 UNK         0.5000 
     83 O          -1.0686  -26.8487  -50.5336 O.2       14 UNK        -0.5000 
     84 N          -1.2518  -25.0490  -49.1676 N.am      15 UNK        -0.5000 
     85 CA         -2.2068  -24.2668  -49.9452 C.3       15 UNK         0.1400 
     86 CB         -1.5431  -22.9450  -50.3690 C.3       15 UNK        -0.1800 
     87 C          -3.4859  -24.0598  -49.1194 C.2       15 UNK         0.5000 
     88 O          -3.9507  -22.9299  -48.9542 O.2       15 UNK        -0.5000 
     89 N          -4.0500  -25.1747  -48.6327 N.am      16 UNK        -0.5000 
     90 CA         -5.2552  -25.2469  -47.7959 C.3       16 UNK         0.1400 
     91 CB         -5.4750  -26.7079  -47.3740 C.3       16 UNK        -0.1800 
     92 C          -6.5344  -24.6698  -48.4368 C.2       16 UNK         0.5000 
     93 O          -7.4846  -24.3581  -47.7182 O.2       16 UNK        -0.5000 
     94 N          -6.5277  -24.5054  -49.7662 N.am      17 UNK        -0.5000 
     95 CA         -7.5521  -23.8025  -50.5388 C.3       17 UNK         0.1400 
     96 CB         -7.3402  -24.1207  -52.0279 C.3       17 UNK        -0.1800 
     97 C          -7.5640  -22.2734  -50.3137 C.2       17 UNK         0.5000 
     98 O          -8.5247  -21.6260  -50.7312 O.2       17 UNK        -0.5000 
     99 N          -6.5092  -21.7271  -49.6828 N.am      18 UNK        -0.5000 
    100 CA        -6.2601  -20.3049  -49.4247 C.3       18 UNK         0.1400 
    101 CB        -7.3197  -19.7092  -48.4746 C.3       18 UNK        -0.1800 
    102 C         -6.1035  -19.5226  -50.7417 C.2       18 UNK         0.5000 
    103 O         -6.8439  -18.5730  -51.0056 O.2       18 UNK        -0.5000 
    104 N         -5.1543  -19.9866  -51.5656 N.am      19 UNK        -0.5000 
    105 CA        -4.8167  -19.4630  -52.8879 C.3       19 UNK         0.1400 
    106 CB        -3.8836  -20.4688  -53.5857 C.3       19 UNK        -0.1800 
    107 C         -4.2030  -18.0490  -52.8289 C.2       19 UNK         0.5000 
    108 O         -2.9875  -17.8932  -52.9478 O.2       19 UNK        -0.5000 
    109 N         -5.0620  -17.0370  -52.6583 N.am      20 UNK        -0.5000 
    110 CA        -4.7294  -15.6102  -52.5703 C.3       20 UNK         0.1400 
    111 CB        -5.9952  -14.8348  -52.1752 C.3       20 UNK        -0.1800 
    112 C         -4.0902  -15.0059  -53.8385 C.2       20 UNK         0.5000 
    113 O         -3.5922  -13.8831  -53.7807 O.2       20 UNK        -0.5000 
    114 N         -4.1006  -15.7494  -54.9529 N.am      21 UNK        -0.5000 
    115 CA        -3.3580  -15.4333  -56.1736 C.3       21 UNK         0.1400 
    116 CB        -3.9068  -16.2930  -57.3228 C.3       21 UNK        -0.1800 
    117 C         -1.8356  -15.6431  -56.0220 C.2       21 UNK         0.5000 
    118 O         -1.0691  -15.0447  -56.7778 O.2       21 UNK        -0.5000 
    119 N         -1.4245  -16.4879  -55.0661 N.am      22 UNK        -0.5000 
    120 CA        -0.0264  -16.7256  -54.6922 C.3       22 UNK         0.1400 
    121 C          0.5564  -15.5058  -53.9289 C.2       22 UNK         0.5000 
    122 N          1.6653  -14.9396  -54.3839 N.am      22 UNK        -0.7600 
    123 O          0.0223  -15.0941  -52.9029 O.2       22 UNK        -0.5000 
    124 C124        0.0833  -18.0192  -53.8503 C.3       23 UNK        -0.0398 
    125 S125        1.7757  -18.6961  -53.7609 S.3       23 UNK        -0.2404 
    126 C126        1.5005  -20.2097  -52.7824 C.3       23 UNK        -0.0205 
    127 H127        2.9049  -16.5739  -49.8430 H         1 UNK         0.0600 
    128 H128        2.7111  -15.4619  -51.2039 H         1 UNK         0.0600 
    129 H129        1.8288  -16.9851  -51.1869 H         1 UNK         0.0600 
    130 H130       -0.2307  -16.9635  -50.3351 H         1 UNK         0.3000 
    131 H131       -1.1932  -15.5526  -48.1584 H         1 UNK         0.0600 
    132 H132       -2.5693  -16.9303  -50.4983 H         1 UNK         0.0800 
    133 H133       -3.5328  -16.0745  -49.3263 H         1 UNK         0.0800 
    134 H134       -2.4153  -20.3034  -48.8585 H         1 UNK         0.0800 
    135 H135       -2.7442  -19.3454  -50.2810 H         1 UNK         0.0800 
    136 H136       -1.0131  -19.9547  -51.7801 H         1 UNK         0.1150 
    137 H137        3.1069  -19.7896  -50.6109 H         1 UNK         0.1150 
    138 H138        0.0246  -18.9769  -47.7472 H         1 UNK         0.1150 
    139 H139        3.6093  -18.6586  -48.4429 H         1 UNK         0.0800 
    140 H140        2.3697  -18.4106  -47.2492 H         1 UNK         0.0800 
    141 H141        0.9317  -20.6544  -46.6321 H         1 UNK         0.0800 
    142 H142        1.8780  -20.7196  -45.1846 H         1 UNK         0.0800 
    143 H143        1.9615  -23.0890  -47.0943 H         1 UNK         0.0600 
    144 H144        2.7393  -22.6581  -44.3608 H         1 UNK         0.3000 
    145 H145        3.1393  -26.0920  -43.4793 H         1 UNK         0.0600 
    146 H146        5.3844  -25.2006  -42.9312 H         1 UNK         0.0600 
    147 H147        5.2129  -25.3642  -44.6714 H         1 UNK         0.0600 
    148 H148        5.0987  -23.7738  -43.9274 H         1 UNK         0.0600 
    149 H149        3.5019  -23.6435  -42.0313 H         1 UNK         0.3000 
    150 H150        0.2040  -23.4041  -40.7117 H         1 UNK         0.0600 
    151 H151        2.8098  -24.2536  -39.3430 H         1 UNK         0.0600 
    152 H152        1.2980  -25.1528  -39.2966 H         1 UNK         0.0600 
    153 H153        1.3908  -23.5654  -38.5523 H         1 UNK         0.0600 
    154 H154        2.4313  -21.8667  -40.0481 H         1 UNK         0.3000 
    155 H155        2.2285  -19.5747  -40.6882 H         1 UNK         0.0600 
    156 H156        3.9512  -20.4023  -43.1002 H         1 UNK         0.0600 
    157 H157        4.3257  -20.7393  -41.4143 H         1 UNK         0.0600 
    158 H158        4.3138  -19.0821  -41.9893 H         1 UNK         0.0600 
    159 H159        2.2080  -18.7552  -43.4636 H         1 UNK         0.3000 
    160 H160        0.7569  -16.6290  -43.5893 H         1 UNK         0.0600 
    161 H161       -0.4751  -19.0795  -44.9581 H         1 UNK         0.0600 
    162 H162        1.1115  -18.3746  -45.2478 H         1 UNK         0.0600 
    163 H163       -0.3297  -17.5057  -45.7358 H         1 UNK         0.0600 
    164 H164       -1.2253  -15.8046  -43.3233 H         1 UNK         0.3000 
    165 H165       -4.5115  -16.8912  -43.7081 H         1 UNK         0.0600 
    166 H166       -4.9800  -15.7066  -41.5753 H         1 UNK         0.0600 
    167 H167       -4.3020  -17.2949  -41.2537 H         1 UNK         0.0600 
    168 H168       -3.2911  -15.8648  -41.0883 H         1 UNK         0.0600 
    169 H169       -3.2520  -14.3727  -43.0404 H         1 UNK         0.3000 
    170 H170       -3.5307  -13.1293  -46.2669 H         1 UNK         0.0600 
    171 H171       -4.2626  -12.3698  -43.9999 H         1 UNK         0.0600 
    172 H172       -2.6068  -12.4809  -43.4098 H         1 UNK         0.0600 
    173 H173       -3.0197  -11.3310  -44.6723 H         1 UNK         0.0600 
    174 H174       -1.3934  -13.0464  -46.7996 H         1 UNK         0.3000 
    175 H175        1.6014  -12.9698  -45.1212 H         1 UNK         0.0600 
    176 H176        0.8650  -15.5124  -46.6605 H         1 UNK         0.0600 
    177 H177        2.4769  -14.8007  -46.6440 H         1 UNK         0.0600 
    178 H178        1.7750  -15.3959  -45.1567 H         1 UNK         0.0600 
    179 H179        1.0097  -13.3058  -47.9136 H         1 UNK         0.3000 
    180 H180        0.5414   -9.8053  -48.5333 H         1 UNK         0.0600 
    181 H181        2.8990  -11.6856  -49.0827 H         1 UNK         0.0600 
    182 H182        3.0001  -10.1099  -48.3034 H         1 UNK         0.0600 
    183 H183        2.5113  -10.2232  -49.9874 H         1 UNK         0.0600 
    184 H184        0.5703  -12.5739  -49.6995 H         1 UNK         0.3000 
    185 H185       -2.5577  -12.0413  -51.2639 H         1 UNK         0.0600 
    186 H186       -1.0171  -11.0421  -52.9544 H         1 UNK         0.0600 
    187 H187        0.2018  -12.2579  -52.5886 H         1 UNK         0.0600 
    188 H188       -1.3231  -12.7288  -53.3279 H         1 UNK         0.0600 
    189 H189       -0.7790  -14.2406  -51.3950 H         1 UNK         0.3000 
    190 H190        0.1213  -22.6263  -44.0473 H         1 UNK         0.3000 
    191 H191       -2.4638  -22.7573  -45.1732 H         1 UNK         0.0600 
    192 H192       -1.9573  -21.9213  -42.8795 H         1 UNK         0.0600 
    193 H193       -3.1822  -23.1817  -42.8327 H         1 UNK         0.0600 
    194 H194       -1.5277  -23.5535  -42.3671 H         1 UNK         0.0600 
    195 H195       -0.2416  -25.3820  -44.2823 H         1 UNK         0.3000 
    196 H196       -2.1880  -27.5072  -44.7047 H         1 UNK         0.0600 
    197 H197       -0.1857  -28.9764  -44.4983 H         1 UNK         0.0600 
    198 H198       -0.2777  -27.8284  -43.1706 H         1 UNK         0.0600 
    199 H199        0.8675  -27.5668  -44.4821 H         1 UNK         0.0600 
    200 H200        0.5828  -26.1491  -46.5773 H         1 UNK         0.3000 
    201 H201        0.3393  -27.9232  -48.7712 H         1 UNK         0.0600 
    202 H202        1.9640  -26.3583  -49.8534 H         1 UNK         0.0600 
    203 H203        2.4354  -26.7440  -48.2054 H         1 UNK         0.0600 
    204 H204        1.6972  -25.1851  -48.5685 H         1 UNK         0.0600 
    205 H205       -0.9441  -24.6111  -48.2996 H         1 UNK         0.3000 
    206 H206       -2.5009  -24.7993  -50.8516 H         1 UNK         0.0600 
    207 H207       -0.6651  -23.1260  -50.9891 H         1 UNK         0.0600 
    208 H208       -2.2277  -22.3255  -50.9491 H         1 UNK         0.0600 
    209 H209       -1.2218  -22.3656  -49.5033 H         1 UNK         0.0600 
    210 H210       -3.5815  -26.0526  -48.8071 H         1 UNK         0.3000 
    211 H211       -5.0676  -24.6520  -46.9014 H         1 UNK         0.0600 
    212 H212       -5.6379  -27.3553  -48.2364 H         1 UNK         0.0600 
    213 H213       -6.3442  -26.8019  -46.7217 H         1 UNK         0.0600 
    214 H214       -4.6161  -27.0911  -46.8224 H         1 UNK         0.0600 
    215 H215       -5.7086  -24.8062  -50.2726 H         1 UNK         0.3000 
    216 H216       -8.5302  -24.1852  -50.2402 H         1 UNK         0.0600 
    217 H217       -8.1099  -23.6518  -52.6423 H         1 UNK         0.0600 
    218 H218       -7.3889  -25.1938  -52.2138 H         1 UNK         0.0600 
    219 H219       -6.3736  -23.7603  -52.3825 H         1 UNK         0.0600 
    220 H220       -5.7538  -22.3439  -49.3970 H         1 UNK         0.3000 
    221 H221       -5.2976  -20.2481  -48.9134 H         1 UNK         0.0600 
    222 H222       -8.3114  -19.6856  -48.9268 H         1 UNK         0.0600 
    223 H223       -7.3860  -20.2838  -47.5507 H         1 UNK         0.0600 
    224 H224       -7.0622  -18.6848  -48.2030 H         1 UNK         0.0600 
    225 H225       -4.6189  -20.7852  -51.2596 H         1 UNK         0.3000 
    226 H226       -5.7356  -19.4008  -53.4745 H         1 UNK         0.0600 
    227 H227       -4.3706  -21.4359  -53.7120 H         1 UNK         0.0600 
    228 H228       -3.6008  -20.1169  -54.5787 H         1 UNK         0.0600 
    229 H229       -2.9647  -20.6290  -53.0210 H         1 UNK         0.0600 
    230 H230       -6.0285  -17.2808  -52.4738 H         1 UNK         0.3000 
    231 H231       -3.9980  -15.4887  -51.7709 H         1 UNK         0.0600 
    232 H232       -6.7750  -14.9287  -52.9318 H         1 UNK         0.0600 
    233 H233       -5.7830  -13.7720  -52.0507 H         1 UNK         0.0600 
    234 H234       -6.3992  -15.1960  -51.2290 H         1 UNK         0.0600 
    235 H235       -4.5556  -16.6488  -54.9180 H         1 UNK         0.3000 
    236 H236       -3.5252  -14.3827  -56.4203 H         1 UNK         0.0600 
    237 H237       -4.9697  -16.1089  -57.4809 H         1 UNK         0.0600 
    238 H238       -3.3960  -16.0648  -58.2593 H         1 UNK         0.0600 
    239 H239       -3.7745  -17.3580  -57.1278 H         1 UNK         0.0600 
    240 H240       -2.1133  -16.9032  -54.4479 H         1 UNK         0.3000 
    241 H241        0.5378  -16.8712  -55.6157 H         1 UNK         0.0600 
    242 H242        2.1200  -15.2693  -55.2208 H         1 UNK         0.3800 
    243 H243        2.0521  -14.1547  -53.8858 H         1 UNK         0.3800 
    244 H244       -0.2922  -17.8382  -52.8431 H         1 UNK         0.0800 
    245 H245       -0.5537  -18.7962  -54.2760 H         1 UNK         0.0800 
    246 H246        0.7434  -20.8272  -53.2683 H         1 UNK         0.0800 
    247 H247        2.4179  -20.8000  -52.7803 H         1 UNK         0.0800 
@<TRIPOS>BOND
     1    1    2 1    
     2    1  127 1    
     3    1  128 1    
     4    1  129 1    
     5    2    3 2    
     6    2    4 am   BACKBONE|DICT|INTERRES
     7    4    5 1    
     8    4  130 1    
     9    5    6 1    
    10    5   65 1    
    11    5  131 1    
    12    6    7 1    
    13    6  132 1    
    14    6  133 1    
    15    7    8 1    
    16    8    9 1    
    17    8  134 1    
    18    8  135 1    
    19    9   10 ar   
    20    9   14 ar   
    21   10   11 ar   
    22   10  136 1    
    23   11   12 ar   
    24   11  126 1    
    25   12   13 ar   
    26   12  137 1    
    27   13   14 ar   
    28   13   15 1    
    29   14  138 1    
    30   15   16 1    
    31   15  139 1    
    32   15  140 1    
    33   16   17 1    
    34   17   18 1    
    35   17  141 1    
    36   17  142 1    
    37   18   19 1    
    38   18   67 1    
    39   18  143 1    
    40   19   20 am   BACKBONE|DICT|INTERRES
    41   19  144 1    
    42   20   21 2    
    43   20   22 1    
    44   22   23 1    
    45   22   24 1    
    46   22  145 1    
    47   23  146 1    
    48   23  147 1    
    49   23  148 1    
    50   24   25 am   BACKBONE|DICT|INTERRES
    51   24  149 1    
    52   25   26 2    
    53   25   27 1    
    54   27   28 1    
    55   27   29 1    
    56   27  150 1    
    57   28  151 1    
    58   28  152 1    
    59   28  153 1    
    60   29   30 am   BACKBONE|DICT|INTERRES
    61   29  154 1    
    62   30   31 2    
    63   30   32 1    
    64   32   33 1    
    65   32   34 1    
    66   32  155 1    
    67   33  156 1    
    68   33  157 1    
    69   33  158 1    
    70   34   35 am   BACKBONE|DICT|INTERRES
    71   34  159 1    
    72   35   36 2    
    73   35   37 1    
    74   37   38 1    
    75   37   39 1    
    76   37  160 1    
    77   38  161 1    
    78   38  162 1    
    79   38  163 1    
    80   39   40 am   BACKBONE|DICT|INTERRES
    81   39  164 1    
    82   40   41 2    
    83   40   42 1    
    84   42   43 1    
    85   42   44 1    
    86   42  165 1    
    87   43  166 1    
    88   43  167 1    
    89   43  168 1    
    90   44   45 am   BACKBONE|DICT|INTERRES
    91   44  169 1    
    92   45   46 2    
    93   45   47 1    
    94   47   48 1    
    95   47   49 1    
    96   47  170 1    
    97   48  171 1    
    98   48  172 1    
    99   48  173 1    
   100   49   50 am   BACKBONE|DICT|INTERRES
   101   49  174 1    
   102   50   51 2    
   103   50   52 1    
   104   52   53 1    
   105   52   54 1    
   106   52  175 1    
   107   53  176 1    
   108   53  177 1    
   109   53  178 1    
   110   54   55 am   BACKBONE|DICT|INTERRES
   111   54  179 1    
   112   55   56 2    
   113   55   57 1    
   114   57   58 1    
   115   57   59 1    
   116   57  180 1    
   117   58  181 1    
   118   58  182 1    
   119   58  183 1    
   120   59   60 am   BACKBONE|DICT|INTERRES
   121   59  184 1    
   122   60   61 2    
   123   60   62 1    
   124   62   63 1    
   125   62   64 1    
   126   62  185 1    
   127   63  186 1    
   128   63  187 1    
   129   63  188 1    
   130   64   65 am   BACKBONE|DICT|INTERRES
   131   64  189 1    
   132   65   66 2    
   133   67   68 2    
   134   67   69 am   BACKBONE|DICT|INTERRES
   135   69   70 1    
   136   69  190 1    
   137   70   71 1    
   138   70   72 1    
   139   70  191 1    
   140   71  192 1    
   141   71  193 1    
   142   71  194 1    
   143   72   73 2    
   144   72   74 am   BACKBONE|DICT|INTERRES
   145   74   75 1    
   146   74  195 1    
   147   75   76 1    
   148   75   77 1    
   149   75  196 1    
   150   76  197 1    
   151   76  198 1    
   152   76  199 1    
   153   77   78 2    
   154   77   79 am   BACKBONE|DICT|INTERRES
   155   79   80 1    
   156   79  200 1    
   157   80   81 1    
   158   80   82 1    
   159   80  201 1    
   160   81  202 1    
   161   81  203 1    
   162   81  204 1    
   163   82   83 2    
   164   82   84 am   BACKBONE|DICT|INTERRES
   165   84   85 1    
   166   84  205 1    
   167   85   86 1    
   168   85   87 1    
   169   85  206 1    
   170   86  207 1    
   171   86  208 1    
   172   86  209 1    
   173   87   88 2    
   174   87   89 am   BACKBONE|DICT|INTERRES
   175   89   90 1    
   176   89  210 1    
   177   90   91 1    
   178   90   92 1    
   179   90  211 1    
   180   91  212 1    
   181   91  213 1    
   182   91  214 1    
   183   92   93 2    
   184   92   94 am   BACKBONE|DICT|INTERRES
   185   94   95 1    
   186   94  215 1    
   187   95   96 1    
   188   95   97 1    
   189   95  216 1    
   190   96  217 1    
   191   96  218 1    
   192   96  219 1    
   193   97   98 2    
   194   97   99 am   BACKBONE|DICT|INTERRES
   195   99  100 1    
   196   99  220 1    
   197  100  101 1    
   198  100  102 1    
   199  100  221 1    
   200  101  222 1    
   201  101  223 1    
   202  101  224 1    
   203  102  103 2    
   204  102  104 am   BACKBONE|DICT|INTERRES
   205  104  105 1    
   206  104  225 1    
   207  105  106 1    
   208  105  107 1    
   209  105  226 1    
   210  106  227 1    
   211  106  228 1    
   212  106  229 1    
   213  107  108 2    
   214  107  109 am   BACKBONE|DICT|INTERRES
   215  109  110 1    
   216  109  230 1    
   217  110  111 1    
   218  110  112 1    
   219  110  231 1    
   220  111  232 1    
   221  111  233 1    
   222  111  234 1    
   223  112  113 2    
   224  112  114 am   BACKBONE|DICT|INTERRES
   225  114  115 1    
   226  114  235 1    
   227  115  116 1    
   228  115  117 1    
   229  115  236 1    
   230  116  237 1    
   231  116  238 1    
   232  116  239 1    
   233  117  118 2    
   234  117  119 am   BACKBONE|DICT|INTERRES
   235  119  120 1    
   236  119  240 1    
   237  120  121 1    
   238  120  124 1    
   239  120  241 1    
   240  121  122 am   BACKBONE|DICT|INTERRES
   241  121  123 2    
   242  122  242 1    
   243  122  243 1    
   244  124  125 1    
   245  124  244 1    
   246  124  245 1    
   247  125  126 1    
   248  126  246 1    
   249  126  247 1    
@<TRIPOS>SUBSTRUCTURE
     1 UNK         1 GROUP             0       ****    0 ROOT    
