@<TRIPOS>MOLECULE
3R540
247   249    1
SMALL
USER_CHARGES


@<TRIPOS>ATOM
      1 CA          3.3560  -11.5544  -48.7513 C.3       0 UNK        -0.1800 
      2 C           2.0980  -12.3945  -48.5924 C.2       0 UNK         0.5000 
      3 O           1.4220  -12.2961  -47.5697 O.2       0 UNK        -0.5000 
      4 N           1.7705  -13.2081  -49.6060 N.am      1 UNK        -0.5000 
      5 CA          0.6499  -14.1643  -49.6366 C.3       1 UNK         0.1400 
      6 C6          0.7390  -15.1060  -50.8616 C.3       23 UNK        -0.0398 
      7 S7          2.1741  -16.2279  -50.7729 S.3       23 UNK        -0.2404 
      8 C8          1.5217  -17.4910  -49.6345 C.3       23 UNK        -0.0205 
      9 C9          2.0486  -18.8821  -49.9456 C.ar      23 UNK        -0.0193 
     10 C10         1.7058  -19.5014  -51.1498 C.ar      23 UNK        -0.1150 
     11 C11         2.1632  -20.7899  -51.4523 C.ar      23 UNK        -0.0193 
     12 C12         2.9383  -21.4674  -50.5055 C.ar      23 UNK        -0.1150 
     13 C13         3.2773  -20.8692  -49.2876 C.ar      23 UNK        -0.0193 
     14 C14         2.8419  -19.5666  -49.0217 C.ar      23 UNK        -0.1150 
     15 C15         4.1236  -21.6395  -48.2770 C.3       23 UNK        -0.0205 
     16 S16         3.4702  -21.5855  -46.5735 S.3       23 UNK        -0.2404 
     17 C17         1.7956  -22.2860  -46.7692 C.3       23 UNK        -0.0398 
     18 CA          1.5733  -23.5990  -45.9717 C.3       11 UNK         0.1400 
     19 N           1.8500  -23.4149  -44.5459 N.am      11 UNK        -0.5000 
     20 C           2.1948  -24.3627  -43.6654 C.2       10 UNK         0.5000 
     21 O           2.2959  -25.5532  -43.9671 O.2       10 UNK        -0.5000 
     22 CA          2.4132  -23.9226  -42.1999 C.3       10 UNK         0.1400 
     23 CB          3.6913  -24.5336  -41.5900 C.3       10 UNK        -0.1800 
     24 N           2.3584  -22.4666  -42.0013 N.am      10 UNK        -0.5000 
     25 C           3.2235  -21.5325  -42.4225 C.2       9 UNK         0.5000 
     26 O           4.2879  -21.7886  -42.9857 O.2       9 UNK        -0.5000 
     27 CA          2.7780  -20.0670  -42.2244 C.3       9 UNK         0.1400 
     28 CB          3.8166  -19.0612  -42.7474 C.3       9 UNK        -0.1800 
     29 N           1.4878  -19.7950  -42.8707 N.am      9 UNK        -0.5000 
     30 C           0.2870  -20.1352  -42.3761 C.2       8 UNK         0.5000 
     31 O           0.1538  -20.7414  -41.3116 O.2       8 UNK        -0.5000 
     32 CA         -0.9640  -19.7871  -43.2044 C.3       8 UNK         0.1400 
     33 CB         -2.1266  -19.2973  -42.3230 C.3       8 UNK        -0.1800 
     34 N          -0.6776  -18.7785  -44.2232 N.am      8 UNK        -0.5000 
     35 C          -0.8251  -18.9611  -45.5409 C.2       7 UNK         0.5000 
     36 O          -1.2370  -20.0042  -46.0444 O.2       7 UNK        -0.5000 
     37 CA         -0.4429  -17.7971  -46.4723 C.3       7 UNK         0.1400 
     38 CB         -1.6945  -17.0383  -46.9365 C.3       7 UNK        -0.1800 
     39 N           0.5335  -16.8465  -45.9272 N.am      7 UNK        -0.5000 
     40 C           1.8027  -17.1649  -45.6247 C.2       6 UNK         0.5000 
     41 O           2.2304  -18.3173  -45.6372 O.2       6 UNK        -0.5000 
     42 CA          2.7516  -16.0194  -45.2427 C.3       6 UNK         0.1400 
     43 CB          3.1324  -15.2018  -46.4834 C.3       6 UNK        -0.1800 
     44 N           2.1248  -15.1489  -44.2526 N.am      6 UNK        -0.5000 
     45 C           2.5557  -14.9985  -42.9923 C.2       5 UNK         0.5000 
     46 O           3.6343  -15.4252  -42.5799 O.2       5 UNK        -0.5000 
     47 CA          1.6228  -14.2644  -42.0057 C.3       5 UNK         0.1400 
     48 CB          2.0895  -12.8140  -41.8066 C.3       5 UNK        -0.1800 
     49 N           0.2133  -14.2517  -42.4024 N.am      5 UNK        -0.5000 
     50 C          -0.5563  -15.3247  -42.6373 C.2       4 UNK         0.5000 
     51 O          -0.1782  -16.4857  -42.4884 O.2       4 UNK        -0.5000 
     52 CA         -1.9627  -15.0547  -43.2064 C.3       4 UNK         0.1400 
     53 CB         -3.0150  -15.1188  -42.0902 C.3       4 UNK        -0.1800 
     54 N          -2.0737  -13.7669  -43.9021 N.am      4 UNK        -0.5000 
     55 C          -1.3860  -13.4096  -44.9964 C.2       3 UNK         0.5000 
     56 O          -0.5857  -14.1512  -45.5771 O.2       3 UNK        -0.5000 
     57 CA         -1.5593  -11.9480  -45.4359 C.3       3 UNK         0.1400 
     58 CB         -0.4892  -11.0746  -44.7613 C.3       3 UNK        -0.1800 
     59 N          -1.4144  -11.8234  -46.8815 N.am      3 UNK        -0.5000 
     60 C          -2.4007  -11.5091  -47.7340 C.2       2 UNK         0.5000 
     61 O          -3.5564  -11.2693  -47.3810 O.2       2 UNK        -0.5000 
     62 CA         -2.0505  -11.4380  -49.2373 C.3       2 UNK         0.1400 
     63 CB         -1.8575   -9.9781  -49.6758 C.3       2 UNK        -0.1800 
     64 N          -0.8476  -12.1950  -49.5809 N.am      2 UNK        -0.5000 
     65 C          -0.7566  -13.5300  -49.5364 C.2       1 UNK         0.5000 
     66 O          -1.7345  -14.2624  -49.3896 O.2       1 UNK        -0.5000 
     67 C           0.1397  -24.1399  -46.1643 C.2       11 UNK         0.5000 
     68 O          -0.6829  -23.4763  -46.7929 O.2       11 UNK        -0.5000 
     69 N          -0.1547  -25.3163  -45.5933 N.am      12 UNK        -0.5000 
     70 CA         -1.4926  -25.9144  -45.4929 C.3       12 UNK         0.1400 
     71 CB         -1.3817  -27.2841  -44.8074 C.3       12 UNK        -0.1800 
     72 C          -2.2531  -26.0377  -46.8284 C.2       12 UNK         0.5000 
     73 O          -3.4561  -25.7763  -46.8714 O.2       12 UNK        -0.5000 
     74 N          -1.5259  -26.3885  -47.8979 N.am      13 UNK        -0.5000 
     75 CA         -2.0493  -26.4989  -49.2610 C.3       13 UNK         0.1400 
     76 CB         -0.9978  -27.1827  -50.1478 C.3       13 UNK        -0.1800 
     77 C          -2.4696  -25.1463  -49.8691 C.2       13 UNK         0.5000 
     78 O          -3.3896  -25.1143  -50.6868 O.2       13 UNK        -0.5000 
     79 N          -1.8036  -24.0592  -49.4557 N.am      14 UNK        -0.5000 
     80 CA         -2.1586  -22.6917  -49.8249 C.3       14 UNK         0.1400 
     81 CB         -0.9200  -21.7850  -49.7402 C.3       14 UNK        -0.1800 
     82 C          -3.2826  -22.1731  -48.9182 C.2       14 UNK         0.5000 
     83 O          -4.2616  -21.6285  -49.4268 O.2       14 UNK        -0.5000 
     84 N          -3.1382  -22.3831  -47.6017 N.am      15 UNK        -0.5000 
     85 CA         -4.0478  -21.9366  -46.5434 C.3       15 UNK         0.1400 
     86 CB         -3.5251  -22.4216  -45.1828 C.3       15 UNK        -0.1800 
     87 C          -5.4988  -22.4025  -46.7437 C.2       15 UNK         0.5000 
     88 O          -6.4221  -21.6153  -46.5355 O.2       15 UNK        -0.5000 
     89 N          -5.6663  -23.6483  -47.2100 N.am      16 UNK        -0.5000 
     90 CA         -6.9501  -24.2623  -47.5595 C.3       16 UNK         0.1400 
     91 CB         -6.7019  -25.7261  -47.9548 C.3       16 UNK        -0.1800 
     92 C          -7.7273  -23.5317  -48.6763 C.2       16 UNK         0.5000 
     93 O          -8.9480  -23.6773  -48.7505 O.2       16 UNK        -0.5000 
     94 N          -7.0182  -22.7608  -49.5102 N.am      17 UNK        -0.5000 
     95 CA         -7.5658  -21.9532  -50.5987 C.3       17 UNK         0.1400 
     96 CB         -6.8878  -22.3961  -51.9069 C.3       17 UNK        -0.1800 
     97 C          -7.3523  -20.4453  -50.3595 C.2       17 UNK         0.5000 
     98 O          -7.5617  -19.6625  -51.2855 O.2       17 UNK        -0.5000 
     99 N          -6.8879  -20.0540  -49.1605 N.am      18 UNK        -0.5000 
    100 CA        -6.4807  -18.6936  -48.7748 C.3       18 UNK         0.1400 
    101 CB        -7.7180  -17.7845  -48.6294 C.3       18 UNK        -0.1800 
    102 C         -5.4003  -18.0926  -49.7075 C.2       18 UNK         0.5000 
    103 O         -5.4109  -16.8921  -49.9814 O.2       18 UNK        -0.5000 
    104 N         -4.5151  -18.9670  -50.2072 N.am      19 UNK        -0.5000 
    105 CA        -3.4545  -18.7471  -51.1931 C.3       19 UNK         0.1400 
    106 CB        -2.3865  -17.7696  -50.6678 C.3       19 UNK        -0.1800 
    107 C         -3.9399  -18.3898  -52.6142 C.2       19 UNK         0.5000 
    108 O         -3.1004  -18.1211  -53.4757 O.2       19 UNK        -0.5000 
    109 N         -5.2534  -18.4605  -52.8843 N.am      20 UNK        -0.5000 
    110 CA        -5.8346  -18.2005  -54.2077 C.3       20 UNK         0.1400 
    111 CB        -7.3600  -18.0705  -54.0896 C.3       20 UNK        -0.1800 
    112 C         -5.4632  -19.2732  -55.2502 C.2       20 UNK         0.5000 
    113 O         -5.4078  -18.9687  -56.4418 O.2       20 UNK        -0.5000 
    114 N         -5.1850  -20.4978  -54.7797 N.am      21 UNK        -0.5000 
    115 CA        -4.6536  -21.5980  -55.5862 C.3       21 UNK         0.1400 
    116 CB        -4.8538  -22.9193  -54.8277 C.3       21 UNK        -0.1800 
    117 C         -3.1667  -21.4065  -55.9481 C.2       21 UNK         0.5000 
    118 O         -2.7205  -21.9432  -56.9628 O.2       21 UNK        -0.5000 
    119 N         -2.4321  -20.6550  -55.1168 N.am      22 UNK        -0.5000 
    120 CA        -1.0364  -20.2656  -55.3535 C.3       22 UNK         0.1400 
    121 C         -0.9416  -19.0182  -56.2740 C.2       22 UNK         0.5000 
    122 N         -1.7016  -17.9644  -55.9993 N.am      22 UNK        -0.7600 
    123 O         -0.1914  -19.0106  -57.2460 O.2       22 UNK        -0.5000 
    124 C124       -0.2759  -20.0466  -54.0186 C.3       23 UNK        -0.0398 
    125 S125        1.5123  -20.3832  -54.1864 S.3       23 UNK        -0.2404 
    126 C126        1.8323  -21.4943  -52.7704 C.3       23 UNK        -0.0205 
    127 H127        3.8434  -11.7306  -49.7104 H         1 UNK         0.0600 
    128 H128        3.1105  -10.4947  -48.6824 H         1 UNK         0.0600 
    129 H129        4.0658  -11.7935  -47.9594 H         1 UNK         0.0600 
    130 H130        2.3715  -13.2341  -50.4176 H         1 UNK         0.3000 
    131 H131        0.7369  -14.7791  -48.7390 H         1 UNK         0.0600 
    132 H132        0.8111  -14.5241  -51.7818 H         1 UNK         0.0800 
    133 H133       -0.1609  -15.7131  -50.9704 H         1 UNK         0.0800 
    134 H134        0.4335  -17.5220  -49.6796 H         1 UNK         0.0800 
    135 H135        1.7808  -17.1978  -48.6175 H         1 UNK         0.0800 
    136 H136        1.0886  -18.9589  -51.8486 H         1 UNK         0.1150 
    137 H137        3.2824  -22.4694  -50.7208 H         1 UNK         0.1150 
    138 H138        3.1038  -19.0967  -48.0841 H         1 UNK         0.1150 
    139 H139        4.2232  -22.6848  -48.5734 H         1 UNK         0.0800 
    140 H140        5.1310  -21.2219  -48.2778 H         1 UNK         0.0800 
    141 H141        1.6003  -22.4595  -47.8282 H         1 UNK         0.0800 
    142 H142        1.0856  -21.5183  -46.4554 H         1 UNK         0.0800 
    143 H143        2.2592  -24.3505  -46.3681 H         1 UNK         0.0600 
    144 H144        1.7983  -22.4653  -44.2112 H         1 UNK         0.3000 
    145 H145        1.5654  -24.3246  -41.6435 H         1 UNK         0.0600 
    146 H146        3.8307  -24.2101  -40.5585 H         1 UNK         0.0600 
    147 H147        3.6364  -25.6228  -41.5825 H         1 UNK         0.0600 
    148 H148        4.5838  -24.2602  -42.1529 H         1 UNK         0.0600 
    149 H149        1.5072  -22.1205  -41.5657 H         1 UNK         0.3000 
    150 H150        2.6744  -19.9023  -41.1499 H         1 UNK         0.0600 
    151 H151        4.7697  -19.1764  -42.2302 H         1 UNK         0.0600 
    152 H152        3.4820  -18.0380  -42.5868 H         1 UNK         0.0600 
    153 H153        4.0034  -19.1904  -43.8141 H         1 UNK         0.0600 
    154 H154        1.5310  -19.3421  -43.7762 H         1 UNK         0.3000 
    155 H155       -1.2751  -20.7225  -43.6702 H         1 UNK         0.0600 
    156 H156       -1.8503  -18.4173  -41.7425 H         1 UNK         0.0600 
    157 H157       -2.4374  -20.0695  -41.6184 H         1 UNK         0.0600 
    158 H158       -2.9978  -19.0421  -42.9265 H         1 UNK         0.0600 
    159 H159       -0.3290  -17.8920  -43.8710 H         1 UNK         0.3000 
    160 H160        0.0075  -18.2590  -47.3518 H         1 UNK         0.0600 
    161 H161       -1.4479  -16.3177  -47.7152 H         1 UNK         0.0600 
    162 H162       -2.1685  -16.4966  -46.1198 H         1 UNK         0.0600 
    163 H163       -2.4390  -17.7202  -47.3498 H         1 UNK         0.0600 
    164 H164        0.2316  -15.8773  -45.8807 H         1 UNK         0.3000 
    165 H165        3.6633  -16.4695  -44.8440 H         1 UNK         0.0600 
    166 H166        3.8249  -14.3986  -46.2316 H         1 UNK         0.0600 
    167 H167        3.6132  -15.8277  -47.2364 H         1 UNK         0.0600 
    168 H168        2.2523  -14.7541  -46.9401 H         1 UNK         0.0600 
    169 H169        1.2324  -14.7447  -44.5075 H         1 UNK         0.3000 
    170 H170        1.6899  -14.7848  -41.0483 H         1 UNK         0.0600 
    171 H171        3.1294  -12.7788  -41.4791 H         1 UNK         0.0600 
    172 H172        2.0167  -12.2386  -42.7305 H         1 UNK         0.0600 
    173 H173        1.4945  -12.3075  -41.0464 H         1 UNK         0.0600 
    174 H174       -0.1955  -13.3423  -42.5544 H         1 UNK         0.3000 
    175 H175       -2.1807  -15.8474  -43.9227 H         1 UNK         0.0600 
    176 H176       -4.0229  -15.0125  -42.4915 H         1 UNK         0.0600 
    177 H177       -2.9746  -16.0764  -41.5692 H         1 UNK         0.0600 
    178 H178       -2.8633  -14.3345  -41.3476 H         1 UNK         0.0600 
    179 H179       -2.6988  -13.0931  -43.4830 H         1 UNK         0.3000 
    180 H180       -2.5429  -11.5987  -45.1154 H         1 UNK         0.0600 
    181 H181        0.5193  -11.3998  -45.0221 H         1 UNK         0.0600 
    182 H182       -0.5764  -11.1109  -43.6749 H         1 UNK         0.0600 
    183 H183       -0.5894  -10.0308  -45.0592 H         1 UNK         0.0600 
    184 H184       -0.4929  -12.0552  -47.2434 H         1 UNK         0.3000 
    185 H185       -2.8922  -11.8559  -49.7937 H         1 UNK         0.0600 
    186 H186       -1.0198   -9.5101  -49.1570 H         1 UNK         0.0600 
    187 H187       -1.6712   -9.9088  -50.7477 H         1 UNK         0.0600 
    188 H188       -2.7480   -9.3852  -49.4629 H         1 UNK         0.0600 
    189 H189        0.0046  -11.6663  -49.6954 H         1 UNK         0.3000 
    190 H190        0.5872  -25.7760  -45.0760 H         1 UNK         0.3000 
    191 H191       -2.0820  -25.2644  -44.8447 H         1 UNK         0.0600 
    192 H192       -0.9510  -27.1923  -43.8101 H         1 UNK         0.0600 
    193 H193       -0.7577  -27.9711  -45.3803 H         1 UNK         0.0600 
    194 H194       -2.3634  -27.7466  -44.6950 H         1 UNK         0.0600 
    195 H195       -0.5423  -26.5750  -47.7689 H         1 UNK         0.3000 
    196 H196       -2.9368  -27.1347  -49.2307 H         1 UNK         0.0600 
    197 H197       -1.3663  -27.3046  -51.1673 H         1 UNK         0.0600 
    198 H198       -0.7503  -28.1759  -49.7725 H         1 UNK         0.0600 
    199 H199       -0.0756  -26.6025  -50.1993 H         1 UNK         0.0600 
    200 H200       -1.1204  -24.1591  -48.7156 H         1 UNK         0.3000 
    201 H201       -2.5148  -22.6776  -50.8574 H         1 UNK         0.0600 
    202 H202       -0.0941  -22.1962  -50.3190 H         1 UNK         0.0600 
    203 H203       -0.5743  -21.6533  -48.7148 H         1 UNK         0.0600 
    204 H204       -1.1322  -20.7918  -50.1357 H         1 UNK         0.0600 
    205 H205       -2.2714  -22.8131  -47.2842 H         1 UNK         0.3000 
    206 H206       -4.0359  -20.8449  -46.5500 H         1 UNK         0.0600 
    207 H207       -2.4744  -22.1704  -45.0476 H         1 UNK         0.0600 
    208 H208       -4.0808  -21.9609  -44.3655 H         1 UNK         0.0600 
    209 H209       -3.6223  -23.5019  -45.0784 H         1 UNK         0.0600 
    210 H210       -4.8442  -24.2332  -47.3190 H         1 UNK         0.3000 
    211 H211       -7.5767  -24.2483  -46.6657 H         1 UNK         0.0600 
    212 H212       -6.0353  -25.8005  -48.8154 H         1 UNK         0.0600 
    213 H213       -7.6348  -26.2280  -48.2148 H         1 UNK         0.0600 
    214 H214       -6.2516  -26.2849  -47.1341 H         1 UNK         0.0600 
    215 H215       -6.0177  -22.6744  -49.3658 H         1 UNK         0.3000 
    216 H216       -8.6414  -22.1099  -50.6972 H         1 UNK         0.0600 
    217 H217       -7.2940  -21.8602  -52.7657 H         1 UNK         0.0600 
    218 H218       -7.0422  -23.4597  -52.0892 H         1 UNK         0.0600 
    219 H219       -5.8125  -22.2155  -51.8793 H         1 UNK         0.0600 
    220 H220       -6.7524  -20.7632  -48.4493 H         1 UNK         0.3000 
    221 H221       -6.0161  -18.7821  -47.7917 H         1 UNK         0.0600 
    222 H222       -8.2062  -17.6097  -49.5887 H         1 UNK         0.0600 
    223 H223       -8.4523  -18.2245  -47.9546 H         1 UNK         0.0600 
    224 H224       -7.4441  -16.8119  -48.2191 H         1 UNK         0.0600 
    225 H225       -4.6032  -19.9354  -49.9015 H         1 UNK         0.3000 
    226 H226       -2.9680  -19.7164  -51.3043 H         1 UNK         0.0600 
    227 H227       -1.9917  -18.1040  -49.7094 H         1 UNK         0.0600 
    228 H228       -2.7818  -16.7617  -50.5382 H         1 UNK         0.0600 
    229 H229       -1.5435  -17.7049  -51.3565 H         1 UNK         0.0600 
    230 H230       -5.9036  -18.7104  -52.1467 H         1 UNK         0.3000 
    231 H231       -5.4413  -17.2455  -54.5624 H         1 UNK         0.0600 
    232 H232       -7.6389  -17.3342  -53.3355 H         1 UNK         0.0600 
    233 H233       -7.8262  -19.0194  -53.8229 H         1 UNK         0.0600 
    234 H234       -7.7962  -17.7496  -55.0363 H         1 UNK         0.0600 
    235 H235       -5.2853  -20.6613  -53.7896 H         1 UNK         0.3000 
    236 H236       -5.2184  -21.6509  -56.5195 H         1 UNK         0.0600 
    237 H237       -4.4754  -23.7627  -55.4067 H         1 UNK         0.0600 
    238 H238       -4.3318  -22.9198  -53.8699 H         1 UNK         0.0600 
    239 H239       -5.9103  -23.1083  -54.6380 H         1 UNK         0.0600 
    240 H240       -2.8995  -20.1814  -54.3584 H         1 UNK         0.3000 
    241 H241       -0.5536  -21.0929  -55.8784 H         1 UNK         0.0600 
    242 H242       -1.6592  -17.1517  -56.5928 H         1 UNK         0.3800 
    243 H243       -2.2869  -17.9528  -55.1680 H         1 UNK         0.3800 
    244 H244       -0.4207  -19.0345  -53.6366 H         1 UNK         0.0800 
    245 H245       -0.6796  -20.7068  -53.2502 H         1 UNK         0.0800 
    246 H246        2.6753  -22.1281  -53.0500 H         1 UNK         0.0800 
    247 H247        0.9885  -22.1686  -52.6207 H         1 UNK         0.0800 
@<TRIPOS>BOND
     1    1    2 1    
     2    1  127 1    
     3    1  128 1    
     4    1  129 1    
     5    2    3 2    
     6    2    4 am   BACKBONE|DICT|INTERRES
     7    4    5 1    
     8    4  130 1    
     9    5    6 1    
    10    5   65 1    
    11    5  131 1    
    12    6    7 1    
    13    6  132 1    
    14    6  133 1    
    15    7    8 1    
    16    8    9 1    
    17    8  134 1    
    18    8  135 1    
    19    9   10 ar   
    20    9   14 ar   
    21   10   11 ar   
    22   10  136 1    
    23   11   12 ar   
    24   11  126 1    
    25   12   13 ar   
    26   12  137 1    
    27   13   14 ar   
    28   13   15 1    
    29   14  138 1    
    30   15   16 1    
    31   15  139 1    
    32   15  140 1    
    33   16   17 1    
    34   17   18 1    
    35   17  141 1    
    36   17  142 1    
    37   18   19 1    
    38   18   67 1    
    39   18  143 1    
    40   19   20 am   BACKBONE|DICT|INTERRES
    41   19  144 1    
    42   20   21 2    
    43   20   22 1    
    44   22   23 1    
    45   22   24 1    
    46   22  145 1    
    47   23  146 1    
    48   23  147 1    
    49   23  148 1    
    50   24   25 am   BACKBONE|DICT|INTERRES
    51   24  149 1    
    52   25   26 2    
    53   25   27 1    
    54   27   28 1    
    55   27   29 1    
    56   27  150 1    
    57   28  151 1    
    58   28  152 1    
    59   28  153 1    
    60   29   30 am   BACKBONE|DICT|INTERRES
    61   29  154 1    
    62   30   31 2    
    63   30   32 1    
    64   32   33 1    
    65   32   34 1    
    66   32  155 1    
    67   33  156 1    
    68   33  157 1    
    69   33  158 1    
    70   34   35 am   BACKBONE|DICT|INTERRES
    71   34  159 1    
    72   35   36 2    
    73   35   37 1    
    74   37   38 1    
    75   37   39 1    
    76   37  160 1    
    77   38  161 1    
    78   38  162 1    
    79   38  163 1    
    80   39   40 am   BACKBONE|DICT|INTERRES
    81   39  164 1    
    82   40   41 2    
    83   40   42 1    
    84   42   43 1    
    85   42   44 1    
    86   42  165 1    
    87   43  166 1    
    88   43  167 1    
    89   43  168 1    
    90   44   45 am   BACKBONE|DICT|INTERRES
    91   44  169 1    
    92   45   46 2    
    93   45   47 1    
    94   47   48 1    
    95   47   49 1    
    96   47  170 1    
    97   48  171 1    
    98   48  172 1    
    99   48  173 1    
   100   49   50 am   BACKBONE|DICT|INTERRES
   101   49  174 1    
   102   50   51 2    
   103   50   52 1    
   104   52   53 1    
   105   52   54 1    
   106   52  175 1    
   107   53  176 1    
   108   53  177 1    
   109   53  178 1    
   110   54   55 am   BACKBONE|DICT|INTERRES
   111   54  179 1    
   112   55   56 2    
   113   55   57 1    
   114   57   58 1    
   115   57   59 1    
   116   57  180 1    
   117   58  181 1    
   118   58  182 1    
   119   58  183 1    
   120   59   60 am   BACKBONE|DICT|INTERRES
   121   59  184 1    
   122   60   61 2    
   123   60   62 1    
   124   62   63 1    
   125   62   64 1    
   126   62  185 1    
   127   63  186 1    
   128   63  187 1    
   129   63  188 1    
   130   64   65 am   BACKBONE|DICT|INTERRES
   131   64  189 1    
   132   65   66 2    
   133   67   68 2    
   134   67   69 am   BACKBONE|DICT|INTERRES
   135   69   70 1    
   136   69  190 1    
   137   70   71 1    
   138   70   72 1    
   139   70  191 1    
   140   71  192 1    
   141   71  193 1    
   142   71  194 1    
   143   72   73 2    
   144   72   74 am   BACKBONE|DICT|INTERRES
   145   74   75 1    
   146   74  195 1    
   147   75   76 1    
   148   75   77 1    
   149   75  196 1    
   150   76  197 1    
   151   76  198 1    
   152   76  199 1    
   153   77   78 2    
   154   77   79 am   BACKBONE|DICT|INTERRES
   155   79   80 1    
   156   79  200 1    
   157   80   81 1    
   158   80   82 1    
   159   80  201 1    
   160   81  202 1    
   161   81  203 1    
   162   81  204 1    
   163   82   83 2    
   164   82   84 am   BACKBONE|DICT|INTERRES
   165   84   85 1    
   166   84  205 1    
   167   85   86 1    
   168   85   87 1    
   169   85  206 1    
   170   86  207 1    
   171   86  208 1    
   172   86  209 1    
   173   87   88 2    
   174   87   89 am   BACKBONE|DICT|INTERRES
   175   89   90 1    
   176   89  210 1    
   177   90   91 1    
   178   90   92 1    
   179   90  211 1    
   180   91  212 1    
   181   91  213 1    
   182   91  214 1    
   183   92   93 2    
   184   92   94 am   BACKBONE|DICT|INTERRES
   185   94   95 1    
   186   94  215 1    
   187   95   96 1    
   188   95   97 1    
   189   95  216 1    
   190   96  217 1    
   191   96  218 1    
   192   96  219 1    
   193   97   98 2    
   194   97   99 am   BACKBONE|DICT|INTERRES
   195   99  100 1    
   196   99  220 1    
   197  100  101 1    
   198  100  102 1    
   199  100  221 1    
   200  101  222 1    
   201  101  223 1    
   202  101  224 1    
   203  102  103 2    
   204  102  104 am   BACKBONE|DICT|INTERRES
   205  104  105 1    
   206  104  225 1    
   207  105  106 1    
   208  105  107 1    
   209  105  226 1    
   210  106  227 1    
   211  106  228 1    
   212  106  229 1    
   213  107  108 2    
   214  107  109 am   BACKBONE|DICT|INTERRES
   215  109  110 1    
   216  109  230 1    
   217  110  111 1    
   218  110  112 1    
   219  110  231 1    
   220  111  232 1    
   221  111  233 1    
   222  111  234 1    
   223  112  113 2    
   224  112  114 am   BACKBONE|DICT|INTERRES
   225  114  115 1    
   226  114  235 1    
   227  115  116 1    
   228  115  117 1    
   229  115  236 1    
   230  116  237 1    
   231  116  238 1    
   232  116  239 1    
   233  117  118 2    
   234  117  119 am   BACKBONE|DICT|INTERRES
   235  119  120 1    
   236  119  240 1    
   237  120  121 1    
   238  120  124 1    
   239  120  241 1    
   240  121  122 am   BACKBONE|DICT|INTERRES
   241  121  123 2    
   242  122  242 1    
   243  122  243 1    
   244  124  125 1    
   245  124  244 1    
   246  124  245 1    
   247  125  126 1    
   248  126  246 1    
   249  126  247 1    
@<TRIPOS>SUBSTRUCTURE
     1 UNK         1 GROUP             0       ****    0 ROOT    
