@<TRIPOS>MOLECULE
3R540
247   249    1
SMALL
USER_CHARGES


@<TRIPOS>ATOM
      1 CA          3.0881  -14.6370  -45.2216 C.3       0 UNK        -0.1800 
      2 C           1.7269  -14.0939  -45.6291 C.2       0 UNK         0.5000 
      3 O           1.0934  -13.3919  -44.8425 O.2       0 UNK        -0.5000 
      4 N           1.2955  -14.3753  -46.8671 N.am      1 UNK        -0.5000 
      5 CA          0.0072  -13.9529  -47.4433 C.3       1 UNK         0.1400 
      6 C6         -0.2381  -14.5706  -48.8439 C.3       23 UNK        -0.0398 
      7 S7         -0.1817  -16.3961  -48.8868 S.3       23 UNK        -0.2404 
      8 C8          1.4006  -16.7096  -49.7377 C.3       23 UNK        -0.0205 
      9 C9          1.3669  -17.9988  -50.5471 C.ar      23 UNK        -0.0193 
     10 C10         1.4968  -17.9586  -51.9388 C.ar      23 UNK        -0.1150 
     11 C11         1.4950  -19.1379  -52.6954 C.ar      23 UNK        -0.0193 
     12 C12         1.3499  -20.3626  -52.0333 C.ar      23 UNK        -0.1150 
     13 C13         1.2225  -20.4210  -50.6412 C.ar      23 UNK        -0.0193 
     14 C14         1.2416  -19.2334  -49.9059 C.ar      23 UNK        -0.1150 
     15 C15         1.1151  -21.7677  -49.9349 C.3       23 UNK        -0.0205 
     16 S16        -0.5909  -22.1689  -49.4301 S.3       23 UNK        -0.2404 
     17 C17        -0.6124  -21.5894  -47.7020 C.3       23 UNK        -0.0398 
     18 CA         -0.2609  -22.7243  -46.7090 C.3       11 UNK         0.1400 
     19 N           0.5768  -22.2434  -45.6061 N.am      11 UNK        -0.5000 
     20 C           1.3768  -23.0213  -44.8610 C.2       10 UNK         0.5000 
     21 O           1.4204  -24.2467  -44.9819 O.2       10 UNK        -0.5000 
     22 CA          2.2313  -22.3281  -43.7789 C.3       10 UNK         0.1400 
     23 CB          3.5867  -23.0287  -43.5509 C.3       10 UNK        -0.1800 
     24 N           2.4047  -20.8880  -44.0007 N.am      10 UNK        -0.5000 
     25 C           3.0636  -20.2755  -44.9990 C.2       9 UNK         0.5000 
     26 O           3.6829  -20.8762  -45.8772 O.2       9 UNK        -0.5000 
     27 CA          2.9960  -18.7332  -45.0494 C.3       9 UNK         0.1400 
     28 CB          2.4778  -18.2525  -46.4153 C.3       9 UNK        -0.1800 
     29 N           2.1289  -18.1836  -44.0063 N.am      9 UNK        -0.5000 
     30 C           2.5204  -17.8435  -42.7705 C.2       8 UNK         0.5000 
     31 O           3.6926  -17.8585  -42.3960 O.2       8 UNK        -0.5000 
     32 CA          1.4087  -17.4575  -41.7747 C.3       8 UNK         0.1400 
     33 CB          1.2741  -15.9294  -41.6844 C.3       8 UNK        -0.1800 
     34 N           0.1091  -18.0469  -42.1180 N.am      8 UNK        -0.5000 
     35 C          -0.1798  -19.3550  -42.0163 C.2       7 UNK         0.5000 
     36 O           0.6145  -20.1888  -41.5830 O.2       7 UNK        -0.5000 
     37 CA         -1.5486  -19.8346  -42.5439 C.3       7 UNK         0.1400 
     38 CB         -2.5862  -19.8549  -41.4126 C.3       7 UNK        -0.1800 
     39 N          -2.0601  -19.0230  -43.6475 N.am      7 UNK        -0.5000 
     40 C          -1.4565  -18.8634  -44.8329 C.2       6 UNK         0.5000 
     41 O          -0.4686  -19.5142  -45.1763 O.2       6 UNK        -0.5000 
     42 CA         -2.0029  -17.7552  -45.7599 C.3       6 UNK         0.1400 
     43 CB         -2.7602  -18.3618  -46.9468 C.3       6 UNK        -0.1800 
     44 N          -2.8688  -16.7701  -45.0982 N.am      6 UNK        -0.5000 
     45 C          -2.4894  -15.9610  -44.1006 C.2       5 UNK         0.5000 
     46 O          -1.3750  -16.0103  -43.5765 O.2       5 UNK        -0.5000 
     47 CA         -3.5571  -14.9977  -43.5496 C.3       5 UNK         0.1400 
     48 CB         -4.4895  -15.7387  -42.5780 C.3       5 UNK        -0.1800 
     49 N          -2.9447  -13.8737  -42.8427 N.am      5 UNK        -0.5000 
     50 C          -2.2506  -12.8950  -43.4354 C.2       4 UNK         0.5000 
     51 O          -2.1905  -12.7565  -44.6582 O.2       4 UNK        -0.5000 
     52 CA         -1.5107  -11.9056  -42.5175 C.3       4 UNK         0.1400 
     53 CB         -1.1371  -12.4959  -41.1394 C.3       4 UNK        -0.1800 
     54 N          -0.3074  -11.4398  -43.1979 N.am      4 UNK        -0.5000 
     55 C           0.3202  -10.2829  -42.9648 C.2       3 UNK         0.5000 
     56 O          -0.0647   -9.4461  -42.1467 O.2       3 UNK        -0.5000 
     57 CA          1.5935  -10.0127  -43.7808 C.3       3 UNK         0.1400 
     58 CB          2.7951  -10.7439  -43.1599 C.3       3 UNK        -0.1800 
     59 N           1.4440  -10.4333  -45.1734 N.am      3 UNK        -0.5000 
     60 C           1.0531   -9.6303  -46.1727 C.2       2 UNK         0.5000 
     61 O           0.7493   -8.4470  -46.0154 O.2       2 UNK        -0.5000 
     62 CA          1.0197  -10.2274  -47.5937 C.3       2 UNK         0.1400 
     63 CB          2.2568   -9.7790  -48.3879 C.3       2 UNK        -0.1800 
     64 N           0.9734  -11.6896  -47.5901 N.am      2 UNK        -0.5000 
     65 C          -0.1517  -12.4157  -47.5358 C.2       1 UNK         0.5000 
     66 O          -1.2788  -11.9222  -47.5787 O.2       1 UNK        -0.5000 
     67 C          -1.5194  -23.4734  -46.2226 C.2       11 UNK         0.5000 
     68 O          -2.1752  -24.1389  -47.0238 O.2       11 UNK        -0.5000 
     69 N          -1.8196  -23.4007  -44.9171 N.am      12 UNK        -0.5000 
     70 CA         -2.8896  -24.1450  -44.2468 C.3       12 UNK         0.1400 
     71 CB         -2.9489  -23.7218  -42.7720 C.3       12 UNK        -0.1800 
     72 C          -2.7467  -25.6766  -44.3708 C.2       12 UNK         0.5000 
     73 O          -3.7585  -26.3771  -44.3758 O.2       12 UNK        -0.5000 
     74 N          -1.5089  -26.1642  -44.5476 N.am      13 UNK        -0.5000 
     75 CA         -1.1898  -27.5591  -44.8676 C.3       13 UNK         0.1400 
     76 CB          0.3319  -27.7496  -44.7810 C.3       13 UNK        -0.1800 
     77 C          -1.7114  -28.0097  -46.2505 C.2       13 UNK         0.5000 
     78 O          -1.9385  -29.2029  -46.4510 O.2       13 UNK        -0.5000 
     79 N          -1.9149  -27.0495  -47.1622 N.am      14 UNK        -0.5000 
     80 CA         -2.5207  -27.2242  -48.4823 C.3       14 UNK         0.1400 
     81 CB         -1.6118  -26.5491  -49.5269 C.3       14 UNK        -0.1800 
     82 C          -3.9468  -26.6345  -48.5202 C.2       14 UNK         0.5000 
     83 O          -4.4639  -26.3714  -49.6065 O.2       14 UNK        -0.5000 
     84 N          -4.5431  -26.3827  -47.3419 N.am      15 UNK        -0.5000 
     85 CA         -5.8573  -25.7648  -47.1153 C.3       15 UNK         0.1400 
     86 CB         -6.9809  -26.7145  -47.5794 C.3       15 UNK        -0.1800 
     87 C          -5.9954  -24.3481  -47.7191 C.2       15 UNK         0.5000 
     88 O          -7.1100  -23.9155  -48.0152 O.2       15 UNK        -0.5000 
     89 N          -4.8555  -23.6668  -47.9164 N.am      16 UNK        -0.5000 
     90 CA         -4.6773  -22.3869  -48.6072 C.3       16 UNK         0.1400 
     91 CB         -5.3550  -21.2389  -47.8329 C.3       16 UNK        -0.1800 
     92 C          -5.0691  -22.4141  -50.1017 C.2       16 UNK         0.5000 
     93 O          -5.2206  -21.3506  -50.7039 O.2       16 UNK        -0.5000 
     94 N          -5.1909  -23.6093  -50.7014 N.am      17 UNK        -0.5000 
     95 CA         -5.5539  -23.7854  -52.1094 C.3       17 UNK         0.1400 
     96 CB         -5.8651  -25.2634  -52.3851 C.3       17 UNK        -0.1800 
     97 C          -4.4611  -23.2708  -53.0602 C.2       17 UNK         0.5000 
     98 O          -4.7762  -22.6382  -54.0679 O.2       17 UNK        -0.5000 
     99 N          -3.1931  -23.5034  -52.6932 N.am      18 UNK        -0.5000 
    100 CA        -2.0302  -22.9911  -53.4157 C.3       18 UNK         0.1400 
    101 CB        -0.7637  -23.7227  -52.9491 C.3       18 UNK        -0.1800 
    102 C         -1.8827  -21.4630  -53.2921 C.2       18 UNK         0.5000 
    103 O         -1.4398  -20.8328  -54.2490 O.2       18 UNK        -0.5000 
    104 N         -2.2939  -20.8919  -52.1492 N.am      19 UNK        -0.5000 
    105 CA        -2.3350  -19.4467  -51.9142 C.3       19 UNK         0.1400 
    106 CB        -2.5011  -19.1470  -50.4181 C.3       19 UNK        -0.1800 
    107 C         -3.4422  -18.7639  -52.7329 C.2       19 UNK         0.5000 
    108 O         -3.2074  -17.6968  -53.2981 O.2       19 UNK        -0.5000 
    109 N         -4.6142  -19.4085  -52.8206 N.am      20 UNK        -0.5000 
    110 CA        -5.7404  -18.9726  -53.6485 C.3       20 UNK         0.1400 
    111 CB        -6.9746  -19.8256  -53.3186 C.3       20 UNK        -0.1800 
    112 C         -5.4251  -19.0216  -55.1568 C.2       20 UNK         0.5000 
    113 O         -5.8511  -18.1345  -55.8969 O.2       20 UNK        -0.5000 
    114 N         -4.6656  -20.0416  -55.5778 N.am      21 UNK        -0.5000 
    115 CA        -4.1900  -20.2231  -56.9506 C.3       21 UNK         0.1400 
    116 CB        -3.8387  -21.7057  -57.1525 C.3       21 UNK        -0.1800 
    117 C         -2.9825  -19.3328  -57.3159 C.2       21 UNK         0.5000 
    118 O         -2.6526  -19.2338  -58.4989 O.2       21 UNK        -0.5000 
    119 N         -2.3262  -18.7358  -56.3128 N.am      22 UNK        -0.5000 
    120 CA        -1.1205  -17.9056  -56.4490 C.3       22 UNK         0.1400 
    121 C         -1.3453  -16.6061  -57.2744 C.2       22 UNK         0.5000 
    122 N         -0.3422  -16.1539  -58.0146 N.am      22 UNK        -0.7600 
    123 O         -2.4034  -15.9826  -57.2209 O.2       22 UNK        -0.5000 
    124 C124       -0.5013  -17.5924  -55.0596 C.3       23 UNK        -0.0398 
    125 S125        1.3213  -17.5784  -55.0827 S.3       23 UNK        -0.2404 
    126 C126        1.7062  -19.1426  -54.2132 C.3       23 UNK        -0.0205 
    127 H127        3.6133  -15.0929  -46.0609 H         1 UNK         0.0600 
    128 H128        2.9738  -15.3853  -44.4390 H         1 UNK         0.0600 
    129 H129        3.7104  -13.8314  -44.8322 H         1 UNK         0.0600 
    130 H130        1.8653  -14.9518  -47.4675 H         1 UNK         0.3000 
    131 H131       -0.7754  -14.3122  -46.7709 H         1 UNK         0.0600 
    132 H132       -1.2278  -14.2844  -49.2051 H         1 UNK         0.0800 
    133 H133        0.4658  -14.1606  -49.5694 H         1 UNK         0.0800 
    134 H134        2.2026  -16.7667  -49.0017 H         1 UNK         0.0800 
    135 H135        1.6467  -15.8733  -50.3928 H         1 UNK         0.0800 
    136 H136        1.6206  -17.0026  -52.4256 H         1 UNK         0.1150 
    137 H137        1.3541  -21.2792  -52.6059 H         1 UNK         0.1150 
    138 H138        1.1591  -19.2629  -48.8316 H         1 UNK         0.1150 
    139 H139        1.7785  -21.7870  -49.0686 H         1 UNK         0.0800 
    140 H140        1.4688  -22.5605  -50.5955 H         1 UNK         0.0800 
    141 H141       -1.5924  -21.1639  -47.4870 H         1 UNK         0.0800 
    142 H142        0.0889  -20.7620  -47.6057 H         1 UNK         0.0800 
    143 H143        0.3382  -23.4667  -47.2414 H         1 UNK         0.0600 
    144 H144        0.5372  -21.2467  -45.4172 H         1 UNK         0.3000 
    145 H145        1.6622  -22.4191  -42.8530 H         1 UNK         0.0600 
    146 H146        4.1706  -22.5182  -42.7850 H         1 UNK         0.0600 
    147 H147        3.4436  -24.0566  -43.2157 H         1 UNK         0.0600 
    148 H148        4.1847  -23.0656  -44.4616 H         1 UNK         0.0600 
    149 H149        1.9321  -20.3015  -43.3247 H         1 UNK         0.3000 
    150 H150        4.0122  -18.3557  -44.9193 H         1 UNK         0.0600 
    151 H151        3.1349  -18.5775  -47.2229 H         1 UNK         0.0600 
    152 H152        2.4245  -17.1668  -46.4598 H         1 UNK         0.0600 
    153 H153        1.4820  -18.6383  -46.6279 H         1 UNK         0.0600 
    154 H154        1.1402  -18.1736  -44.2169 H         1 UNK         0.3000 
    155 H155        1.7013  -17.8305  -40.7909 H         1 UNK         0.0600 
    156 H156        1.0290  -15.4853  -42.6498 H         1 UNK         0.0600 
    157 H157        2.2061  -15.4751  -41.3462 H         1 UNK         0.0600 
    158 H158        0.4966  -15.6438  -40.9762 H         1 UNK         0.0600 
    159 H159       -0.5705  -17.4123  -42.5299 H         1 UNK         0.3000 
    160 H160       -1.4193  -20.8539  -42.9120 H         1 UNK         0.0600 
    161 H161       -2.7657  -18.8557  -41.0135 H         1 UNK         0.0600 
    162 H162       -2.2512  -20.4840  -40.5867 H         1 UNK         0.0600 
    163 H163       -3.5399  -20.2547  -41.7577 H         1 UNK         0.0600 
    164 H164       -2.8661  -18.4496  -43.4497 H         1 UNK         0.3000 
    165 H165       -1.1368  -17.2150  -46.1469 H         1 UNK         0.0600 
    166 H166       -3.1500  -17.5872  -47.6075 H         1 UNK         0.0600 
    167 H167       -3.5952  -18.9826  -46.6210 H         1 UNK         0.0600 
    168 H168       -2.0944  -18.9792  -47.5462 H         1 UNK         0.0600 
    169 H169       -3.8092  -16.6921  -45.4583 H         1 UNK         0.3000 
    170 H170       -4.1456  -14.6099  -44.3837 H         1 UNK         0.0600 
    171 H171       -5.0030  -16.5629  -43.0747 H         1 UNK         0.0600 
    172 H172       -3.9414  -16.1556  -41.7317 H         1 UNK         0.0600 
    173 H173       -5.2575  -15.0726  -42.1840 H         1 UNK         0.0600 
    174 H174       -2.9193  -13.9386  -41.8363 H         1 UNK         0.3000 
    175 H175       -2.1824  -11.0581  -42.3676 H         1 UNK         0.0600 
    176 H176       -0.5243  -13.3919  -41.2438 H         1 UNK         0.0600 
    177 H177       -0.5745  -11.7800  -40.5402 H         1 UNK         0.0600 
    178 H178       -2.0231  -12.7585  -40.5608 H         1 UNK         0.0600 
    179 H179        0.0609  -12.0771  -43.9013 H         1 UNK         0.3000 
    180 H180        1.7992   -8.9409  -43.7377 H         1 UNK         0.0600 
    181 H181        2.6566  -11.8257  -43.1591 H         1 UNK         0.0600 
    182 H182        2.9481  -10.4328  -42.1257 H         1 UNK         0.0600 
    183 H183        3.7136  -10.5245  -43.7045 H         1 UNK         0.0600 
    184 H184        1.5847  -11.4176  -45.3613 H         1 UNK         0.3000 
    185 H185        0.1345   -9.8331  -48.0975 H         1 UNK         0.0600 
    186 H186        2.2234  -10.1503  -49.4123 H         1 UNK         0.0600 
    187 H187        2.3149   -8.6909  -48.4401 H         1 UNK         0.0600 
    188 H188        3.1808  -10.1353  -47.9308 H         1 UNK         0.0600 
    189 H189        1.8591  -12.1738  -47.5781 H         1 UNK         0.3000 
    190 H190       -1.2252  -22.8355  -44.3310 H         1 UNK         0.3000 
    191 H191       -3.8329  -23.8678  -44.7220 H         1 UNK         0.0600 
    192 H192       -3.7316  -24.2647  -42.2403 H         1 UNK         0.0600 
    193 H193       -3.1737  -22.6599  -42.6765 H         1 UNK         0.0600 
    194 H194       -2.0068  -23.9161  -42.2579 H         1 UNK         0.0600 
    195 H195       -0.7301  -25.5193  -44.5388 H         1 UNK         0.3000 
    196 H196       -1.6605  -28.1948  -44.1149 H         1 UNK         0.0600 
    197 H197        0.8571  -27.1189  -45.4997 H         1 UNK         0.0600 
    198 H198        0.7046  -27.5046  -43.7862 H         1 UNK         0.0600 
    199 H199        0.6098  -28.7843  -44.9860 H         1 UNK         0.0600 
    200 H200       -1.7380  -26.0851  -46.9034 H         1 UNK         0.3000 
    201 H201       -2.6025  -28.2840  -48.7303 H         1 UNK         0.0600 
    202 H202       -1.5463  -25.4717  -49.3690 H         1 UNK         0.0600 
    203 H203       -1.9850  -26.7106  -50.5389 H         1 UNK         0.0600 
    204 H204       -0.6005  -26.9539  -49.4885 H         1 UNK         0.0600 
    205 H205       -4.0366  -26.6189  -46.4975 H         1 UNK         0.3000 
    206 H206       -5.9535  -25.6414  -46.0358 H         1 UNK         0.0600 
    207 H207       -6.8685  -27.7039  -47.1362 H         1 UNK         0.0600 
    208 H208       -7.9610  -26.3387  -47.2835 H         1 UNK         0.0600 
    209 H209       -6.9893  -26.8313  -48.6636 H         1 UNK         0.0600 
    210 H210       -3.9858  -24.1062  -47.6260 H         1 UNK         0.3000 
    211 H211       -3.6046  -22.1943  -48.5949 H         1 UNK         0.0600 
    212 H212       -5.1017  -20.2702  -48.2645 H         1 UNK         0.0600 
    213 H213       -5.0324  -21.2231  -46.7918 H         1 UNK         0.0600 
    214 H214       -6.4415  -21.3256  -47.8477 H         1 UNK         0.0600 
    215 H215       -5.0328  -24.4554  -50.1639 H         1 UNK         0.3000 
    216 H216       -6.4606  -23.2068  -52.2982 H         1 UNK         0.0600 
    217 H217       -4.9881  -25.8950  -52.2390 H         1 UNK         0.0600 
    218 H218       -6.2035  -25.4048  -53.4122 H         1 UNK         0.0600 
    219 H219       -6.6541  -25.6298  -51.7278 H         1 UNK         0.0600 
    220 H220       -3.0198  -24.0284  -51.8488 H         1 UNK         0.3000 
    221 H221       -2.1670  -23.2161  -54.4755 H         1 UNK         0.0600 
    222 H222        0.1218  -23.3329  -53.4526 H         1 UNK         0.0600 
    223 H223       -0.6057  -23.6203  -51.8775 H         1 UNK         0.0600 
    224 H224       -0.8219  -24.7876  -53.1744 H         1 UNK         0.0600 
    225 H225       -2.6485  -21.4822  -51.4132 H         1 UNK         0.3000 
    226 H226       -1.3790  -19.0235  -52.2238 H         1 UNK         0.0600 
    227 H227       -3.3946  -19.6077  -50.0004 H         1 UNK         0.0600 
    228 H228       -1.6414  -19.4991  -49.8522 H         1 UNK         0.0600 
    229 H229       -2.5743  -18.0729  -50.2436 H         1 UNK         0.0600 
    230 H230       -4.7522  -20.2482  -52.2660 H         1 UNK         0.3000 
    231 H231       -5.9645  -17.9359  -53.3894 H         1 UNK         0.0600 
    232 H232       -6.8097  -20.8789  -53.5461 H         1 UNK         0.0600 
    233 H233       -7.8412  -19.4969  -53.8934 H         1 UNK         0.0600 
    234 H234       -7.2352  -19.7496  -52.2627 H         1 UNK         0.0600 
    235 H235       -4.4220  -20.7697  -54.9150 H         1 UNK         0.3000 
    236 H236       -5.0011  -19.9706  -57.6367 H         1 UNK         0.0600 
    237 H237       -4.6971  -22.3464  -56.9498 H         1 UNK         0.0600 
    238 H238       -3.5242  -21.8994  -58.1787 H         1 UNK         0.0600 
    239 H239       -3.0259  -22.0163  -56.4952 H         1 UNK         0.0600 
    240 H240       -2.6698  -18.8701  -55.3726 H         1 UNK         0.3000 
    241 H241       -0.4158  -18.5264  -57.0061 H         1 UNK         0.0600 
    242 H242       -0.4658  -15.3055  -58.5452 H         1 UNK         0.3800 
    243 H243        0.5443  -16.6340  -58.0476 H         1 UNK         0.3800 
    244 H244       -0.8646  -16.6449  -54.6573 H         1 UNK         0.0800 
    245 H245       -0.8051  -18.3409  -54.3325 H         1 UNK         0.0800 
    246 H246        2.7522  -19.3851  -54.4033 H         1 UNK         0.0800 
    247 H247        1.1203  -19.9437  -54.6670 H         1 UNK         0.0800 
@<TRIPOS>BOND
     1    1    2 1    
     2    1  127 1    
     3    1  128 1    
     4    1  129 1    
     5    2    3 2    
     6    2    4 am   BACKBONE|DICT|INTERRES
     7    4    5 1    
     8    4  130 1    
     9    5    6 1    
    10    5   65 1    
    11    5  131 1    
    12    6    7 1    
    13    6  132 1    
    14    6  133 1    
    15    7    8 1    
    16    8    9 1    
    17    8  134 1    
    18    8  135 1    
    19    9   10 ar   
    20    9   14 ar   
    21   10   11 ar   
    22   10  136 1    
    23   11   12 ar   
    24   11  126 1    
    25   12   13 ar   
    26   12  137 1    
    27   13   14 ar   
    28   13   15 1    
    29   14  138 1    
    30   15   16 1    
    31   15  139 1    
    32   15  140 1    
    33   16   17 1    
    34   17   18 1    
    35   17  141 1    
    36   17  142 1    
    37   18   19 1    
    38   18   67 1    
    39   18  143 1    
    40   19   20 am   BACKBONE|DICT|INTERRES
    41   19  144 1    
    42   20   21 2    
    43   20   22 1    
    44   22   23 1    
    45   22   24 1    
    46   22  145 1    
    47   23  146 1    
    48   23  147 1    
    49   23  148 1    
    50   24   25 am   BACKBONE|DICT|INTERRES
    51   24  149 1    
    52   25   26 2    
    53   25   27 1    
    54   27   28 1    
    55   27   29 1    
    56   27  150 1    
    57   28  151 1    
    58   28  152 1    
    59   28  153 1    
    60   29   30 am   BACKBONE|DICT|INTERRES
    61   29  154 1    
    62   30   31 2    
    63   30   32 1    
    64   32   33 1    
    65   32   34 1    
    66   32  155 1    
    67   33  156 1    
    68   33  157 1    
    69   33  158 1    
    70   34   35 am   BACKBONE|DICT|INTERRES
    71   34  159 1    
    72   35   36 2    
    73   35   37 1    
    74   37   38 1    
    75   37   39 1    
    76   37  160 1    
    77   38  161 1    
    78   38  162 1    
    79   38  163 1    
    80   39   40 am   BACKBONE|DICT|INTERRES
    81   39  164 1    
    82   40   41 2    
    83   40   42 1    
    84   42   43 1    
    85   42   44 1    
    86   42  165 1    
    87   43  166 1    
    88   43  167 1    
    89   43  168 1    
    90   44   45 am   BACKBONE|DICT|INTERRES
    91   44  169 1    
    92   45   46 2    
    93   45   47 1    
    94   47   48 1    
    95   47   49 1    
    96   47  170 1    
    97   48  171 1    
    98   48  172 1    
    99   48  173 1    
   100   49   50 am   BACKBONE|DICT|INTERRES
   101   49  174 1    
   102   50   51 2    
   103   50   52 1    
   104   52   53 1    
   105   52   54 1    
   106   52  175 1    
   107   53  176 1    
   108   53  177 1    
   109   53  178 1    
   110   54   55 am   BACKBONE|DICT|INTERRES
   111   54  179 1    
   112   55   56 2    
   113   55   57 1    
   114   57   58 1    
   115   57   59 1    
   116   57  180 1    
   117   58  181 1    
   118   58  182 1    
   119   58  183 1    
   120   59   60 am   BACKBONE|DICT|INTERRES
   121   59  184 1    
   122   60   61 2    
   123   60   62 1    
   124   62   63 1    
   125   62   64 1    
   126   62  185 1    
   127   63  186 1    
   128   63  187 1    
   129   63  188 1    
   130   64   65 am   BACKBONE|DICT|INTERRES
   131   64  189 1    
   132   65   66 2    
   133   67   68 2    
   134   67   69 am   BACKBONE|DICT|INTERRES
   135   69   70 1    
   136   69  190 1    
   137   70   71 1    
   138   70   72 1    
   139   70  191 1    
   140   71  192 1    
   141   71  193 1    
   142   71  194 1    
   143   72   73 2    
   144   72   74 am   BACKBONE|DICT|INTERRES
   145   74   75 1    
   146   74  195 1    
   147   75   76 1    
   148   75   77 1    
   149   75  196 1    
   150   76  197 1    
   151   76  198 1    
   152   76  199 1    
   153   77   78 2    
   154   77   79 am   BACKBONE|DICT|INTERRES
   155   79   80 1    
   156   79  200 1    
   157   80   81 1    
   158   80   82 1    
   159   80  201 1    
   160   81  202 1    
   161   81  203 1    
   162   81  204 1    
   163   82   83 2    
   164   82   84 am   BACKBONE|DICT|INTERRES
   165   84   85 1    
   166   84  205 1    
   167   85   86 1    
   168   85   87 1    
   169   85  206 1    
   170   86  207 1    
   171   86  208 1    
   172   86  209 1    
   173   87   88 2    
   174   87   89 am   BACKBONE|DICT|INTERRES
   175   89   90 1    
   176   89  210 1    
   177   90   91 1    
   178   90   92 1    
   179   90  211 1    
   180   91  212 1    
   181   91  213 1    
   182   91  214 1    
   183   92   93 2    
   184   92   94 am   BACKBONE|DICT|INTERRES
   185   94   95 1    
   186   94  215 1    
   187   95   96 1    
   188   95   97 1    
   189   95  216 1    
   190   96  217 1    
   191   96  218 1    
   192   96  219 1    
   193   97   98 2    
   194   97   99 am   BACKBONE|DICT|INTERRES
   195   99  100 1    
   196   99  220 1    
   197  100  101 1    
   198  100  102 1    
   199  100  221 1    
   200  101  222 1    
   201  101  223 1    
   202  101  224 1    
   203  102  103 2    
   204  102  104 am   BACKBONE|DICT|INTERRES
   205  104  105 1    
   206  104  225 1    
   207  105  106 1    
   208  105  107 1    
   209  105  226 1    
   210  106  227 1    
   211  106  228 1    
   212  106  229 1    
   213  107  108 2    
   214  107  109 am   BACKBONE|DICT|INTERRES
   215  109  110 1    
   216  109  230 1    
   217  110  111 1    
   218  110  112 1    
   219  110  231 1    
   220  111  232 1    
   221  111  233 1    
   222  111  234 1    
   223  112  113 2    
   224  112  114 am   BACKBONE|DICT|INTERRES
   225  114  115 1    
   226  114  235 1    
   227  115  116 1    
   228  115  117 1    
   229  115  236 1    
   230  116  237 1    
   231  116  238 1    
   232  116  239 1    
   233  117  118 2    
   234  117  119 am   BACKBONE|DICT|INTERRES
   235  119  120 1    
   236  119  240 1    
   237  120  121 1    
   238  120  124 1    
   239  120  241 1    
   240  121  122 am   BACKBONE|DICT|INTERRES
   241  121  123 2    
   242  122  242 1    
   243  122  243 1    
   244  124  125 1    
   245  124  244 1    
   246  124  245 1    
   247  125  126 1    
   248  126  246 1    
   249  126  247 1    
@<TRIPOS>SUBSTRUCTURE
     1 UNK         1 GROUP             0       ****    0 ROOT    
