@<TRIPOS>MOLECULE
3R540
247   249    1
SMALL
USER_CHARGES


@<TRIPOS>ATOM
      1 CA          2.0779  -14.1538  -49.1809 C.3       0 UNK        -0.1800 
      2 C           1.1690  -13.8715  -47.9947 C.2       0 UNK         0.5000 
      3 O           1.5908  -14.0246  -46.8516 O.2       0 UNK        -0.5000 
      4 N          -0.0706  -13.4356  -48.2547 N.am      1 UNK        -0.5000 
      5 CA         -1.1137  -13.1754  -47.2492 C.3       1 UNK         0.1400 
      6 C6         -2.4943  -12.9781  -47.9293 C.3       23 UNK        -0.0398 
      7 S7         -3.9327  -13.5094  -46.9319 S.3       23 UNK        -0.2404 
      8 C8         -3.7127  -15.3126  -46.7305 C.3       23 UNK        -0.0205 
      9 C9         -3.3796  -16.0338  -48.0288 C.ar      23 UNK        -0.0193 
     10 C10        -4.3847  -16.3893  -48.9314 C.ar      23 UNK        -0.1150 
     11 C11        -4.0649  -17.0412  -50.1278 C.ar      23 UNK        -0.0193 
     12 C12        -2.7280  -17.3390  -50.4137 C.ar      23 UNK        -0.1150 
     13 C13        -1.7157  -17.0019  -49.5112 C.ar      23 UNK        -0.0193 
     14 C14        -2.0537  -16.3546  -48.3219 C.ar      23 UNK        -0.1150 
     15 C15        -0.2539  -17.2694  -49.8427 C.3       23 UNK        -0.0205 
     16 S16         0.6531  -18.0678  -48.4736 S.3       23 UNK        -0.2404 
     17 C17         0.6884  -19.8175  -48.9843 C.3       23 UNK        -0.0398 
     18 CA         -0.1346  -20.7952  -48.1129 C.3       11 UNK         0.1400 
     19 N           0.2824  -20.8432  -46.7053 N.am      11 UNK        -0.5000 
     20 C           0.2661  -21.9750  -45.9828 C.2       10 UNK         0.5000 
     21 O          -0.0568  -23.0708  -46.4417 O.2       10 UNK        -0.5000 
     22 CA          0.6526  -21.8871  -44.4952 C.3       10 UNK         0.1400 
     23 CB          2.1783  -21.9090  -44.3171 C.3       10 UNK        -0.1800 
     24 N           0.0903  -20.7249  -43.8118 N.am      10 UNK        -0.5000 
     25 C          -1.2194  -20.4884  -43.6562 C.2       9 UNK         0.5000 
     26 O          -2.1066  -21.2185  -44.0961 O.2       9 UNK        -0.5000 
     27 CA         -1.6023  -19.1962  -42.9161 C.3       9 UNK         0.1400 
     28 CB         -1.5608  -19.3967  -41.3937 C.3       9 UNK        -0.1800 
     29 N          -0.7407  -18.0770  -43.2912 N.am      9 UNK        -0.5000 
     30 C          -0.7453  -17.5063  -44.5032 C.2       8 UNK         0.5000 
     31 O          -1.4965  -17.8459  -45.4140 O.2       8 UNK        -0.5000 
     32 CA          0.2780  -16.3846  -44.7381 C.3       8 UNK         0.1400 
     33 CB         -0.2239  -15.0825  -44.0956 C.3       8 UNK        -0.1800 
     34 N           1.6074  -16.7034  -44.2161 N.am      8 UNK        -0.5000 
     35 C           2.3497  -17.7565  -44.5860 C.2       7 UNK         0.5000 
     36 O           2.0132  -18.5704  -45.4460 O.2       7 UNK        -0.5000 
     37 CA          3.6615  -17.9805  -43.8115 C.3       7 UNK         0.1400 
     38 CB          4.7848  -17.0806  -44.3437 C.3       7 UNK        -0.1800 
     39 N           3.5282  -17.7902  -42.3648 N.am      7 UNK        -0.5000 
     40 C           2.7027  -18.4769  -41.5658 C.2       6 UNK         0.5000 
     41 O           1.9152  -19.3262  -41.9833 O.2       6 UNK        -0.5000 
     42 CA          2.7324  -18.1807  -40.0526 C.3       6 UNK         0.1400 
     43 CB          3.6207  -19.2004  -39.3158 C.3       6 UNK        -0.1800 
     44 N           3.0768  -16.8043  -39.6687 N.am      6 UNK        -0.5000 
     45 C           4.2329  -16.1394  -39.7932 C.2       5 UNK         0.5000 
     46 O           5.2256  -16.5933  -40.3646 O.2       5 UNK        -0.5000 
     47 CA          4.2560  -14.7108  -39.2039 C.3       5 UNK         0.1400 
     48 CB          5.6697  -14.1024  -39.1859 C.3       5 UNK        -0.1800 
     49 N           3.3715  -13.8081  -39.9399 N.am      5 UNK        -0.5000 
     50 C           2.0325  -13.8135  -39.9095 C.2       4 UNK         0.5000 
     51 O           1.3762  -14.5327  -39.1540 O.2       4 UNK        -0.5000 
     52 CA          1.2946  -12.8858  -40.8980 C.3       4 UNK         0.1400 
     53 CB          0.7212  -11.6656  -40.1619 C.3       4 UNK        -0.1800 
     54 N           2.0908  -12.4138  -42.0368 N.am      4 UNK        -0.5000 
     55 C           2.6973  -13.1759  -42.9562 C.2       3 UNK         0.5000 
     56 O           2.7241  -14.4072  -42.9133 O.2       3 UNK        -0.5000 
     57 CA          3.3560  -12.4160  -44.1221 C.3       3 UNK         0.1400 
     58 CB          4.2756  -13.3077  -44.9736 C.3       3 UNK        -0.1800 
     59 N           2.3388  -11.8114  -44.9839 N.am      3 UNK        -0.5000 
     60 C           1.7478  -10.6284  -44.7560 C.2       2 UNK         0.5000 
     61 O           1.9883   -9.9399  -43.7626 O.2       2 UNK        -0.5000 
     62 CA          0.7327  -10.1092  -45.7963 C.3       2 UNK         0.1400 
     63 CB          1.3866   -9.0473  -46.6939 C.3       2 UNK        -0.1800 
     64 N           0.1779  -11.1627  -46.6457 N.am      2 UNK        -0.5000 
     65 C          -0.7674  -12.0324  -46.2640 C.2       1 UNK         0.5000 
     66 O          -1.3318  -11.9775  -45.1713 O.2       1 UNK        -0.5000 
     67 C          -1.6589  -20.6395  -48.2934 C.2       11 UNK         0.5000 
     68 O          -2.1645  -21.0036  -49.3542 O.2       11 UNK        -0.5000 
     69 N          -2.3783  -20.1562  -47.2696 N.am      12 UNK        -0.5000 
     70 CA         -3.8424  -20.1392  -47.2550 C.3       12 UNK         0.1400 
     71 CB         -4.3500  -19.2017  -46.1506 C.3       12 UNK        -0.1800 
     72 C          -4.4340  -21.5487  -47.0680 C.2       12 UNK         0.5000 
     73 O          -5.4245  -21.8801  -47.7216 O.2       12 UNK        -0.5000 
     74 N          -3.8177  -22.3506  -46.1846 N.am      13 UNK        -0.5000 
     75 CA         -4.1983  -23.7250  -45.8502 C.3       13 UNK         0.1400 
     76 CB         -3.2283  -24.2814  -44.7962 C.3       13 UNK        -0.1800 
     77 C          -4.2441  -24.6335  -47.0917 C.2       13 UNK         0.5000 
     78 O          -3.2046  -24.8861  -47.7055 O.2       13 UNK        -0.5000 
     79 N          -5.4642  -25.0435  -47.4720 N.am      14 UNK        -0.5000 
     80 CA         -5.8108  -25.8113  -48.6773 C.3       14 UNK         0.1400 
     81 CB         -5.2850  -27.2575  -48.5594 C.3       14 UNK        -0.1800 
     82 C          -5.3628  -25.1354  -49.9935 C.2       14 UNK         0.5000 
     83 O          -5.1461  -25.8256  -50.9916 O.2       14 UNK        -0.5000 
     84 N          -5.1713  -23.8067  -49.9585 N.am      15 UNK        -0.5000 
     85 CA         -4.5474  -22.9804  -50.9942 C.3       15 UNK         0.1400 
     86 CB         -5.4988  -22.8242  -52.1971 C.3       15 UNK        -0.1800 
     87 C          -3.1460  -23.4896  -51.3975 C.2       15 UNK         0.5000 
     88 O          -2.8210  -23.4941  -52.5846 O.2       15 UNK        -0.5000 
     89 N          -2.3651  -23.9615  -50.4121 N.am      16 UNK        -0.5000 
     90 CA         -1.0475  -24.5906  -50.5555 C.3       16 UNK         0.1400 
     91 CB         -0.0181  -23.5914  -51.1270 C.3       16 UNK        -0.1800 
     92 C          -1.1195  -25.8993  -51.3706 C.2       16 UNK         0.5000 
     93 O          -0.2569  -26.1508  -52.2118 O.2       16 UNK        -0.5000 
     94 N          -2.1827  -26.6841  -51.1371 N.am      17 UNK        -0.5000 
     95 CA         -2.6005  -27.8566  -51.9159 C.3       17 UNK         0.1400 
     96 CB         -1.5824  -29.0089  -51.7874 C.3       17 UNK        -0.1800 
     97 C          -2.9187  -27.4720  -53.3772 C.2       17 UNK         0.5000 
     98 O          -2.4219  -28.0968  -54.3154 O.2       17 UNK        -0.5000 
     99 N          -3.7208  -26.4074  -53.5190 N.am      18 UNK        -0.5000 
    100 CA        -4.1666  -25.7476  -54.7521 C.3       18 UNK         0.1400 
    101 CB        -4.9644  -26.7211  -55.6433 C.3       18 UNK        -0.1800 
    102 C         -3.0696  -25.0044  -55.5479 C.2       18 UNK         0.5000 
    103 O         -3.3835  -24.4404  -56.5971 O.2       18 UNK        -0.5000 
    104 N         -1.8235  -24.9741  -55.0543 N.am      19 UNK        -0.5000 
    105 CA        -0.6916  -24.3181  -55.7130 C.3       19 UNK         0.1400 
    106 CB         0.6237  -24.8397  -55.1170 C.3       19 UNK        -0.1800 
    107 C         -0.7410  -22.7792  -55.6460 C.2       19 UNK         0.5000 
    108 O         -0.2473  -22.1267  -56.5668 O.2       19 UNK        -0.5000 
    109 N         -1.3293  -22.2209  -54.5778 N.am      20 UNK        -0.5000 
    110 CA        -1.5065  -20.7761  -54.4005 C.3       20 UNK         0.1400 
    111 CB        -1.5926  -20.4411  -52.9031 C.3       20 UNK        -0.1800 
    112 C         -2.7454  -20.2454  -55.1462 C.2       20 UNK         0.5000 
    113 O         -2.8009  -19.0507  -55.4383 O.2       20 UNK        -0.5000 
    114 N         -3.6935  -21.1456  -55.4539 N.am      21 UNK        -0.5000 
    115 CA        -4.9109  -20.9301  -56.2418 C.3       21 UNK         0.1400 
    116 CB        -4.5493  -20.7049  -57.7245 C.3       21 UNK        -0.1800 
    117 C         -5.8246  -19.8261  -55.6665 C.2       21 UNK         0.5000 
    118 O         -6.2026  -18.8951  -56.3807 O.2       21 UNK        -0.5000 
    119 N         -6.1599  -19.9540  -54.3755 N.am      22 UNK        -0.5000 
    120 CA        -7.0383  -19.0264  -53.6380 C.3       22 UNK         0.1400 
    121 C         -8.5213  -18.9929  -54.1181 C.2       22 UNK         0.5000 
    122 N         -9.0051  -19.9775  -54.8660 N.am      22 UNK        -0.7600 
    123 O         -9.2461  -18.0527  -53.8042 O.2       22 UNK        -0.5000 
    124 C124       -6.9937  -19.2653  -52.1058 C.3       23 UNK        -0.0398 
    125 S125       -5.3213  -19.1804  -51.3804 S.3       23 UNK        -0.2404 
    126 C126       -5.1598  -17.3850  -51.1268 C.3       23 UNK        -0.0205 
    127 H127        2.4108  -15.1916  -49.1554 H         1 UNK         0.0600 
    128 H128        2.9578  -13.5119  -49.1396 H         1 UNK         0.0600 
    129 H129        1.5720  -13.9808  -50.1308 H         1 UNK         0.0600 
    130 H130       -0.3490  -13.3045  -49.2168 H         1 UNK         0.3000 
    131 H131       -1.1605  -14.0757  -46.6390 H         1 UNK         0.0600 
    132 H132       -2.5420  -13.5348  -48.8661 H         1 UNK         0.0800 
    133 H133       -2.6385  -11.9352  -48.2171 H         1 UNK         0.0800 
    134 H134       -2.9397  -15.5023  -45.9859 H         1 UNK         0.0800 
    135 H135       -4.6302  -15.7286  -46.3123 H         1 UNK         0.0800 
    136 H136       -5.4130  -16.1443  -48.7055 H         1 UNK         0.1150 
    137 H137       -2.4819  -17.8260  -51.3452 H         1 UNK         0.1150 
    138 H138       -1.2730  -16.0962  -47.6233 H         1 UNK         0.1150 
    139 H139       -0.1600  -17.8538  -50.7586 H         1 UNK         0.0800 
    140 H140        0.2206  -16.3110  -50.0522 H         1 UNK         0.0800 
    141 H141        1.7335  -20.1290  -48.9643 H         1 UNK         0.0800 
    142 H142        0.3877  -19.9096  -50.0289 H         1 UNK         0.0800 
    143 H143        0.0843  -21.7762  -48.5365 H         1 UNK         0.0600 
    144 H144        0.5983  -19.9753  -46.2836 H         1 UNK         0.3000 
    145 H145        0.2485  -22.7736  -44.0018 H         1 UNK         0.0600 
    146 H146        2.4534  -21.9001  -43.2622 H         1 UNK         0.0600 
    147 H147        2.6081  -22.8089  -44.7585 H         1 UNK         0.0600 
    148 H148        2.6540  -21.0529  -44.7941 H         1 UNK         0.0600 
    149 H149        0.7520  -20.0837  -43.3848 H         1 UNK         0.3000 
    150 H150       -2.6273  -18.9427  -43.1942 H         1 UNK         0.0600 
    151 H151       -2.2314  -20.2018  -41.0908 H         1 UNK         0.0600 
    152 H152       -1.8774  -18.4956  -40.8683 H         1 UNK         0.0600 
    153 H153       -0.5615  -19.6559  -41.0436 H         1 UNK         0.0600 
    154 H154       -0.0514  -17.7807  -42.6165 H         1 UNK         0.3000 
    155 H155        0.3667  -16.2348  -45.8154 H         1 UNK         0.0600 
    156 H156       -1.2537  -14.8663  -44.3799 H         1 UNK         0.0600 
    157 H157        0.3807  -14.2333  -44.4096 H         1 UNK         0.0600 
    158 H158       -0.1921  -15.1330  -43.0071 H         1 UNK         0.0600 
    159 H159        2.0036  -16.0422  -43.5526 H         1 UNK         0.3000 
    160 H160        3.9588  -19.0181  -43.9755 H         1 UNK         0.0600 
    161 H161        5.7479  -17.3611  -43.9173 H         1 UNK         0.0600 
    162 H162        4.6046  -16.0357  -44.0973 H         1 UNK         0.0600 
    163 H163        4.8720  -17.1566  -45.4283 H         1 UNK         0.0600 
    164 H164        4.1657  -17.1361  -41.9233 H         1 UNK         0.3000 
    165 H165        1.7105  -18.3282  -39.6995 H         1 UNK         0.0600 
    166 H166        4.6638  -19.1306  -39.6253 H         1 UNK         0.0600 
    167 H167        3.5792  -19.0531  -38.2367 H         1 UNK         0.0600 
    168 H168        3.2905  -20.2204  -39.5170 H         1 UNK         0.0600 
    169 H169        2.3093  -16.2719  -39.2686 H         1 UNK         0.3000 
    170 H170        3.9085  -14.7766  -38.1708 H         1 UNK         0.0600 
    171 H171        6.3612  -14.7369  -38.6300 H         1 UNK         0.0600 
    172 H172        6.0707  -13.9817  -40.1932 H         1 UNK         0.0600 
    173 H173        5.6714  -13.1239  -38.7052 H         1 UNK         0.0600 
    174 H174        3.8156  -13.2050  -40.6158 H         1 UNK         0.3000 
    175 H175        0.4598  -13.4591  -41.3046 H         1 UNK         0.0600 
    176 H176        1.5127  -11.0315  -39.7604 H         1 UNK         0.0600 
    177 H177        0.1070  -11.0569  -40.8259 H         1 UNK         0.0600 
    178 H178        0.0891  -11.9711  -39.3269 H         1 UNK         0.0600 
    179 H179        2.0951  -11.4126  -42.1944 H         1 UNK         0.3000 
    180 H180        3.9790  -11.6282  -43.6934 H         1 UNK         0.0600 
    181 H181        3.7418  -14.1592  -45.3959 H         1 UNK         0.0600 
    182 H182        5.0975  -13.6986  -44.3732 H         1 UNK         0.0600 
    183 H183        4.7153  -12.7474  -45.7986 H         1 UNK         0.0600 
    184 H184        2.0368  -12.3778  -45.7701 H         1 UNK         0.3000 
    185 H185       -0.0841   -9.6341  -45.2488 H         1 UNK         0.0600 
    186 H186        1.7870   -8.2252  -46.0991 H         1 UNK         0.0600 
    187 H187        2.2103   -9.4633  -47.2754 H         1 UNK         0.0600 
    188 H188        0.6647   -8.6204  -47.3904 H         1 UNK         0.0600 
    189 H189        0.5981  -11.2824  -47.5558 H         1 UNK         0.3000 
    190 H190       -1.9043  -19.7995  -46.4495 H         1 UNK         0.3000 
    191 H191       -4.1923  -19.7486  -48.2136 H         1 UNK         0.0600 
    192 H192       -4.0303  -19.5296  -45.1617 H         1 UNK         0.0600 
    193 H193       -3.9857  -18.1876  -46.2995 H         1 UNK         0.0600 
    194 H194       -5.4396  -19.1567  -46.1473 H         1 UNK         0.0600 
    195 H195       -3.0348  -21.9717  -45.6604 H         1 UNK         0.3000 
    196 H196       -5.1933  -23.6887  -45.4027 H         1 UNK         0.0600 
    197 H197       -3.2719  -23.7013  -43.8744 H         1 UNK         0.0600 
    198 H198       -2.1975  -24.2676  -45.1517 H         1 UNK         0.0600 
    199 H199       -3.4751  -25.3130  -44.5422 H         1 UNK         0.0600 
    200 H200       -6.2549  -24.7409  -46.9196 H         1 UNK         0.3000 
    201 H201       -6.9000  -25.8540  -48.7153 H         1 UNK         0.0600 
    202 H202       -5.6464  -27.8764  -49.3816 H         1 UNK         0.0600 
    203 H203       -5.6220  -27.7243  -47.6340 H         1 UNK         0.0600 
    204 H204       -4.1954  -27.2960  -48.5758 H         1 UNK         0.0600 
    205 H205       -5.3695  -23.3184  -49.0896 H         1 UNK         0.3000 
    206 H206       -4.3973  -21.9932  -50.5560 H         1 UNK         0.0600 
    207 H207       -6.4504  -22.3952  -51.8870 H         1 UNK         0.0600 
    208 H208       -5.7106  -23.7800  -52.6734 H         1 UNK         0.0600 
    209 H209       -5.0691  -22.1655  -52.9507 H         1 UNK         0.0600 
    210 H210       -2.7364  -23.9635  -49.4673 H         1 UNK         0.3000 
    211 H211       -0.7276  -24.8627  -49.5487 H         1 UNK         0.0600 
    212 H212       -0.0484  -22.6404  -50.6004 H         1 UNK         0.0600 
    213 H213        0.9954  -23.9839  -51.0402 H         1 UNK         0.0600 
    214 H214       -0.1963  -23.3835  -52.1812 H         1 UNK         0.0600 
    215 H215       -2.8563  -26.3586  -50.4577 H         1 UNK         0.3000 
    216 H216       -3.5391  -28.1987  -51.4772 H         1 UNK         0.0600 
    217 H217       -1.9589  -29.9134  -52.2663 H         1 UNK         0.0600 
    218 H218       -0.6279  -28.7675  -52.2557 H         1 UNK         0.0600 
    219 H219       -1.3915  -29.2505  -50.7419 H         1 UNK         0.0600 
    220 H220       -4.0803  -25.9927  -52.6637 H         1 UNK         0.3000 
    221 H221       -4.8597  -24.9715  -54.4300 H         1 UNK         0.0600 
    222 H222       -4.3275  -27.4947  -56.0727 H         1 UNK         0.0600 
    223 H223       -5.7576  -27.2122  -55.0797 H         1 UNK         0.0600 
    224 H224       -5.4374  -26.1944  -56.4730 H         1 UNK         0.0600 
    225 H225       -1.6404  -25.4245  -54.1679 H         1 UNK         0.3000 
    226 H226       -0.7108  -24.6001  -56.7679 H         1 UNK         0.0600 
    227 H227        0.6739  -25.9281  -55.1571 H         1 UNK         0.0600 
    228 H228        1.4808  -24.4529  -55.6694 H         1 UNK         0.0600 
    229 H229        0.7439  -24.5361  -54.0775 H         1 UNK         0.0600 
    230 H230       -1.7474  -22.8191  -53.8660 H         1 UNK         0.3000 
    231 H231       -0.6307  -20.2630  -54.8034 H         1 UNK         0.0600 
    232 H232       -1.5492  -19.3631  -52.7530 H         1 UNK         0.0600 
    233 H233       -0.7647  -20.8777  -52.3455 H         1 UNK         0.0600 
    234 H234       -2.5233  -20.7920  -52.4573 H         1 UNK         0.0600 
    235 H235       -3.5198  -22.0998  -55.1723 H         1 UNK         0.3000 
    236 H236       -5.4807  -21.8587  -56.1845 H         1 UNK         0.0600 
    237 H237       -3.9474  -21.5281  -58.1101 H         1 UNK         0.0600 
    238 H238       -5.4465  -20.6429  -58.3415 H         1 UNK         0.0600 
    239 H239       -3.9867  -19.7821  -57.8694 H         1 UNK         0.0600 
    240 H240       -5.7807  -20.7227  -53.8453 H         1 UNK         0.3000 
    241 H241       -6.6491  -18.0227  -53.8190 H         1 UNK         0.0600 
    242 H242       -8.4253  -20.7565  -55.1318 H         1 UNK         0.3800 
    243 H243       -9.9650  -19.9408  -55.1720 H         1 UNK         0.3800 
    244 H244       -7.6310  -18.5483  -51.5854 H         1 UNK         0.0800 
    245 H245       -7.4097  -20.2452  -51.8694 H         1 UNK         0.0800 
    246 H246       -6.1129  -16.9756  -50.7896 H         1 UNK         0.0800 
    247 H247       -4.9393  -16.9074  -52.0822 H         1 UNK         0.0800 
@<TRIPOS>BOND
     1    1    2 1    
     2    1  127 1    
     3    1  128 1    
     4    1  129 1    
     5    2    3 2    
     6    2    4 am   BACKBONE|DICT|INTERRES
     7    4    5 1    
     8    4  130 1    
     9    5    6 1    
    10    5   65 1    
    11    5  131 1    
    12    6    7 1    
    13    6  132 1    
    14    6  133 1    
    15    7    8 1    
    16    8    9 1    
    17    8  134 1    
    18    8  135 1    
    19    9   10 ar   
    20    9   14 ar   
    21   10   11 ar   
    22   10  136 1    
    23   11   12 ar   
    24   11  126 1    
    25   12   13 ar   
    26   12  137 1    
    27   13   14 ar   
    28   13   15 1    
    29   14  138 1    
    30   15   16 1    
    31   15  139 1    
    32   15  140 1    
    33   16   17 1    
    34   17   18 1    
    35   17  141 1    
    36   17  142 1    
    37   18   19 1    
    38   18   67 1    
    39   18  143 1    
    40   19   20 am   BACKBONE|DICT|INTERRES
    41   19  144 1    
    42   20   21 2    
    43   20   22 1    
    44   22   23 1    
    45   22   24 1    
    46   22  145 1    
    47   23  146 1    
    48   23  147 1    
    49   23  148 1    
    50   24   25 am   BACKBONE|DICT|INTERRES
    51   24  149 1    
    52   25   26 2    
    53   25   27 1    
    54   27   28 1    
    55   27   29 1    
    56   27  150 1    
    57   28  151 1    
    58   28  152 1    
    59   28  153 1    
    60   29   30 am   BACKBONE|DICT|INTERRES
    61   29  154 1    
    62   30   31 2    
    63   30   32 1    
    64   32   33 1    
    65   32   34 1    
    66   32  155 1    
    67   33  156 1    
    68   33  157 1    
    69   33  158 1    
    70   34   35 am   BACKBONE|DICT|INTERRES
    71   34  159 1    
    72   35   36 2    
    73   35   37 1    
    74   37   38 1    
    75   37   39 1    
    76   37  160 1    
    77   38  161 1    
    78   38  162 1    
    79   38  163 1    
    80   39   40 am   BACKBONE|DICT|INTERRES
    81   39  164 1    
    82   40   41 2    
    83   40   42 1    
    84   42   43 1    
    85   42   44 1    
    86   42  165 1    
    87   43  166 1    
    88   43  167 1    
    89   43  168 1    
    90   44   45 am   BACKBONE|DICT|INTERRES
    91   44  169 1    
    92   45   46 2    
    93   45   47 1    
    94   47   48 1    
    95   47   49 1    
    96   47  170 1    
    97   48  171 1    
    98   48  172 1    
    99   48  173 1    
   100   49   50 am   BACKBONE|DICT|INTERRES
   101   49  174 1    
   102   50   51 2    
   103   50   52 1    
   104   52   53 1    
   105   52   54 1    
   106   52  175 1    
   107   53  176 1    
   108   53  177 1    
   109   53  178 1    
   110   54   55 am   BACKBONE|DICT|INTERRES
   111   54  179 1    
   112   55   56 2    
   113   55   57 1    
   114   57   58 1    
   115   57   59 1    
   116   57  180 1    
   117   58  181 1    
   118   58  182 1    
   119   58  183 1    
   120   59   60 am   BACKBONE|DICT|INTERRES
   121   59  184 1    
   122   60   61 2    
   123   60   62 1    
   124   62   63 1    
   125   62   64 1    
   126   62  185 1    
   127   63  186 1    
   128   63  187 1    
   129   63  188 1    
   130   64   65 am   BACKBONE|DICT|INTERRES
   131   64  189 1    
   132   65   66 2    
   133   67   68 2    
   134   67   69 am   BACKBONE|DICT|INTERRES
   135   69   70 1    
   136   69  190 1    
   137   70   71 1    
   138   70   72 1    
   139   70  191 1    
   140   71  192 1    
   141   71  193 1    
   142   71  194 1    
   143   72   73 2    
   144   72   74 am   BACKBONE|DICT|INTERRES
   145   74   75 1    
   146   74  195 1    
   147   75   76 1    
   148   75   77 1    
   149   75  196 1    
   150   76  197 1    
   151   76  198 1    
   152   76  199 1    
   153   77   78 2    
   154   77   79 am   BACKBONE|DICT|INTERRES
   155   79   80 1    
   156   79  200 1    
   157   80   81 1    
   158   80   82 1    
   159   80  201 1    
   160   81  202 1    
   161   81  203 1    
   162   81  204 1    
   163   82   83 2    
   164   82   84 am   BACKBONE|DICT|INTERRES
   165   84   85 1    
   166   84  205 1    
   167   85   86 1    
   168   85   87 1    
   169   85  206 1    
   170   86  207 1    
   171   86  208 1    
   172   86  209 1    
   173   87   88 2    
   174   87   89 am   BACKBONE|DICT|INTERRES
   175   89   90 1    
   176   89  210 1    
   177   90   91 1    
   178   90   92 1    
   179   90  211 1    
   180   91  212 1    
   181   91  213 1    
   182   91  214 1    
   183   92   93 2    
   184   92   94 am   BACKBONE|DICT|INTERRES
   185   94   95 1    
   186   94  215 1    
   187   95   96 1    
   188   95   97 1    
   189   95  216 1    
   190   96  217 1    
   191   96  218 1    
   192   96  219 1    
   193   97   98 2    
   194   97   99 am   BACKBONE|DICT|INTERRES
   195   99  100 1    
   196   99  220 1    
   197  100  101 1    
   198  100  102 1    
   199  100  221 1    
   200  101  222 1    
   201  101  223 1    
   202  101  224 1    
   203  102  103 2    
   204  102  104 am   BACKBONE|DICT|INTERRES
   205  104  105 1    
   206  104  225 1    
   207  105  106 1    
   208  105  107 1    
   209  105  226 1    
   210  106  227 1    
   211  106  228 1    
   212  106  229 1    
   213  107  108 2    
   214  107  109 am   BACKBONE|DICT|INTERRES
   215  109  110 1    
   216  109  230 1    
   217  110  111 1    
   218  110  112 1    
   219  110  231 1    
   220  111  232 1    
   221  111  233 1    
   222  111  234 1    
   223  112  113 2    
   224  112  114 am   BACKBONE|DICT|INTERRES
   225  114  115 1    
   226  114  235 1    
   227  115  116 1    
   228  115  117 1    
   229  115  236 1    
   230  116  237 1    
   231  116  238 1    
   232  116  239 1    
   233  117  118 2    
   234  117  119 am   BACKBONE|DICT|INTERRES
   235  119  120 1    
   236  119  240 1    
   237  120  121 1    
   238  120  124 1    
   239  120  241 1    
   240  121  122 am   BACKBONE|DICT|INTERRES
   241  121  123 2    
   242  122  242 1    
   243  122  243 1    
   244  124  125 1    
   245  124  244 1    
   246  124  245 1    
   247  125  126 1    
   248  126  246 1    
   249  126  247 1    
@<TRIPOS>SUBSTRUCTURE
     1 UNK         1 GROUP             0       ****    0 ROOT    
