@<TRIPOS>MOLECULE
3R540
247   249    1
SMALL
USER_CHARGES


@<TRIPOS>ATOM
      1 CA         -1.7568  -15.8010  -45.4661 C.3       0 UNK        -0.1800 
      2 C          -0.9568  -15.2020  -46.6124 C.2       0 UNK         0.5000 
      3 O          -0.0723  -14.3766  -46.3828 O.2       0 UNK        -0.5000 
      4 N          -1.2739  -15.6117  -47.8477 N.am      1 UNK        -0.5000 
      5 CA         -0.6612  -15.1999  -49.1209 C.3       1 UNK         0.1400 
      6 C6          0.8640  -15.4756  -49.2258 C.3       23 UNK        -0.0398 
      7 S7          1.2905  -17.2139  -48.8804 S.3       23 UNK        -0.2404 
      8 C8          1.7196  -17.8325  -50.5372 C.3       23 UNK        -0.0205 
      9 C9          2.2135  -19.2707  -50.4765 C.ar      23 UNK        -0.0193 
     10 C10         1.5126  -20.2979  -51.1183 C.ar      23 UNK        -0.1150 
     11 C11         1.9725  -21.6172  -51.0469 C.ar      23 UNK        -0.0193 
     12 C12         3.1436  -21.9011  -50.3403 C.ar      23 UNK        -0.1150 
     13 C13         3.8362  -20.8895  -49.6721 C.ar      23 UNK        -0.0193 
     14 C14         3.3757  -19.5743  -49.7605 C.ar      23 UNK        -0.1150 
     15 C15         5.0697  -21.2143  -48.8407 C.3       23 UNK        -0.0205 
     16 S16         4.7581  -22.4785  -47.5612 S.3       23 UNK        -0.2404 
     17 C17         3.4784  -21.6992  -46.5154 C.3       23 UNK        -0.0398 
     18 CA          2.2794  -22.6480  -46.2530 C.3       11 UNK         0.1400 
     19 N           1.6358  -22.3796  -44.9616 N.am      11 UNK        -0.5000 
     20 C           0.7302  -23.1843  -44.3849 C.2       10 UNK         0.5000 
     21 O           0.3957  -24.2751  -44.8470 O.2       10 UNK        -0.5000 
     22 CA          0.0583  -22.6745  -43.0975 C.3       10 UNK         0.1400 
     23 CB          0.9534  -22.9316  -41.8760 C.3       10 UNK        -0.1800 
     24 N          -0.2837  -21.2542  -43.1685 N.am      10 UNK        -0.5000 
     25 C          -1.2055  -20.7317  -43.9899 C.2       9 UNK         0.5000 
     26 O          -1.9247  -21.4039  -44.7290 O.2       9 UNK        -0.5000 
     27 CA         -1.3201  -19.1955  -44.0197 C.3       9 UNK         0.1400 
     28 CB         -2.2389  -18.6902  -42.8983 C.3       9 UNK        -0.1800 
     29 N          -0.0256  -18.5141  -43.9395 N.am      9 UNK        -0.5000 
     30 C           0.9559  -18.6389  -44.8456 C.2       8 UNK         0.5000 
     31 O           0.8734  -19.3394  -45.8510 O.2       8 UNK        -0.5000 
     32 CA          2.2806  -17.9238  -44.5397 C.3       8 UNK         0.1400 
     33 CB          2.1985  -16.4268  -44.8701 C.3       8 UNK        -0.1800 
     34 N           2.6751  -18.1101  -43.1447 N.am      8 UNK        -0.5000 
     35 C           3.0631  -19.2845  -42.6266 C.2       7 UNK         0.5000 
     36 O           3.1779  -20.3190  -43.2847 O.2       7 UNK        -0.5000 
     37 CA          3.3173  -19.3151  -41.1089 C.3       7 UNK         0.1400 
     38 CB          4.7296  -18.8065  -40.7839 C.3       7 UNK        -0.1800 
     39 N           2.3328  -18.5298  -40.3620 N.am      7 UNK        -0.5000 
     40 C           1.0284  -18.8305  -40.2827 C.2       6 UNK         0.5000 
     41 O           0.5252  -19.8244  -40.8028 O.2       6 UNK        -0.5000 
     42 CA          0.1282  -17.8331  -39.5326 C.3       6 UNK         0.1400 
     43 CB          0.0724  -18.1763  -38.0368 C.3       6 UNK        -0.1800 
     44 N           0.5510  -16.4408  -39.6965 N.am      6 UNK        -0.5000 
     45 C           0.5405  -15.7722  -40.8570 C.2       5 UNK         0.5000 
     46 O           0.2008  -16.2685  -41.9341 O.2       5 UNK        -0.5000 
     47 CA          1.0461  -14.3191  -40.8054 C.3       5 UNK         0.1400 
     48 CB          2.3943  -14.1915  -41.5320 C.3       5 UNK        -0.1800 
     49 N           0.1019  -13.3651  -41.3846 N.am      5 UNK        -0.5000 
     50 C          -1.1347  -13.1096  -40.9321 C.2       4 UNK         0.5000 
     51 O          -1.6370  -13.6881  -39.9674 O.2       4 UNK        -0.5000 
     52 CA         -1.9326  -11.9900  -41.6376 C.3       4 UNK         0.1400 
     53 CB         -2.3524  -10.9032  -40.6330 C.3       4 UNK        -0.1800 
     54 N          -1.1759  -11.3498  -42.7185 N.am      4 UNK        -0.5000 
     55 C          -1.2094  -11.7288  -44.0007 C.2       3 UNK         0.5000 
     56 O          -1.9423  -12.6226  -44.4279 O.2       3 UNK        -0.5000 
     57 CA         -0.2488  -10.9900  -44.9474 C.3       3 UNK         0.1400 
     58 CB          1.2200  -11.2530  -44.5648 C.3       3 UNK        -0.1800 
     59 N          -0.4566  -11.4462  -46.3181 N.am      3 UNK        -0.5000 
     60 C          -0.5084  -10.6658  -47.4056 C.2       2 UNK         0.5000 
     61 O          -0.4059   -9.4387  -47.3591 O.2       2 UNK        -0.5000 
     62 CA         -0.6865  -11.3567  -48.7745 C.3       2 UNK         0.1400 
     63 CB          0.2448  -10.7627  -49.8495 C.3       2 UNK        -0.1800 
     64 N          -0.4699  -12.7992  -48.6799 N.am      2 UNK        -0.5000 
     65 C          -1.0005  -13.7358  -49.4712 C.2       1 UNK         0.5000 
     66 O          -1.7398  -13.4909  -50.4252 O.2       1 UNK        -0.5000 
     67 C           1.2498  -22.6336  -47.4049 C.2       11 UNK         0.5000 
     68 O           1.2466  -23.5386  -48.2403 O.2       11 UNK        -0.5000 
     69 N           0.3377  -21.6522  -47.3712 N.am      12 UNK        -0.5000 
     70 CA         -0.7541  -21.4425  -48.3208 C.3       12 UNK         0.1400 
     71 CB         -1.3432  -20.0390  -48.1149 C.3       12 UNK        -0.1800 
     72 C          -1.8709  -22.5040  -48.2995 C.2       12 UNK         0.5000 
     73 O          -2.8471  -22.3396  -49.0315 O.2       12 UNK        -0.5000 
     74 N          -1.7375  -23.5843  -47.5178 N.am      13 UNK        -0.5000 
     75 CA         -2.6623  -24.7223  -47.5039 C.3       13 UNK         0.1400 
     76 CB         -2.1973  -25.7472  -46.4606 C.3       13 UNK        -0.1800 
     77 C          -2.8254  -25.3846  -48.8883 C.2       13 UNK         0.5000 
     78 O          -3.9437  -25.7311  -49.2684 O.2       13 UNK        -0.5000 
     79 N          -1.7265  -25.4621  -49.6543 N.am      14 UNK        -0.5000 
     80 CA         -1.7095  -25.9315  -51.0451 C.3       14 UNK         0.1400 
     81 CB         -0.2999  -26.4328  -51.3965 C.3       14 UNK        -0.1800 
     82 C          -2.2135  -24.8836  -52.0649 C.2       14 UNK         0.5000 
     83 O          -2.2836  -25.1930  -53.2549 O.2       14 UNK        -0.5000 
     84 N          -2.5660  -23.6800  -51.5922 N.am      15 UNK        -0.5000 
     85 CA         -3.2728  -22.6322  -52.3315 C.3       15 UNK         0.1400 
     86 CB         -2.4790  -21.3145  -52.2294 C.3       15 UNK        -0.1800 
     87 C          -4.7103  -22.4522  -51.7999 C.2       15 UNK         0.5000 
     88 O          -5.3340  -21.4298  -52.0856 O.2       15 UNK        -0.5000 
     89 N          -5.2045  -23.4156  -51.0038 N.am      16 UNK        -0.5000 
     90 CA         -6.5116  -23.4231  -50.3367 C.3       16 UNK         0.1400 
     91 CB         -7.6486  -23.5401  -51.3744 C.3       16 UNK        -0.1800 
     92 C          -6.6900  -22.2323  -49.3696 C.2       16 UNK         0.5000 
     93 O          -7.7362  -21.5841  -49.3714 O.2       16 UNK        -0.5000 
     94 N          -5.6360  -21.9460  -48.5903 N.am      17 UNK        -0.5000 
     95 CA         -5.4787  -20.7944  -47.6929 C.3       17 UNK         0.1400 
     96 CB         -6.5220  -20.8106  -46.5565 C.3       17 UNK        -0.1800 
     97 C          -5.4301  -19.4621  -48.4703 C.2       17 UNK         0.5000 
     98 O          -5.9913  -18.4591  -48.0275 O.2       17 UNK        -0.5000 
     99 N          -4.7544  -19.4996  -49.6285 N.am      18 UNK        -0.5000 
    100 CA        -4.5663  -18.4162  -50.6002 C.3       18 UNK         0.1400 
    101 CB        -3.7821  -17.2410  -49.9802 C.3       18 UNK        -0.1800 
    102 C         -5.8637  -17.9732  -51.3115 C.2       18 UNK         0.5000 
    103 O         -5.9251  -16.8566  -51.8293 O.2       18 UNK        -0.5000 
    104 N         -6.8696  -18.8576  -51.3557 N.am      19 UNK        -0.5000 
    105 CA        -8.0968  -18.6723  -52.1326 C.3       19 UNK         0.1400 
    106 CB        -9.2082  -19.5510  -51.5406 C.3       19 UNK        -0.1800 
    107 C         -7.8936  -18.9959  -53.6260 C.2       19 UNK         0.5000 
    108 O         -8.6274  -18.4702  -54.4643 O.2       19 UNK        -0.5000 
    109 N         -6.9084  -19.8482  -53.9274 N.am      20 UNK        -0.5000 
    110 CA        -6.4874  -20.2510  -55.2645 C.3       20 UNK         0.1400 
    111 CB        -6.8071  -21.7484  -55.4333 C.3       20 UNK        -0.1800 
    112 C         -4.9823  -19.9692  -55.4333 C.2       20 UNK         0.5000 
    113 O         -4.3582  -19.3689  -54.5550 O.2       20 UNK        -0.5000 
    114 N         -4.4163  -20.4096  -56.5630 N.am      21 UNK        -0.5000 
    115 CA        -2.9711  -20.4618  -56.7869 C.3       21 UNK         0.1400 
    116 CB        -2.7025  -20.5162  -58.2988 C.3       21 UNK        -0.1800 
    117 C         -2.3696  -21.6954  -56.0868 C.2       21 UNK         0.5000 
    118 O         -3.0540  -22.7136  -55.9616 O.2       21 UNK        -0.5000 
    119 N         -1.1054  -21.5872  -55.6595 N.am      22 UNK        -0.5000 
    120 CA        -0.3399  -22.6680  -55.0184 C.3       22 UNK         0.1400 
    121 C         -0.1028  -23.8692  -55.9774 C.2       22 UNK         0.5000 
    122 N         -0.6122  -25.0482  -55.6457 N.am      22 UNK        -0.7600 
    123 O          0.5547  -23.7369  -57.0071 O.2       22 UNK        -0.5000 
    124 C124        0.9791  -22.1192  -54.4104 C.3       23 UNK        -0.0398 
    125 S125        1.7926  -23.2932  -53.2716 S.3       23 UNK        -0.2404 
    126 C126        1.1722  -22.7615  -51.6465 C.3       23 UNK        -0.0205 
    127 H127       -2.5576  -15.1236  -45.1721 H         1 UNK         0.0600 
    128 H128       -1.1152  -15.9629  -44.6002 H         1 UNK         0.0600 
    129 H129       -2.2034  -16.7538  -45.7475 H         1 UNK         0.0600 
    130 H130       -2.0291  -16.2734  -47.9463 H         1 UNK         0.3000 
    131 H131       -1.1412  -15.8129  -49.8848 H         1 UNK         0.0600 
    132 H132        1.4252  -14.8577  -48.5237 H         1 UNK         0.0800 
    133 H133        1.2302  -15.2059  -50.2178 H         1 UNK         0.0800 
    134 H134        0.8486  -17.7467  -51.1886 H         1 UNK         0.0800 
    135 H135        2.5019  -17.2076  -50.9701 H         1 UNK         0.0800 
    136 H136        0.5993  -20.0747  -51.6512 H         1 UNK         0.1150 
    137 H137        3.4888  -22.9229  -50.2672 H         1 UNK         0.1150 
    138 H138        3.9070  -18.7823  -49.2515 H         1 UNK         0.1150 
    139 H139        5.8555  -21.5738  -49.5063 H         1 UNK         0.0800 
    140 H140        5.4615  -20.3175  -48.3583 H         1 UNK         0.0800 
    141 H141        3.1515  -20.7459  -46.9349 H         1 UNK         0.0800 
    142 H142        3.9697  -21.4510  -45.5742 H         1 UNK         0.0800 
    143 H143        2.6667  -23.6672  -46.1859 H         1 UNK         0.0600 
    144 H144        1.8823  -21.5110  -44.5008 H         1 UNK         0.3000 
    145 H145       -0.8684  -23.2361  -42.9622 H         1 UNK         0.0600 
    146 H146        0.4475  -22.6517  -40.9519 H         1 UNK         0.0600 
    147 H147        1.2134  -23.9879  -41.7972 H         1 UNK         0.0600 
    148 H148        1.8842  -22.3667  -41.9313 H         1 UNK         0.0600 
    149 H149        0.2050  -20.6363  -42.5271 H         1 UNK         0.3000 
    150 H150       -1.7731  -18.9246  -44.9741 H         1 UNK         0.0600 
    151 H151       -3.2344  -19.1273  -42.9846 H         1 UNK         0.0600 
    152 H152       -2.3536  -17.6067  -42.9370 H         1 UNK         0.0600 
    153 H153       -1.8515  -18.9508  -41.9138 H         1 UNK         0.0600 
    154 H154        0.1172  -17.8934  -43.1491 H         1 UNK         0.3000 
    155 H155        3.0531  -18.3650  -45.1736 H         1 UNK         0.0600 
    156 H156        1.9785  -16.2780  -45.9279 H         1 UNK         0.0600 
    157 H157        1.4149  -15.9249  -44.3027 H         1 UNK         0.0600 
    158 H158        3.1416  -15.9220  -44.6620 H         1 UNK         0.0600 
    159 H159        2.5560  -17.3209  -42.5280 H         1 UNK         0.3000 
    160 H160        3.2434  -20.3539  -40.7798 H         1 UNK         0.0600 
    161 H161        4.8580  -17.7606  -41.0655 H         1 UNK         0.0600 
    162 H162        5.4845  -19.3855  -41.3176 H         1 UNK         0.0600 
    163 H163        4.9455  -18.8967  -39.7192 H         1 UNK         0.0600 
    164 H164        2.6648  -17.6968  -39.8992 H         1 UNK         0.3000 
    165 H165       -0.8803  -17.9256  -39.9401 H         1 UNK         0.0600 
    166 H166       -0.6272  -17.5278  -37.5091 H         1 UNK         0.0600 
    167 H167       -0.2614  -19.2038  -37.8848 H         1 UNK         0.0600 
    168 H168        1.0492  -18.0749  -37.5622 H         1 UNK         0.0600 
    169 H169        0.8417  -15.9597  -38.8575 H         1 UNK         0.3000 
    170 H170        1.1969  -14.0367  -39.7614 H         1 UNK         0.0600 
    171 H171        2.2969  -14.3881  -42.6000 H         1 UNK         0.0600 
    172 H172        2.8115  -13.1912  -41.4147 H         1 UNK         0.0600 
    173 H173        3.1253  -14.8956  -41.1324 H         1 UNK         0.0600 
    174 H174        0.4155  -12.8647  -42.2011 H         1 UNK         0.3000 
    175 H175       -2.8405  -12.4453  -42.0388 H         1 UNK         0.0600 
    176 H176       -2.9411  -10.1246  -41.1184 H         1 UNK         0.0600 
    177 H177       -1.4874  -10.4294  -40.1672 H         1 UNK         0.0600 
    178 H178       -2.9677  -11.3206  -39.8349 H         1 UNK         0.0600 
    179 H179       -0.5578  -10.5993  -42.4436 H         1 UNK         0.3000 
    180 H180       -0.4613   -9.9224  -44.8629 H         1 UNK         0.0600 
    181 H181        1.8996  -10.7460  -45.2502 H         1 UNK         0.0600 
    182 H182        1.4558  -12.3181  -44.5916 H         1 UNK         0.0600 
    183 H183        1.4467  -10.8880  -43.5627 H         1 UNK         0.0600 
    184 H184       -0.6196  -12.4452  -46.3946 H         1 UNK         0.3000 
    185 H185       -1.7212  -11.1771  -49.0732 H         1 UNK         0.0600 
    186 H186        0.0779   -9.6917  -49.9701 H         1 UNK         0.0600 
    187 H187        1.2943  -10.9065  -49.5902 H         1 UNK         0.0600 
    188 H188        0.0739  -11.2239  -50.8223 H         1 UNK         0.0600 
    189 H189        0.0760  -13.1193  -47.8857 H         1 UNK         0.3000 
    190 H190        0.4430  -20.9276  -46.6637 H         1 UNK         0.3000 
    191 H191       -0.3235  -21.4765  -49.3208 H         1 UNK         0.0600 
    192 H192       -0.5675  -19.2769  -48.1478 H         1 UNK         0.0600 
    193 H193       -2.0598  -19.7961  -48.8981 H         1 UNK         0.0600 
    194 H194       -1.8566  -19.9552  -47.1576 H         1 UNK         0.0600 
    195 H195       -0.9170  -23.6563  -46.9316 H         1 UNK         0.3000 
    196 H196       -3.6418  -24.3470  -47.2006 H         1 UNK         0.0600 
    197 H197       -2.8670  -26.6076  -46.4296 H         1 UNK         0.0600 
    198 H198       -2.1833  -25.3107  -45.4617 H         1 UNK         0.0600 
    199 H199       -1.1941  -26.1162  -46.6779 H         1 UNK         0.0600 
    200 H200       -0.8494  -25.1327  -49.2735 H         1 UNK         0.3000 
    201 H201       -2.3853  -26.7856  -51.1247 H         1 UNK         0.0600 
    202 H202        0.0055  -27.2412  -50.7320 H         1 UNK         0.0600 
    203 H203        0.4448  -25.6439  -51.3235 H         1 UNK         0.0600 
    204 H204       -0.2624  -26.8224  -52.4147 H         1 UNK         0.0600 
    205 H205       -2.4831  -23.5062  -50.5968 H         1 UNK         0.3000 
    206 H206       -3.3662  -22.9024  -53.3830 H         1 UNK         0.0600 
    207 H207       -1.4994  -21.3943  -52.6901 H         1 UNK         0.0600 
    208 H208       -2.9879  -20.5072  -52.7507 H         1 UNK         0.0600 
    209 H209       -2.3380  -20.9958  -51.1978 H         1 UNK         0.0600 
    210 H210       -4.6161  -24.2121  -50.7962 H         1 UNK         0.3000 
    211 H211       -6.5367  -24.3214  -49.7182 H         1 UNK         0.0600 
    212 H212       -7.7006  -22.6661  -52.0240 H         1 UNK         0.0600 
    213 H213       -8.6176  -23.6413  -50.8844 H         1 UNK         0.0600 
    214 H214       -7.5132  -24.4169  -52.0073 H         1 UNK         0.0600 
    215 H215       -4.7863  -22.4832  -48.7303 H         1 UNK         0.3000 
    216 H216       -4.4974  -20.9054  -47.2290 H         1 UNK         0.0600 
    217 H217       -6.2985  -20.0437  -45.8141 H         1 UNK         0.0600 
    218 H218       -6.5263  -21.7701  -46.0396 H         1 UNK         0.0600 
    219 H219       -7.5307  -20.6215  -46.9242 H         1 UNK         0.0600 
    220 H220       -4.3679  -20.3926  -49.9018 H         1 UNK         0.3000 
    221 H221       -3.9405  -18.8336  -51.3886 H         1 UNK         0.0600 
    222 H222       -4.3654  -16.7159  -49.2237 H         1 UNK         0.0600 
    223 H223       -2.8601  -17.5889  -49.5168 H         1 UNK         0.0600 
    224 H224       -3.5050  -16.5105  -50.7412 H         1 UNK         0.0600 
    225 H225       -6.7354  -19.7630  -50.9251 H         1 UNK         0.3000 
    226 H226       -8.4128  -17.6299  -52.0546 H         1 UNK         0.0600 
    227 H227       -9.3673  -19.3298  -50.4849 H         1 UNK         0.0600 
    228 H228      -10.1545  -19.3828  -52.0559 H         1 UNK         0.0600 
    229 H229       -8.9718  -20.6116  -51.6284 H         1 UNK         0.0600 
    230 H230       -6.3236  -20.2076  -53.1764 H         1 UNK         0.3000 
    231 H231       -7.0198  -19.6793  -56.0269 H         1 UNK         0.0600 
    232 H232       -6.2206  -22.3625  -54.7483 H         1 UNK         0.0600 
    233 H233       -6.5979  -22.0923  -56.4465 H         1 UNK         0.0600 
    234 H234       -7.8609  -21.9489  -55.2390 H         1 UNK         0.0600 
    235 H235       -4.9835  -20.9215  -57.2224 H         1 UNK         0.3000 
    236 H236       -2.5081  -19.5591  -56.3822 H         1 UNK         0.0600 
    237 H237       -3.1153  -19.6429  -58.8043 H         1 UNK         0.0600 
    238 H238       -1.6316  -20.5348  -58.5052 H         1 UNK         0.0600 
    239 H239       -3.1394  -21.4060  -58.7543 H         1 UNK         0.0600 
    240 H240       -0.6011  -20.7316  -55.8394 H         1 UNK         0.3000 
    241 H241       -0.9502  -23.0267  -54.1901 H         1 UNK         0.0600 
    242 H242       -1.1994  -25.1485  -54.8208 H         1 UNK         0.3800 
    243 H243       -0.4656  -25.8399  -56.2510 H         1 UNK         0.3800 
    244 H244        0.7878  -21.1923  -53.8693 H         1 UNK         0.0800 
    245 H245        1.6856  -21.8592  -55.2004 H         1 UNK         0.0800 
    246 H246        1.2335  -23.6069  -50.9626 H         1 UNK         0.0800 
    247 H247        0.1157  -22.5127  -51.7044 H         1 UNK         0.0800 
@<TRIPOS>BOND
     1    1    2 1    
     2    1  127 1    
     3    1  128 1    
     4    1  129 1    
     5    2    3 2    
     6    2    4 am   BACKBONE|DICT|INTERRES
     7    4    5 1    
     8    4  130 1    
     9    5    6 1    
    10    5   65 1    
    11    5  131 1    
    12    6    7 1    
    13    6  132 1    
    14    6  133 1    
    15    7    8 1    
    16    8    9 1    
    17    8  134 1    
    18    8  135 1    
    19    9   10 ar   
    20    9   14 ar   
    21   10   11 ar   
    22   10  136 1    
    23   11   12 ar   
    24   11  126 1    
    25   12   13 ar   
    26   12  137 1    
    27   13   14 ar   
    28   13   15 1    
    29   14  138 1    
    30   15   16 1    
    31   15  139 1    
    32   15  140 1    
    33   16   17 1    
    34   17   18 1    
    35   17  141 1    
    36   17  142 1    
    37   18   19 1    
    38   18   67 1    
    39   18  143 1    
    40   19   20 am   BACKBONE|DICT|INTERRES
    41   19  144 1    
    42   20   21 2    
    43   20   22 1    
    44   22   23 1    
    45   22   24 1    
    46   22  145 1    
    47   23  146 1    
    48   23  147 1    
    49   23  148 1    
    50   24   25 am   BACKBONE|DICT|INTERRES
    51   24  149 1    
    52   25   26 2    
    53   25   27 1    
    54   27   28 1    
    55   27   29 1    
    56   27  150 1    
    57   28  151 1    
    58   28  152 1    
    59   28  153 1    
    60   29   30 am   BACKBONE|DICT|INTERRES
    61   29  154 1    
    62   30   31 2    
    63   30   32 1    
    64   32   33 1    
    65   32   34 1    
    66   32  155 1    
    67   33  156 1    
    68   33  157 1    
    69   33  158 1    
    70   34   35 am   BACKBONE|DICT|INTERRES
    71   34  159 1    
    72   35   36 2    
    73   35   37 1    
    74   37   38 1    
    75   37   39 1    
    76   37  160 1    
    77   38  161 1    
    78   38  162 1    
    79   38  163 1    
    80   39   40 am   BACKBONE|DICT|INTERRES
    81   39  164 1    
    82   40   41 2    
    83   40   42 1    
    84   42   43 1    
    85   42   44 1    
    86   42  165 1    
    87   43  166 1    
    88   43  167 1    
    89   43  168 1    
    90   44   45 am   BACKBONE|DICT|INTERRES
    91   44  169 1    
    92   45   46 2    
    93   45   47 1    
    94   47   48 1    
    95   47   49 1    
    96   47  170 1    
    97   48  171 1    
    98   48  172 1    
    99   48  173 1    
   100   49   50 am   BACKBONE|DICT|INTERRES
   101   49  174 1    
   102   50   51 2    
   103   50   52 1    
   104   52   53 1    
   105   52   54 1    
   106   52  175 1    
   107   53  176 1    
   108   53  177 1    
   109   53  178 1    
   110   54   55 am   BACKBONE|DICT|INTERRES
   111   54  179 1    
   112   55   56 2    
   113   55   57 1    
   114   57   58 1    
   115   57   59 1    
   116   57  180 1    
   117   58  181 1    
   118   58  182 1    
   119   58  183 1    
   120   59   60 am   BACKBONE|DICT|INTERRES
   121   59  184 1    
   122   60   61 2    
   123   60   62 1    
   124   62   63 1    
   125   62   64 1    
   126   62  185 1    
   127   63  186 1    
   128   63  187 1    
   129   63  188 1    
   130   64   65 am   BACKBONE|DICT|INTERRES
   131   64  189 1    
   132   65   66 2    
   133   67   68 2    
   134   67   69 am   BACKBONE|DICT|INTERRES
   135   69   70 1    
   136   69  190 1    
   137   70   71 1    
   138   70   72 1    
   139   70  191 1    
   140   71  192 1    
   141   71  193 1    
   142   71  194 1    
   143   72   73 2    
   144   72   74 am   BACKBONE|DICT|INTERRES
   145   74   75 1    
   146   74  195 1    
   147   75   76 1    
   148   75   77 1    
   149   75  196 1    
   150   76  197 1    
   151   76  198 1    
   152   76  199 1    
   153   77   78 2    
   154   77   79 am   BACKBONE|DICT|INTERRES
   155   79   80 1    
   156   79  200 1    
   157   80   81 1    
   158   80   82 1    
   159   80  201 1    
   160   81  202 1    
   161   81  203 1    
   162   81  204 1    
   163   82   83 2    
   164   82   84 am   BACKBONE|DICT|INTERRES
   165   84   85 1    
   166   84  205 1    
   167   85   86 1    
   168   85   87 1    
   169   85  206 1    
   170   86  207 1    
   171   86  208 1    
   172   86  209 1    
   173   87   88 2    
   174   87   89 am   BACKBONE|DICT|INTERRES
   175   89   90 1    
   176   89  210 1    
   177   90   91 1    
   178   90   92 1    
   179   90  211 1    
   180   91  212 1    
   181   91  213 1    
   182   91  214 1    
   183   92   93 2    
   184   92   94 am   BACKBONE|DICT|INTERRES
   185   94   95 1    
   186   94  215 1    
   187   95   96 1    
   188   95   97 1    
   189   95  216 1    
   190   96  217 1    
   191   96  218 1    
   192   96  219 1    
   193   97   98 2    
   194   97   99 am   BACKBONE|DICT|INTERRES
   195   99  100 1    
   196   99  220 1    
   197  100  101 1    
   198  100  102 1    
   199  100  221 1    
   200  101  222 1    
   201  101  223 1    
   202  101  224 1    
   203  102  103 2    
   204  102  104 am   BACKBONE|DICT|INTERRES
   205  104  105 1    
   206  104  225 1    
   207  105  106 1    
   208  105  107 1    
   209  105  226 1    
   210  106  227 1    
   211  106  228 1    
   212  106  229 1    
   213  107  108 2    
   214  107  109 am   BACKBONE|DICT|INTERRES
   215  109  110 1    
   216  109  230 1    
   217  110  111 1    
   218  110  112 1    
   219  110  231 1    
   220  111  232 1    
   221  111  233 1    
   222  111  234 1    
   223  112  113 2    
   224  112  114 am   BACKBONE|DICT|INTERRES
   225  114  115 1    
   226  114  235 1    
   227  115  116 1    
   228  115  117 1    
   229  115  236 1    
   230  116  237 1    
   231  116  238 1    
   232  116  239 1    
   233  117  118 2    
   234  117  119 am   BACKBONE|DICT|INTERRES
   235  119  120 1    
   236  119  240 1    
   237  120  121 1    
   238  120  124 1    
   239  120  241 1    
   240  121  122 am   BACKBONE|DICT|INTERRES
   241  121  123 2    
   242  122  242 1    
   243  122  243 1    
   244  124  125 1    
   245  124  244 1    
   246  124  245 1    
   247  125  126 1    
   248  126  246 1    
   249  126  247 1    
@<TRIPOS>SUBSTRUCTURE
     1 UNK         1 GROUP             0       ****    0 ROOT    
