@<TRIPOS>MOLECULE
3R540
247   249    1
SMALL
USER_CHARGES


@<TRIPOS>ATOM
      1 CA         -4.3283  -15.7225  -46.1559 C.3       0 UNK        -0.1800 
      2 C          -3.0746  -15.7993  -47.0141 C.2       0 UNK         0.5000 
      3 O          -2.2486  -16.6928  -46.8285 O.2       0 UNK        -0.5000 
      4 N          -2.9183  -14.8413  -47.9371 N.am      1 UNK        -0.5000 
      5 CA         -1.8018  -14.6581  -48.8795 C.3       1 UNK         0.1400 
      6 C6         -1.5812  -15.8752  -49.8192 C.3       23 UNK        -0.0398 
      7 S7         -1.0585  -15.3841  -51.4973 S.3       23 UNK        -0.2404 
      8 C8          0.7467  -15.6239  -51.4370 C.3       23 UNK        -0.0205 
      9 C9          1.1361  -17.0929  -51.5007 C.ar      23 UNK        -0.0193 
     10 C10         1.1264  -17.7683  -52.7244 C.ar      23 UNK        -0.1150 
     11 C11         1.5013  -19.1125  -52.7965 C.ar      23 UNK        -0.0193 
     12 C12         1.8836  -19.7776  -51.6286 C.ar      23 UNK        -0.1150 
     13 C13         1.8712  -19.1289  -50.3911 C.ar      23 UNK        -0.0193 
     14 C14         1.5195  -17.7730  -50.3413 C.ar      23 UNK        -0.1150 
     15 C15         2.2532  -19.9495  -49.1584 C.3       23 UNK        -0.0205 
     16 S16         1.9982  -19.1616  -47.5330 S.3       23 UNK        -0.2404 
     17 C17         0.1833  -19.0036  -47.4093 C.3       23 UNK        -0.0398 
     18 CA         -0.5702  -20.3374  -47.2097 C.3       11 UNK         0.1400 
     19 N          -0.0225  -21.1534  -46.1191 N.am      11 UNK        -0.5000 
     20 C          -0.3816  -22.4223  -45.8692 C.2       10 UNK         0.5000 
     21 O          -1.2440  -23.0179  -46.5167 O.2       10 UNK        -0.5000 
     22 CA          0.2931  -23.1352  -44.6815 C.3       10 UNK         0.1400 
     23 CB          1.5335  -23.9033  -45.1599 C.3       10 UNK        -0.1800 
     24 N           0.6765  -22.2329  -43.5944 N.am      10 UNK        -0.5000 
     25 C          -0.1747  -21.4856  -42.8778 C.2       9 UNK         0.5000 
     26 O          -1.3956  -21.5124  -43.0277 O.2       9 UNK        -0.5000 
     27 CA          0.4355  -20.5093  -41.8530 C.3       9 UNK         0.1400 
     28 CB          0.3937  -21.1079  -40.4398 C.3       9 UNK        -0.1800 
     29 N           1.8066  -20.0775  -42.1484 N.am      9 UNK        -0.5000 
     30 C           2.2070  -19.4481  -43.2626 C.2       8 UNK         0.5000 
     31 O           1.4624  -19.2258  -44.2188 O.2       8 UNK        -0.5000 
     32 CA          3.6633  -18.9558  -43.2642 C.3       8 UNK         0.1400 
     33 CB          4.0174  -18.1253  -44.5090 C.3       8 UNK        -0.1800 
     34 N           3.8740  -18.1258  -42.0830 N.am      8 UNK        -0.5000 
     35 C           4.8403  -18.2803  -41.1698 C.2       7 UNK         0.5000 
     36 O           5.6533  -19.2059  -41.1894 O.2       7 UNK        -0.5000 
     37 CA          4.8949  -17.2215  -40.0451 C.3       7 UNK         0.1400 
     38 CB          6.2718  -17.1391  -39.3539 C.3       7 UNK        -0.1800 
     39 N           4.4455  -15.8963  -40.4886 N.am      7 UNK        -0.5000 
     40 C           4.9901  -15.1236  -41.4433 C.2       6 UNK         0.5000 
     41 O           6.0485  -15.3884  -42.0147 O.2       6 UNK        -0.5000 
     42 CA          4.2087  -13.8611  -41.8635 C.3       6 UNK         0.1400 
     43 CB          3.9574  -13.8694  -43.3795 C.3       6 UNK        -0.1800 
     44 N           2.9125  -13.7698  -41.1902 N.am      6 UNK        -0.5000 
     45 C           2.6440  -13.0057  -40.1233 C.2       5 UNK         0.5000 
     46 O           3.4528  -12.2280  -39.6162 O.2       5 UNK        -0.5000 
     47 CA          1.2426  -13.1571  -39.4949 C.3       5 UNK         0.1400 
     48 CB          0.2767  -12.1191  -40.0860 C.3       5 UNK        -0.1800 
     49 N           0.6662  -14.4932  -39.6687 N.am      5 UNK        -0.5000 
     50 C           1.1769  -15.6281  -39.1698 C.2       4 UNK         0.5000 
     51 O           2.1700  -15.6675  -38.4446 O.2       4 UNK        -0.5000 
     52 CA          0.5150  -16.9489  -39.6091 C.3       4 UNK         0.1400 
     53 CB         -0.4762  -17.4402  -38.5447 C.3       4 UNK        -0.1800 
     54 N          -0.1701  -16.8728  -40.9029 N.am      4 UNK        -0.5000 
     55 C           0.4141  -16.5865  -42.0746 C.2       3 UNK         0.5000 
     56 O           1.6168  -16.3303  -42.1796 O.2       3 UNK        -0.5000 
     57 CA         -0.4994  -16.6377  -43.3179 C.3       3 UNK         0.1400 
     58 CB         -1.8731  -15.9781  -43.0705 C.3       3 UNK        -0.1800 
     59 N           0.1134  -16.0952  -44.5339 N.am      3 UNK        -0.5000 
     60 C           0.5272  -14.8374  -44.7536 C.2       2 UNK         0.5000 
     61 O           0.4955  -13.9357  -43.9155 O.2       2 UNK        -0.5000 
     62 CA          0.9653  -14.5215  -46.1911 C.3       2 UNK         0.1400 
     63 CB          2.2333  -15.2850  -46.6103 C.3       2 UNK        -0.1800 
     64 N          -0.1375  -14.8585  -47.0837 N.am      2 UNK        -0.5000 
     65 C          -0.4907  -14.2050  -48.1932 C.2       1 UNK         0.5000 
     66 O           0.1472  -13.2606  -48.6599 O.2       1 UNK        -0.5000 
     67 C          -2.0810  -20.0704  -47.0449 C.2       11 UNK         0.5000 
     68 O          -2.7899  -19.9614  -48.0464 O.2       11 UNK        -0.5000 
     69 N          -2.5585  -20.0429  -45.7917 N.am      12 UNK        -0.5000 
     70 CA         -3.9696  -19.8850  -45.4406 C.3       12 UNK         0.1400 
     71 CB         -4.0829  -19.5434  -43.9473 C.3       12 UNK        -0.1800 
     72 C          -4.8419  -21.1065  -45.8043 C.2       12 UNK         0.5000 
     73 O          -6.0673  -20.9926  -45.7720 O.2       12 UNK        -0.5000 
     74 N          -4.2114  -22.2366  -46.1505 N.am      13 UNK        -0.5000 
     75 CA         -4.8635  -23.4203  -46.7031 C.3       13 UNK         0.1400 
     76 CB         -4.4421  -24.6543  -45.8890 C.3       13 UNK        -0.1800 
     77 C          -4.5016  -23.6017  -48.1873 C.2       13 UNK         0.5000 
     78 O          -5.3831  -23.9087  -48.9896 O.2       13 UNK        -0.5000 
     79 N          -3.2138  -23.4394  -48.5244 N.am      14 UNK        -0.5000 
     80 CA         -2.6707  -23.7380  -49.8487 C.3       14 UNK         0.1400 
     81 CB         -1.1481  -23.9209  -49.7398 C.3       14 UNK        -0.1800 
     82 C          -2.9973  -22.6870  -50.9221 C.2       14 UNK         0.5000 
     83 O          -3.2247  -23.0675  -52.0696 O.2       14 UNK        -0.5000 
     84 N          -2.9638  -21.3996  -50.5556 N.am      15 UNK        -0.5000 
     85 CA         -3.0614  -20.2799  -51.4936 C.3       15 UNK         0.1400 
     86 CB         -1.8623  -19.3443  -51.2828 C.3       15 UNK        -0.1800 
     87 C          -4.3755  -19.5096  -51.3232 C.2       15 UNK         0.5000 
     88 O          -5.0079  -19.1636  -52.3213 O.2       15 UNK        -0.5000 
     89 N          -4.7772  -19.2494  -50.0718 N.am      16 UNK        -0.5000 
     90 CA         -6.0213  -18.5531  -49.7446 C.3       16 UNK         0.1400 
     91 CB         -6.0574  -18.2516  -48.2434 C.3       16 UNK        -0.1800 
     92 C          -7.2463  -19.3807  -50.1711 C.2       16 UNK         0.5000 
     93 O          -7.3430  -20.5532  -49.8035 O.2       16 UNK        -0.5000 
     94 N          -8.1250  -18.7691  -50.9775 N.am      17 UNK        -0.5000 
     95 CA         -9.3286  -19.3200  -51.6221 C.3       17 UNK         0.1400 
     96 CB        -10.3494  -19.8169  -50.5805 C.3       17 UNK        -0.1800 
     97 C          -9.0551  -20.3997  -52.6925 C.2       17 UNK         0.5000 
     98 O          -9.7290  -20.4091  -53.7231 O.2       17 UNK        -0.5000 
     99 N          -8.0728  -21.2743  -52.4474 N.am      18 UNK        -0.5000 
    100 CA        -7.6314  -22.3450  -53.3414 C.3       18 UNK         0.1400 
    101 CB        -6.8053  -23.3463  -52.5240 C.3       18 UNK        -0.1800 
    102 C         -6.8460  -21.8398  -54.5714 C.2       18 UNK         0.5000 
    103 O         -6.7630  -22.5605  -55.5672 O.2       18 UNK        -0.5000 
    104 N         -6.3133  -20.6109  -54.4946 N.am      19 UNK        -0.5000 
    105 CA        -5.6439  -19.8547  -55.5535 C.3       19 UNK         0.1400 
    106 CB        -6.6601  -19.4487  -56.6455 C.3       19 UNK        -0.1800 
    107 C         -4.3915  -20.5771  -56.0872 C.2       19 UNK         0.5000 
    108 O         -3.4233  -20.7296  -55.3435 O.2       19 UNK        -0.5000 
    109 N         -4.4274  -21.0069  -57.3563 N.am      20 UNK        -0.5000 
    110 CA        -3.3270  -21.6387  -58.0914 C.3       20 UNK         0.1400 
    111 CB        -3.7416  -21.7788  -59.5646 C.3       20 UNK        -0.1800 
    112 C         -2.8538  -22.9968  -57.5321 C.2       20 UNK         0.5000 
    113 O         -1.7960  -23.4769  -57.9441 O.2       20 UNK        -0.5000 
    114 N         -3.6164  -23.5850  -56.5989 N.am      21 UNK        -0.5000 
    115 CA        -3.3141  -24.8370  -55.8995 C.3       21 UNK         0.1400 
    116 CB        -4.4541  -25.1403  -54.9193 C.3       21 UNK        -0.1800 
    117 C         -1.9607  -24.8524  -55.1574 C.2       21 UNK         0.5000 
    118 O         -1.4039  -25.9330  -54.9565 O.2       21 UNK        -0.5000 
    119 N         -1.4423  -23.6725  -54.7899 N.am      22 UNK        -0.5000 
    120 CA        -0.0929  -23.4975  -54.2350 C.3       22 UNK         0.1400 
    121 C          1.0719  -23.6894  -55.2548 C.2       22 UNK         0.5000 
    122 N          0.8211  -23.7820  -56.5565 N.am      22 UNK        -0.7600 
    123 O          2.2293  -23.7690  -54.8521 O.2       22 UNK        -0.5000 
    124 C124        0.0371  -22.1756  -53.4384 C.3       23 UNK        -0.0398 
    125 S125       -0.1077  -20.6570  -54.4484 S.3       23 UNK        -0.2404 
    126 C126        1.4912  -19.8421  -54.1330 C.3       23 UNK        -0.0205 
    127 H127       -5.2033  -15.4894  -46.7626 H         1 UNK         0.0600 
    128 H128       -4.2185  -14.9477  -45.3974 H         1 UNK         0.0600 
    129 H129       -4.5083  -16.6701  -45.6493 H         1 UNK         0.0600 
    130 H130       -3.6299  -14.1261  -47.9986 H         1 UNK         0.3000 
    131 H131       -2.1244  -13.8164  -49.4951 H         1 UNK         0.0600 
    132 H132       -0.8852  -16.5956  -49.3925 H         1 UNK         0.0800 
    133 H133       -2.5183  -16.4199  -49.9436 H         1 UNK         0.0800 
    134 H134        1.1950  -15.0999  -52.2824 H         1 UNK         0.0800 
    135 H135        1.1550  -15.1525  -50.5422 H         1 UNK         0.0800 
    136 H136        0.8243  -17.2460  -53.6214 H         1 UNK         0.1150 
    137 H137        2.1857  -20.8131  -51.6752 H         1 UNK         0.1150 
    138 H138        1.5344  -17.2364  -49.4044 H         1 UNK         0.1150 
    139 H139        1.7116  -20.8961  -49.1725 H         1 UNK         0.0800 
    140 H140        3.3106  -20.2043  -49.2390 H         1 UNK         0.0800 
    141 H141       -0.0187  -18.3335  -46.5729 H         1 UNK         0.0800 
    142 H142       -0.1914  -18.4966  -48.2972 H         1 UNK         0.0800 
    143 H143       -0.4586  -20.9168  -48.1278 H         1 UNK         0.0600 
    144 H144        0.6664  -20.7006  -45.5276 H         1 UNK         0.3000 
    145 H145       -0.4245  -23.8546  -44.2816 H         1 UNK         0.0600 
    146 H146        1.9756  -24.4839  -44.3499 H         1 UNK         0.0600 
    147 H147        1.2764  -24.6028  -45.9566 H         1 UNK         0.0600 
    148 H148        2.2986  -23.2299  -45.5486 H         1 UNK         0.0600 
    149 H149        1.6637  -22.1405  -43.4071 H         1 UNK         0.3000 
    150 H150       -0.1938  -19.6184  -41.8577 H         1 UNK         0.0600 
    151 H151       -0.6199  -21.4097  -40.1722 H         1 UNK         0.0600 
    152 H152        0.7220  -20.3839  -39.6938 H         1 UNK         0.0600 
    153 H153        1.0315  -21.9889  -40.3579 H         1 UNK         0.0600 
    154 H154        2.4861  -20.2157  -41.4144 H         1 UNK         0.3000 
    155 H155        4.3044  -19.8389  -43.2422 H         1 UNK         0.0600 
    156 H156        5.0376  -17.7455  -44.4526 H         1 UNK         0.0600 
    157 H157        3.3499  -17.2706  -44.6216 H         1 UNK         0.0600 
    158 H158        3.9466  -18.7288  -45.4130 H         1 UNK         0.0600 
    159 H159        3.2158  -17.3567  -41.9829 H         1 UNK         0.3000 
    160 H160        4.1736  -17.5472  -39.2945 H         1 UNK         0.0600 
    161 H161        7.0671  -16.8939  -40.0581 H         1 UNK         0.0600 
    162 H162        6.5320  -18.0900  -38.8875 H         1 UNK         0.0600 
    163 H163        6.2734  -16.3833  -38.5685 H         1 UNK         0.0600 
    164 H164        3.5935  -15.5674  -40.0523 H         1 UNK         0.3000 
    165 H165        4.8264  -12.9941  -41.6218 H         1 UNK         0.0600 
    166 H166        3.4102  -14.7635  -43.6785 H         1 UNK         0.0600 
    167 H167        3.3782  -13.0003  -43.6916 H         1 UNK         0.0600 
    168 H168        4.8944  -13.8544  -43.9373 H         1 UNK         0.0600 
    169 H169        2.1953  -14.3956  -41.5409 H         1 UNK         0.3000 
    170 H170        1.3384  -12.9693  -38.4235 H         1 UNK         0.0600 
    171 H171        0.6621  -11.1071  -39.9548 H         1 UNK         0.0600 
    172 H172        0.1236  -12.2765  -41.1548 H         1 UNK         0.0600 
    173 H173       -0.6966  -12.1610  -39.5966 H         1 UNK         0.0600 
    174 H174       -0.1445  -14.5590  -40.2661 H         1 UNK         0.3000 
    175 H175        1.3095  -17.6923  -39.7029 H         1 UNK         0.0600 
    176 H176       -1.3121  -16.7499  -38.4242 H         1 UNK         0.0600 
    177 H177       -0.8819  -18.4184  -38.8038 H         1 UNK         0.0600 
    178 H178        0.0105  -17.5395  -37.5734 H         1 UNK         0.0600 
    179 H179       -1.1611  -17.0653  -40.8904 H         1 UNK         0.3000 
    180 H180       -0.6752  -17.6942  -43.5232 H         1 UNK         0.0600 
    181 H181       -1.7755  -14.9359  -42.7648 H         1 UNK         0.0600 
    182 H182       -2.4399  -16.4983  -42.2981 H         1 UNK         0.0600 
    183 H183       -2.4816  -16.0042  -43.9725 H         1 UNK         0.0600 
    184 H184        0.2537  -16.7718  -45.2687 H         1 UNK         0.3000 
    185 H185        1.1672  -13.4497  -46.2475 H         1 UNK         0.0600 
    186 H186        2.5146  -15.0443  -47.6356 H         1 UNK         0.0600 
    187 H187        3.0789  -15.0236  -45.9756 H         1 UNK         0.0600 
    188 H188        2.0960  -16.3640  -46.5512 H         1 UNK         0.0600 
    189 H189       -0.7729  -15.5861  -46.7626 H         1 UNK         0.3000 
    190 H190       -1.9205  -20.2056  -45.0246 H         1 UNK         0.3000 
    191 H191       -4.3537  -19.0357  -46.0057 H         1 UNK         0.0600 
    192 H192       -3.4790  -18.6720  -43.6936 H         1 UNK         0.0600 
    193 H193       -5.1143  -19.3121  -43.6788 H         1 UNK         0.0600 
    194 H194       -3.7614  -20.3736  -43.3187 H         1 UNK         0.0600 
    195 H195       -3.1997  -22.2474  -46.1375 H         1 UNK         0.3000 
    196 H196       -5.9499  -23.3303  -46.6384 H         1 UNK         0.0600 
    197 H197       -4.9072  -25.5590  -46.2825 H         1 UNK         0.0600 
    198 H198       -4.7470  -24.5585  -44.8468 H         1 UNK         0.0600 
    199 H199       -3.3619  -24.8044  -45.9078 H         1 UNK         0.0600 
    200 H200       -2.5318  -23.2395  -47.7972 H         1 UNK         0.3000 
    201 H201       -3.0948  -24.6878  -50.1823 H         1 UNK         0.0600 
    202 H202       -0.8954  -24.7161  -49.0382 H         1 UNK         0.0600 
    203 H203       -0.6547  -23.0090  -49.4025 H         1 UNK         0.0600 
    204 H204       -0.7166  -24.1896  -50.7051 H         1 UNK         0.0600 
    205 H205       -2.8321  -21.1577  -49.5795 H         1 UNK         0.3000 
    206 H206       -3.0212  -20.6358  -52.5256 H         1 UNK         0.0600 
    207 H207       -0.9258  -19.8860  -51.3994 H         1 UNK         0.0600 
    208 H208       -1.8631  -18.5362  -52.0153 H         1 UNK         0.0600 
    209 H209       -1.8604  -18.8907  -50.2924 H         1 UNK         0.0600 
    210 H210       -4.1992  -19.5549  -49.2950 H         1 UNK         0.3000 
    211 H211       -6.0197  -17.6019  -50.2812 H         1 UNK         0.0600 
    212 H212       -6.1688  -19.1633  -47.6592 H         1 UNK         0.0600 
    213 H213       -6.8941  -17.5981  -47.9947 H         1 UNK         0.0600 
    214 H214       -5.1425  -17.7561  -47.9250 H         1 UNK         0.0600 
    215 H215       -7.9173  -17.8163  -51.2434 H         1 UNK         0.3000 
    216 H216       -9.7862  -18.4794  -52.1462 H         1 UNK         0.0600 
    217 H217      -10.5881  -19.0362  -49.8584 H         1 UNK         0.0600 
    218 H218       -9.9841  -20.6839  -50.0297 H         1 UNK         0.0600 
    219 H219      -11.2828  -20.1103  -51.0626 H         1 UNK         0.0600 
    220 H220       -7.6064  -21.2037  -51.5468 H         1 UNK         0.3000 
    221 H221       -8.5195  -22.8613  -53.7115 H         1 UNK         0.0600 
    222 H222       -5.8696  -22.9055  -52.1806 H         1 UNK         0.0600 
    223 H223       -7.3524  -23.6891  -51.6453 H         1 UNK         0.0600 
    224 H224       -6.5670  -24.2292  -53.1156 H         1 UNK         0.0600 
    225 H225       -6.3309  -20.1422  -53.5961 H         1 UNK         0.3000 
    226 H226       -5.2827  -18.9358  -55.0897 H         1 UNK         0.0600 
    227 H227       -7.4737  -18.8637  -56.2165 H         1 UNK         0.0600 
    228 H228       -6.1908  -18.8284  -57.4103 H         1 UNK         0.0600 
    229 H229       -7.1059  -20.3121  -57.1406 H         1 UNK         0.0600 
    230 H230       -5.2828  -20.8677  -57.8741 H         1 UNK         0.3000 
    231 H231       -2.4705  -20.9634  -58.0409 H         1 UNK         0.0600 
    232 H232       -2.9350  -22.2069  -60.1613 H         1 UNK         0.0600 
    233 H233       -3.9850  -20.8099  -60.0011 H         1 UNK         0.0600 
    234 H234       -4.6117  -22.4271  -59.6761 H         1 UNK         0.0600 
    235 H235       -4.4661  -23.1120  -56.3204 H         1 UNK         0.3000 
    236 H236       -3.2838  -25.6292  -56.6499 H         1 UNK         0.0600 
    237 H237       -5.4170  -25.1897  -55.4281 H         1 UNK         0.0600 
    238 H238       -4.2989  -26.0963  -54.4177 H         1 UNK         0.0600 
    239 H239       -4.5157  -24.3714  -54.1494 H         1 UNK         0.0600 
    240 H240       -1.9654  -22.8261  -54.9729 H         1 UNK         0.3000 
    241 H241        0.0418  -24.2983  -53.5051 H         1 UNK         0.0600 
    242 H242       -0.1248  -23.7077  -56.9176 H         1 UNK         0.3800 
    243 H243        1.5868  -23.9115  -57.1980 H         1 UNK         0.3800 
    244 H244        0.9844  -22.1792  -52.9026 H         1 UNK         0.0800 
    245 H245       -0.7287  -22.1336  -52.6660 H         1 UNK         0.0800 
    246 H246        2.2990  -20.5744  -54.1777 H         1 UNK         0.0800 
    247 H247        1.6840  -19.1326  -54.9389 H         1 UNK         0.0800 
@<TRIPOS>BOND
     1    1    2 1    
     2    1  127 1    
     3    1  128 1    
     4    1  129 1    
     5    2    3 2    
     6    2    4 am   BACKBONE|DICT|INTERRES
     7    4    5 1    
     8    4  130 1    
     9    5    6 1    
    10    5   65 1    
    11    5  131 1    
    12    6    7 1    
    13    6  132 1    
    14    6  133 1    
    15    7    8 1    
    16    8    9 1    
    17    8  134 1    
    18    8  135 1    
    19    9   10 ar   
    20    9   14 ar   
    21   10   11 ar   
    22   10  136 1    
    23   11   12 ar   
    24   11  126 1    
    25   12   13 ar   
    26   12  137 1    
    27   13   14 ar   
    28   13   15 1    
    29   14  138 1    
    30   15   16 1    
    31   15  139 1    
    32   15  140 1    
    33   16   17 1    
    34   17   18 1    
    35   17  141 1    
    36   17  142 1    
    37   18   19 1    
    38   18   67 1    
    39   18  143 1    
    40   19   20 am   BACKBONE|DICT|INTERRES
    41   19  144 1    
    42   20   21 2    
    43   20   22 1    
    44   22   23 1    
    45   22   24 1    
    46   22  145 1    
    47   23  146 1    
    48   23  147 1    
    49   23  148 1    
    50   24   25 am   BACKBONE|DICT|INTERRES
    51   24  149 1    
    52   25   26 2    
    53   25   27 1    
    54   27   28 1    
    55   27   29 1    
    56   27  150 1    
    57   28  151 1    
    58   28  152 1    
    59   28  153 1    
    60   29   30 am   BACKBONE|DICT|INTERRES
    61   29  154 1    
    62   30   31 2    
    63   30   32 1    
    64   32   33 1    
    65   32   34 1    
    66   32  155 1    
    67   33  156 1    
    68   33  157 1    
    69   33  158 1    
    70   34   35 am   BACKBONE|DICT|INTERRES
    71   34  159 1    
    72   35   36 2    
    73   35   37 1    
    74   37   38 1    
    75   37   39 1    
    76   37  160 1    
    77   38  161 1    
    78   38  162 1    
    79   38  163 1    
    80   39   40 am   BACKBONE|DICT|INTERRES
    81   39  164 1    
    82   40   41 2    
    83   40   42 1    
    84   42   43 1    
    85   42   44 1    
    86   42  165 1    
    87   43  166 1    
    88   43  167 1    
    89   43  168 1    
    90   44   45 am   BACKBONE|DICT|INTERRES
    91   44  169 1    
    92   45   46 2    
    93   45   47 1    
    94   47   48 1    
    95   47   49 1    
    96   47  170 1    
    97   48  171 1    
    98   48  172 1    
    99   48  173 1    
   100   49   50 am   BACKBONE|DICT|INTERRES
   101   49  174 1    
   102   50   51 2    
   103   50   52 1    
   104   52   53 1    
   105   52   54 1    
   106   52  175 1    
   107   53  176 1    
   108   53  177 1    
   109   53  178 1    
   110   54   55 am   BACKBONE|DICT|INTERRES
   111   54  179 1    
   112   55   56 2    
   113   55   57 1    
   114   57   58 1    
   115   57   59 1    
   116   57  180 1    
   117   58  181 1    
   118   58  182 1    
   119   58  183 1    
   120   59   60 am   BACKBONE|DICT|INTERRES
   121   59  184 1    
   122   60   61 2    
   123   60   62 1    
   124   62   63 1    
   125   62   64 1    
   126   62  185 1    
   127   63  186 1    
   128   63  187 1    
   129   63  188 1    
   130   64   65 am   BACKBONE|DICT|INTERRES
   131   64  189 1    
   132   65   66 2    
   133   67   68 2    
   134   67   69 am   BACKBONE|DICT|INTERRES
   135   69   70 1    
   136   69  190 1    
   137   70   71 1    
   138   70   72 1    
   139   70  191 1    
   140   71  192 1    
   141   71  193 1    
   142   71  194 1    
   143   72   73 2    
   144   72   74 am   BACKBONE|DICT|INTERRES
   145   74   75 1    
   146   74  195 1    
   147   75   76 1    
   148   75   77 1    
   149   75  196 1    
   150   76  197 1    
   151   76  198 1    
   152   76  199 1    
   153   77   78 2    
   154   77   79 am   BACKBONE|DICT|INTERRES
   155   79   80 1    
   156   79  200 1    
   157   80   81 1    
   158   80   82 1    
   159   80  201 1    
   160   81  202 1    
   161   81  203 1    
   162   81  204 1    
   163   82   83 2    
   164   82   84 am   BACKBONE|DICT|INTERRES
   165   84   85 1    
   166   84  205 1    
   167   85   86 1    
   168   85   87 1    
   169   85  206 1    
   170   86  207 1    
   171   86  208 1    
   172   86  209 1    
   173   87   88 2    
   174   87   89 am   BACKBONE|DICT|INTERRES
   175   89   90 1    
   176   89  210 1    
   177   90   91 1    
   178   90   92 1    
   179   90  211 1    
   180   91  212 1    
   181   91  213 1    
   182   91  214 1    
   183   92   93 2    
   184   92   94 am   BACKBONE|DICT|INTERRES
   185   94   95 1    
   186   94  215 1    
   187   95   96 1    
   188   95   97 1    
   189   95  216 1    
   190   96  217 1    
   191   96  218 1    
   192   96  219 1    
   193   97   98 2    
   194   97   99 am   BACKBONE|DICT|INTERRES
   195   99  100 1    
   196   99  220 1    
   197  100  101 1    
   198  100  102 1    
   199  100  221 1    
   200  101  222 1    
   201  101  223 1    
   202  101  224 1    
   203  102  103 2    
   204  102  104 am   BACKBONE|DICT|INTERRES
   205  104  105 1    
   206  104  225 1    
   207  105  106 1    
   208  105  107 1    
   209  105  226 1    
   210  106  227 1    
   211  106  228 1    
   212  106  229 1    
   213  107  108 2    
   214  107  109 am   BACKBONE|DICT|INTERRES
   215  109  110 1    
   216  109  230 1    
   217  110  111 1    
   218  110  112 1    
   219  110  231 1    
   220  111  232 1    
   221  111  233 1    
   222  111  234 1    
   223  112  113 2    
   224  112  114 am   BACKBONE|DICT|INTERRES
   225  114  115 1    
   226  114  235 1    
   227  115  116 1    
   228  115  117 1    
   229  115  236 1    
   230  116  237 1    
   231  116  238 1    
   232  116  239 1    
   233  117  118 2    
   234  117  119 am   BACKBONE|DICT|INTERRES
   235  119  120 1    
   236  119  240 1    
   237  120  121 1    
   238  120  124 1    
   239  120  241 1    
   240  121  122 am   BACKBONE|DICT|INTERRES
   241  121  123 2    
   242  122  242 1    
   243  122  243 1    
   244  124  125 1    
   245  124  244 1    
   246  124  245 1    
   247  125  126 1    
   248  126  246 1    
   249  126  247 1    
@<TRIPOS>SUBSTRUCTURE
     1 UNK         1 GROUP             0       ****    0 ROOT    
