@<TRIPOS>MOLECULE
3R540
247   249    1
SMALL
USER_CHARGES


@<TRIPOS>ATOM
      1 CA          5.8582  -13.5305  -46.6514 C.3       0 UNK        -0.1800 
      2 C           4.4793  -13.1107  -46.1688 C.2       0 UNK         0.5000 
      3 O           4.2677  -12.9715  -44.9639 O.2       0 UNK        -0.5000 
      4 N           3.5283  -12.9211  -47.0914 N.am      1 UNK        -0.5000 
      5 CA          2.1530  -12.5040  -46.7844 C.3       1 UNK         0.1400 
      6 C6          1.1763  -12.7661  -47.9528 C.3       23 UNK        -0.0398 
      7 S7          1.0354  -14.5474  -48.3047 S.3       23 UNK        -0.2404 
      8 C8         -0.6062  -14.6273  -49.0798 C.3       23 UNK        -0.0205 
      9 C9         -1.0010  -16.0697  -49.3489 C.ar      23 UNK        -0.0193 
     10 C10        -0.4109  -16.7717  -50.4019 C.ar      23 UNK        -0.1150 
     11 C11        -0.7433  -18.1077  -50.6382 C.ar      23 UNK        -0.0193 
     12 C12        -1.6741  -18.7407  -49.8104 C.ar      23 UNK        -0.1150 
     13 C13        -2.2956  -18.0421  -48.7662 C.ar      23 UNK        -0.0193 
     14 C14        -1.9454  -16.7075  -48.5407 C.ar      23 UNK        -0.1150 
     15 C15        -3.3101  -18.7021  -47.8358 C.3       23 UNK        -0.0205 
     16 S16        -4.2507  -20.0721  -48.5911 S.3       23 UNK        -0.2404 
     17 C17        -4.2288  -21.3054  -47.2514 C.3       23 UNK        -0.0398 
     18 CA         -3.0133  -22.2568  -47.3611 C.3       11 UNK         0.1400 
     19 N          -1.7418  -21.5945  -47.0596 N.am      11 UNK        -0.5000 
     20 C          -0.5294  -22.1088  -47.3036 C.2       10 UNK         0.5000 
     21 O          -0.3417  -23.1997  -47.8417 O.2       10 UNK        -0.5000 
     22 CA          0.6744  -21.2871  -46.8069 C.3       10 UNK         0.1400 
     23 CB          1.0542  -20.2012  -47.8241 C.3       10 UNK        -0.1800 
     24 N           0.4365  -20.6712  -45.4991 N.am      10 UNK        -0.5000 
     25 C           0.2485  -21.3652  -44.3670 C.2       9 UNK         0.5000 
     26 O           0.2822  -22.5936  -44.3085 O.2       9 UNK        -0.5000 
     27 CA         -0.0786  -20.5640  -43.0953 C.3       9 UNK         0.1400 
     28 CB          1.2030  -19.9992  -42.4663 C.3       9 UNK        -0.1800 
     29 N          -1.0288  -19.4744  -43.3158 N.am      9 UNK        -0.5000 
     30 C          -2.2713  -19.5910  -43.7993 C.2       8 UNK         0.5000 
     31 O          -2.7616  -20.6629  -44.1537 O.2       8 UNK        -0.5000 
     32 CA         -3.1017  -18.2986  -43.9539 C.3       8 UNK         0.1400 
     33 CB         -3.8540  -17.9609  -42.6533 C.3       8 UNK        -0.1800 
     34 N          -2.3391  -17.1473  -44.4623 N.am      8 UNK        -0.5000 
     35 C          -1.3452  -16.4742  -43.8670 C.2       7 UNK         0.5000 
     36 O          -0.9629  -16.6768  -42.7127 O.2       7 UNK        -0.5000 
     37 CA         -0.6021  -15.4458  -44.7376 C.3       7 UNK         0.1400 
     38 CB         -0.8783  -14.0150  -44.2523 C.3       7 UNK        -0.1800 
     39 N           0.8398  -15.6925  -44.7306 N.am      7 UNK        -0.5000 
     40 C           1.4354  -16.8247  -45.1364 C.2       6 UNK         0.5000 
     41 O           0.8268  -17.7976  -45.5846 O.2       6 UNK        -0.5000 
     42 CA          2.9680  -16.8916  -45.0154 C.3       6 UNK         0.1400 
     43 CB          3.6238  -16.7161  -46.3927 C.3       6 UNK        -0.1800 
     44 N           3.5028  -15.8878  -44.0899 N.am      6 UNK        -0.5000 
     45 C           3.6564  -16.0894  -42.7735 C.2       5 UNK         0.5000 
     46 O           3.3770  -17.1427  -42.2015 O.2       5 UNK        -0.5000 
     47 CA          4.2034  -14.9074  -41.9607 C.3       5 UNK         0.1400 
     48 CB          5.7097  -14.7231  -42.2076 C.3       5 UNK        -0.1800 
     49 N           3.5082  -13.6710  -42.3055 N.am      5 UNK        -0.5000 
     50 C           2.4087  -13.2103  -41.6948 C.2       4 UNK         0.5000 
     51 O           1.8465  -13.8015  -40.7721 O.2       4 UNK        -0.5000 
     52 CA          1.8452  -11.8654  -42.2067 C.3       4 UNK         0.1400 
     53 CB          1.0467  -11.0969  -41.1340 C.3       4 UNK        -0.1800 
     54 N           2.8636  -11.0077  -42.8222 N.am      4 UNK        -0.5000 
     55 C           3.9533  -10.4743  -42.2458 C.2       3 UNK         0.5000 
     56 O           4.2072  -10.5640  -41.0442 O.2       3 UNK        -0.5000 
     57 CA          4.9531   -9.7491  -43.1711 C.3       3 UNK         0.1400 
     58 CB          6.2944  -10.5014  -43.2028 C.3       3 UNK        -0.1800 
     59 N           4.4611   -9.6297  -44.5446 N.am      3 UNK        -0.5000 
     60 C           3.6897   -8.6360  -45.0058 C.2       2 UNK         0.5000 
     61 O           3.3701   -7.6505  -44.3408 O.2       2 UNK        -0.5000 
     62 CA          3.1611   -8.7898  -46.4465 C.3       2 UNK         0.1400 
     63 CB          4.0981   -8.0890  -47.4417 C.3       2 UNK        -0.1800 
     64 N           2.9955  -10.1908  -46.8485 N.am      2 UNK        -0.5000 
     65 C           2.0895  -11.0330  -46.3289 C.2       1 UNK         0.5000 
     66 O           1.2664  -10.7037  -45.4758 O.2       1 UNK        -0.5000 
     67 C          -3.2088  -23.5006  -46.4791 C.2       11 UNK         0.5000 
     68 O          -3.5750  -24.5520  -47.0002 O.2       11 UNK        -0.5000 
     69 N          -2.9258  -23.3738  -45.1756 N.am      12 UNK        -0.5000 
     70 CA         -2.9887  -24.4682  -44.2066 C.3       12 UNK         0.1400 
     71 CB         -2.7729  -23.9083  -42.7924 C.3       12 UNK        -0.1800 
     72 C          -1.9865  -25.5991  -44.5089 C.2       12 UNK         0.5000 
     73 O          -2.3345  -26.7712  -44.3618 O.2       12 UNK        -0.5000 
     74 N          -0.7718  -25.2284  -44.9352 N.am      13 UNK        -0.5000 
     75 CA          0.2970  -26.1534  -45.3013 C.3       13 UNK         0.1400 
     76 CB          1.6315  -25.3939  -45.3711 C.3       13 UNK        -0.1800 
     77 C           0.0221  -26.8952  -46.6211 C.2       13 UNK         0.5000 
     78 O           0.1197  -28.1228  -46.6550 O.2       13 UNK        -0.5000 
     79 N          -0.2868  -26.1445  -47.6877 N.am      14 UNK        -0.5000 
     80 CA         -0.4243  -26.6864  -49.0413 C.3       14 UNK         0.1400 
     81 CB         -0.1347  -25.5749  -50.0588 C.3       14 UNK        -0.1800 
     82 C          -1.7996  -27.3138  -49.3244 C.2       14 UNK         0.5000 
     83 O          -1.8887  -28.1768  -50.1990 O.2       14 UNK        -0.5000 
     84 N          -2.8455  -26.8516  -48.6228 N.am      15 UNK        -0.5000 
     85 CA         -4.2689  -27.1916  -48.7590 C.3       15 UNK         0.1400 
     86 CB         -4.5289  -28.6917  -48.5208 C.3       15 UNK        -0.1800 
     87 C          -4.8923  -26.7054  -50.0820 C.2       15 UNK         0.5000 
     88 O          -5.8679  -25.9544  -50.0582 O.2       15 UNK        -0.5000 
     89 N          -4.3064  -27.1182  -51.2128 N.am      16 UNK        -0.5000 
     90 CA         -4.7441  -26.7930  -52.5714 C.3       16 UNK         0.1400 
     91 CB         -3.9605  -27.6567  -53.5701 C.3       16 UNK        -0.1800 
     92 C          -4.6028  -25.3024  -52.9276 C.2       16 UNK         0.5000 
     93 O          -5.3746  -24.8061  -53.7474 O.2       16 UNK        -0.5000 
     94 N          -3.6516  -24.6078  -52.2859 N.am      17 UNK        -0.5000 
     95 CA         -3.3552  -23.1838  -52.4781 C.3       17 UNK         0.1400 
     96 CB         -2.1590  -22.7992  -51.5965 C.3       17 UNK        -0.1800 
     97 C          -4.5440  -22.2443  -52.2008 C.2       17 UNK         0.5000 
     98 O          -4.6251  -21.1771  -52.8093 O.2       17 UNK        -0.5000 
     99 N          -5.4555  -22.6660  -51.3133 N.am      18 UNK        -0.5000 
    100 CA        -6.6934  -21.9545  -50.9969 C.3       18 UNK         0.1400 
    101 CB        -7.3239  -22.5865  -49.7472 C.3       18 UNK        -0.1800 
    102 C         -7.7057  -21.9637  -52.1582 C.2       18 UNK         0.5000 
    103 O         -8.4733  -21.0112  -52.2989 O.2       18 UNK        -0.5000 
    104 N         -7.6980  -23.0401  -52.9551 N.am      19 UNK        -0.5000 
    105 CA        -8.5864  -23.2326  -54.0984 C.3       19 UNK         0.1400 
    106 CB        -8.9697  -24.7182  -54.1901 C.3       19 UNK        -0.1800 
    107 C         -7.9313  -22.7657  -55.4071 C.2       19 UNK         0.5000 
    108 O         -8.6109  -22.1704  -56.2440 O.2       19 UNK        -0.5000 
    109 N         -6.6327  -23.0466  -55.5633 N.am      20 UNK        -0.5000 
    110 CA        -5.8559  -22.7872  -56.7674 C.3       20 UNK         0.1400 
    111 CB        -5.7148  -24.1050  -57.5522 C.3       20 UNK        -0.1800 
    112 C         -4.4889  -22.1923  -56.3758 C.2       20 UNK         0.5000 
    113 O         -3.5300  -22.9470  -56.2180 O.2       20 UNK        -0.5000 
    114 N         -4.3559  -20.8709  -56.2045 N.am      21 UNK        -0.5000 
    115 CA        -5.3942  -19.8364  -56.2666 C.3       21 UNK         0.1400 
    116 CB        -5.5696  -19.3721  -57.7278 C.3       21 UNK        -0.1800 
    117 C         -5.0562  -18.6345  -55.3587 C.2       21 UNK         0.5000 
    118 O         -5.7744  -17.6342  -55.3967 O.2       21 UNK        -0.5000 
    119 N         -3.9560  -18.7181  -54.5999 N.am      22 UNK        -0.5000 
    120 CA        -3.4215  -17.6315  -53.7653 C.3       22 UNK         0.1400 
    121 C         -4.0959  -17.4907  -52.3711 C.2       22 UNK         0.5000 
    122 N         -4.7570  -18.5152  -51.8488 N.am      22 UNK        -0.7600 
    123 O         -4.0443  -16.4206  -51.7716 O.2       22 UNK        -0.5000 
    124 C124       -1.8745  -17.7055  -53.6710 C.3       23 UNK        -0.0398 
    125 S125       -1.2494  -19.3271  -53.0971 S.3       23 UNK        -0.2404 
    126 C126       -0.0806  -18.8695  -51.7764 C.3       23 UNK        -0.0205 
    127 H127        6.5977  -12.7835  -46.3636 H         1 UNK         0.0600 
    128 H128        5.8902  -13.6459  -47.7348 H         1 UNK         0.0600 
    129 H129        6.1384  -14.4813  -46.1982 H         1 UNK         0.0600 
    130 H130        3.7357  -13.0812  -48.0672 H         1 UNK         0.3000 
    131 H131        1.8135  -13.1012  -45.9356 H         1 UNK         0.0600 
    132 H132        0.1833  -12.3830  -47.7094 H         1 UNK         0.0800 
    133 H133        1.4973  -12.2484  -48.8583 H         1 UNK         0.0800 
    134 H134       -1.3413  -14.1457  -48.4332 H         1 UNK         0.0800 
    135 H135       -0.5967  -14.0667  -50.0157 H         1 UNK         0.0800 
    136 H136        0.3187  -16.2774  -51.0277 H         1 UNK         0.1150 
    137 H137       -1.9123  -19.7784  -49.9926 H         1 UNK         0.1150 
    138 H138       -2.4068  -16.1618  -47.7308 H         1 UNK         0.1150 
    139 H139       -2.7706  -19.0502  -46.9569 H         1 UNK         0.0800 
    140 H140       -4.0298  -17.9616  -47.4835 H         1 UNK         0.0800 
    141 H141       -5.1599  -21.8678  -47.3236 H         1 UNK         0.0800 
    142 H142       -4.2646  -20.8067  -46.2828 H         1 UNK         0.0800 
    143 H143       -2.9618  -22.6132  -48.3908 H         1 UNK         0.0600 
    144 H144       -1.7933  -20.7244  -46.5542 H         1 UNK         0.3000 
    145 H145        1.5200  -21.9710  -46.7095 H         1 UNK         0.0600 
    146 H146        1.1826  -20.6210  -48.8226 H         1 UNK         0.0600 
    147 H147        1.9921  -19.7186  -47.5497 H         1 UNK         0.0600 
    148 H148        0.2910  -19.4255  -47.8867 H         1 UNK         0.0600 
    149 H149        0.4257  -19.6541  -45.4674 H         1 UNK         0.3000 
    150 H150       -0.5337  -21.2523  -42.3807 H         1 UNK         0.0600 
    151 H151        1.6872  -19.2755  -43.1223 H         1 UNK         0.0600 
    152 H152        1.9231  -20.7930  -42.2639 H         1 UNK         0.0600 
    153 H153        0.9930  -19.5011  -41.5197 H         1 UNK         0.0600 
    154 H154       -0.7276  -18.5428  -43.0453 H         1 UNK         0.3000 
    155 H155       -3.8568  -18.5074  -44.7132 H         1 UNK         0.0600 
    156 H156       -3.1751  -17.7835  -41.8190 H         1 UNK         0.0600 
    157 H157       -4.5123  -18.7812  -42.3641 H         1 UNK         0.0600 
    158 H158       -4.4751  -17.0737  -42.7758 H         1 UNK         0.0600 
    159 H159       -2.5466  -16.9025  -45.4188 H         1 UNK         0.3000 
    160 H160       -0.9441  -15.5320  -45.7707 H         1 UNK         0.0600 
    161 H161       -0.5414  -13.8683  -43.2255 H         1 UNK         0.0600 
    162 H162       -1.9464  -13.7958  -44.2791 H         1 UNK         0.0600 
    163 H163       -0.3825  -13.2766  -44.8821 H         1 UNK         0.0600 
    164 H164        1.4201  -14.9801  -44.3190 H         1 UNK         0.3000 
    165 H165        3.2225  -17.8906  -44.6551 H         1 UNK         0.0600 
    166 H166        4.7096  -16.7837  -46.3266 H         1 UNK         0.0600 
    167 H167        3.2908  -17.4922  -47.0831 H         1 UNK         0.0600 
    168 H168        3.3711  -15.7569  -46.8411 H         1 UNK         0.0600 
    169 H169        3.7644  -14.9893  -44.4762 H         1 UNK         0.3000 
    170 H170        4.0608  -15.1271  -40.9004 H         1 UNK         0.0600 
    171 H171        6.1100  -13.9137  -41.5967 H         1 UNK         0.0600 
    172 H172        5.9272  -14.4904  -43.2507 H         1 UNK         0.0600 
    173 H173        6.2608  -15.6285  -41.9505 H         1 UNK         0.0600 
    174 H174        3.8750  -13.1547  -43.1000 H         1 UNK         0.3000 
    175 H175        1.1514  -12.1182  -43.0083 H         1 UNK         0.0600 
    176 H176        0.1891  -11.6784  -40.7938 H         1 UNK         0.0600 
    177 H177        1.6554  -10.8711  -40.2582 H         1 UNK         0.0600 
    178 H178        0.6625  -10.1562  -41.5284 H         1 UNK         0.0600 
    179 H179        2.7387  -10.8491  -43.8130 H         1 UNK         0.3000 
    180 H180        5.1270   -8.7543  -42.7560 H         1 UNK         0.0600 
    181 H181        6.1792  -11.5175  -43.5821 H         1 UNK         0.0600 
    182 H182        6.7279  -10.5729  -42.2044 H         1 UNK         0.0600 
    183 H183        7.0201   -9.9878  -43.8337 H         1 UNK         0.0600 
    184 H184        4.6626  -10.4064  -45.1575 H         1 UNK         0.3000 
    185 H185        2.1842   -8.3038  -46.4941 H         1 UNK         0.0600 
    186 H186        4.2235   -7.0363  -47.1848 H         1 UNK         0.0600 
    187 H187        5.0891   -8.5447  -47.4520 H         1 UNK         0.0600 
    188 H188        3.6986   -8.1292  -48.4552 H         1 UNK         0.0600 
    189 H189        3.6434  -10.5448  -47.5374 H         1 UNK         0.3000 
    190 H190       -2.6667  -22.4592  -44.8157 H         1 UNK         0.3000 
    191 H191       -3.9929  -24.8946  -44.2533 H         1 UNK         0.0600 
    192 H192       -3.5156  -23.1473  -42.5519 H         1 UNK         0.0600 
    193 H193       -2.8584  -24.6963  -42.0433 H         1 UNK         0.0600 
    194 H194       -1.7863  -23.4576  -42.6839 H         1 UNK         0.0600 
    195 H195       -0.5442  -24.2386  -44.9587 H         1 UNK         0.3000 
    196 H196        0.3817  -26.9024  -44.5110 H         1 UNK         0.0600 
    197 H197        2.4486  -26.0611  -45.6483 H         1 UNK         0.0600 
    198 H198        1.8839  -24.9547  -44.4059 H         1 UNK         0.0600 
    199 H199        1.6002  -24.5878  -46.1051 H         1 UNK         0.0600 
    200 H200       -0.3411  -25.1335  -47.5939 H         1 UNK         0.3000 
    201 H201        0.3252  -27.4678  -49.1855 H         1 UNK         0.0600 
    202 H202       -0.1998  -25.9472  -51.0821 H         1 UNK         0.0600 
    203 H203        0.8665  -25.1656  -49.9230 H         1 UNK         0.0600 
    204 H204       -0.8454  -24.7565  -49.9586 H         1 UNK         0.0600 
    205 H205       -2.6724  -26.1073  -47.9549 H         1 UNK         0.3000 
    206 H206       -4.7809  -26.6543  -47.9600 H         1 UNK         0.0600 
    207 H207       -4.1316  -29.0097  -47.5568 H         1 UNK         0.0600 
    208 H208       -5.5990  -28.9019  -48.5165 H         1 UNK         0.0600 
    209 H209       -4.0800  -29.3188  -49.2911 H         1 UNK         0.0600 
    210 H210       -3.4791  -27.7019  -51.1186 H         1 UNK         0.3000 
    211 H211       -5.8026  -27.0488  -52.6529 H         1 UNK         0.0600 
    212 H212       -2.8881  -27.4666  -53.5108 H         1 UNK         0.0600 
    213 H213       -4.2751  -27.4533  -54.5948 H         1 UNK         0.0600 
    214 H214       -4.1236  -28.7187  -53.3856 H         1 UNK         0.0600 
    215 H215       -3.0755  -25.1043  -51.6236 H         1 UNK         0.3000 
    216 H216       -3.0701  -23.0418  -53.5218 H         1 UNK         0.0600 
    217 H217       -1.9506  -21.7317  -51.6559 H         1 UNK         0.0600 
    218 H218       -1.2550  -23.3217  -51.9087 H         1 UNK         0.0600 
    219 H219       -2.3432  -23.0316  -50.5489 H         1 UNK         0.0600 
    220 H220       -5.3234  -23.5652  -50.8714 H         1 UNK         0.3000 
    221 H221       -6.4450  -20.9152  -50.7724 H         1 UNK         0.0600 
    222 H222       -7.6144  -23.6231  -49.9238 H         1 UNK         0.0600 
    223 H223       -6.6335  -22.5756  -48.9063 H         1 UNK         0.0600 
    224 H224       -8.2178  -22.0411  -49.4423 H         1 UNK         0.0600 
    225 H225       -6.9922  -23.7502  -52.8081 H         1 UNK         0.3000 
    226 H226       -9.5050  -22.6587  -53.9577 H         1 UNK         0.0600 
    227 H227       -9.6436  -24.8961  -55.0291 H         1 UNK         0.0600 
    228 H228       -8.0952  -25.3549  -54.3309 H         1 UNK         0.0600 
    229 H229       -9.4817  -25.0486  -53.2862 H         1 UNK         0.0600 
    230 H230       -6.1442  -23.5605  -54.8321 H         1 UNK         0.3000 
    231 H231       -6.3757  -22.0856  -57.4176 H         1 UNK         0.0600 
    232 H232       -5.2540  -24.8882  -56.9482 H         1 UNK         0.0600 
    233 H233       -5.0989  -23.9665  -58.4415 H         1 UNK         0.0600 
    234 H234       -6.6870  -24.4703  -57.8832 H         1 UNK         0.0600 
    235 H235       -3.4311  -20.5215  -56.0053 H         1 UNK         0.3000 
    236 H236       -6.3385  -20.2373  -55.8967 H         1 UNK         0.0600 
    237 H237       -5.7876  -20.1944  -58.4068 H         1 UNK         0.0600 
    238 H238       -6.3920  -18.6610  -57.8159 H         1 UNK         0.0600 
    239 H239       -4.6700  -18.8769  -58.0954 H         1 UNK         0.0600 
    240 H240       -3.4878  -19.6061  -54.4977 H         1 UNK         0.3000 
    241 H241       -3.6426  -16.6933  -54.2785 H         1 UNK         0.0600 
    242 H242       -5.1703  -18.4175  -50.9368 H         1 UNK         0.3800 
    243 H243       -4.7541  -19.4218  -52.3108 H         1 UNK         0.3800 
    244 H244       -1.4908  -16.9011  -53.0427 H         1 UNK         0.0800 
    245 H245       -1.4478  -17.5258  -54.6584 H         1 UNK         0.0800 
    246 H246        0.7347  -18.2889  -52.2106 H         1 UNK         0.0800 
    247 H247        0.3708  -19.7788  -51.3772 H         1 UNK         0.0800 
@<TRIPOS>BOND
     1    1    2 1    
     2    1  127 1    
     3    1  128 1    
     4    1  129 1    
     5    2    3 2    
     6    2    4 am   BACKBONE|DICT|INTERRES
     7    4    5 1    
     8    4  130 1    
     9    5    6 1    
    10    5   65 1    
    11    5  131 1    
    12    6    7 1    
    13    6  132 1    
    14    6  133 1    
    15    7    8 1    
    16    8    9 1    
    17    8  134 1    
    18    8  135 1    
    19    9   10 ar   
    20    9   14 ar   
    21   10   11 ar   
    22   10  136 1    
    23   11   12 ar   
    24   11  126 1    
    25   12   13 ar   
    26   12  137 1    
    27   13   14 ar   
    28   13   15 1    
    29   14  138 1    
    30   15   16 1    
    31   15  139 1    
    32   15  140 1    
    33   16   17 1    
    34   17   18 1    
    35   17  141 1    
    36   17  142 1    
    37   18   19 1    
    38   18   67 1    
    39   18  143 1    
    40   19   20 am   BACKBONE|DICT|INTERRES
    41   19  144 1    
    42   20   21 2    
    43   20   22 1    
    44   22   23 1    
    45   22   24 1    
    46   22  145 1    
    47   23  146 1    
    48   23  147 1    
    49   23  148 1    
    50   24   25 am   BACKBONE|DICT|INTERRES
    51   24  149 1    
    52   25   26 2    
    53   25   27 1    
    54   27   28 1    
    55   27   29 1    
    56   27  150 1    
    57   28  151 1    
    58   28  152 1    
    59   28  153 1    
    60   29   30 am   BACKBONE|DICT|INTERRES
    61   29  154 1    
    62   30   31 2    
    63   30   32 1    
    64   32   33 1    
    65   32   34 1    
    66   32  155 1    
    67   33  156 1    
    68   33  157 1    
    69   33  158 1    
    70   34   35 am   BACKBONE|DICT|INTERRES
    71   34  159 1    
    72   35   36 2    
    73   35   37 1    
    74   37   38 1    
    75   37   39 1    
    76   37  160 1    
    77   38  161 1    
    78   38  162 1    
    79   38  163 1    
    80   39   40 am   BACKBONE|DICT|INTERRES
    81   39  164 1    
    82   40   41 2    
    83   40   42 1    
    84   42   43 1    
    85   42   44 1    
    86   42  165 1    
    87   43  166 1    
    88   43  167 1    
    89   43  168 1    
    90   44   45 am   BACKBONE|DICT|INTERRES
    91   44  169 1    
    92   45   46 2    
    93   45   47 1    
    94   47   48 1    
    95   47   49 1    
    96   47  170 1    
    97   48  171 1    
    98   48  172 1    
    99   48  173 1    
   100   49   50 am   BACKBONE|DICT|INTERRES
   101   49  174 1    
   102   50   51 2    
   103   50   52 1    
   104   52   53 1    
   105   52   54 1    
   106   52  175 1    
   107   53  176 1    
   108   53  177 1    
   109   53  178 1    
   110   54   55 am   BACKBONE|DICT|INTERRES
   111   54  179 1    
   112   55   56 2    
   113   55   57 1    
   114   57   58 1    
   115   57   59 1    
   116   57  180 1    
   117   58  181 1    
   118   58  182 1    
   119   58  183 1    
   120   59   60 am   BACKBONE|DICT|INTERRES
   121   59  184 1    
   122   60   61 2    
   123   60   62 1    
   124   62   63 1    
   125   62   64 1    
   126   62  185 1    
   127   63  186 1    
   128   63  187 1    
   129   63  188 1    
   130   64   65 am   BACKBONE|DICT|INTERRES
   131   64  189 1    
   132   65   66 2    
   133   67   68 2    
   134   67   69 am   BACKBONE|DICT|INTERRES
   135   69   70 1    
   136   69  190 1    
   137   70   71 1    
   138   70   72 1    
   139   70  191 1    
   140   71  192 1    
   141   71  193 1    
   142   71  194 1    
   143   72   73 2    
   144   72   74 am   BACKBONE|DICT|INTERRES
   145   74   75 1    
   146   74  195 1    
   147   75   76 1    
   148   75   77 1    
   149   75  196 1    
   150   76  197 1    
   151   76  198 1    
   152   76  199 1    
   153   77   78 2    
   154   77   79 am   BACKBONE|DICT|INTERRES
   155   79   80 1    
   156   79  200 1    
   157   80   81 1    
   158   80   82 1    
   159   80  201 1    
   160   81  202 1    
   161   81  203 1    
   162   81  204 1    
   163   82   83 2    
   164   82   84 am   BACKBONE|DICT|INTERRES
   165   84   85 1    
   166   84  205 1    
   167   85   86 1    
   168   85   87 1    
   169   85  206 1    
   170   86  207 1    
   171   86  208 1    
   172   86  209 1    
   173   87   88 2    
   174   87   89 am   BACKBONE|DICT|INTERRES
   175   89   90 1    
   176   89  210 1    
   177   90   91 1    
   178   90   92 1    
   179   90  211 1    
   180   91  212 1    
   181   91  213 1    
   182   91  214 1    
   183   92   93 2    
   184   92   94 am   BACKBONE|DICT|INTERRES
   185   94   95 1    
   186   94  215 1    
   187   95   96 1    
   188   95   97 1    
   189   95  216 1    
   190   96  217 1    
   191   96  218 1    
   192   96  219 1    
   193   97   98 2    
   194   97   99 am   BACKBONE|DICT|INTERRES
   195   99  100 1    
   196   99  220 1    
   197  100  101 1    
   198  100  102 1    
   199  100  221 1    
   200  101  222 1    
   201  101  223 1    
   202  101  224 1    
   203  102  103 2    
   204  102  104 am   BACKBONE|DICT|INTERRES
   205  104  105 1    
   206  104  225 1    
   207  105  106 1    
   208  105  107 1    
   209  105  226 1    
   210  106  227 1    
   211  106  228 1    
   212  106  229 1    
   213  107  108 2    
   214  107  109 am   BACKBONE|DICT|INTERRES
   215  109  110 1    
   216  109  230 1    
   217  110  111 1    
   218  110  112 1    
   219  110  231 1    
   220  111  232 1    
   221  111  233 1    
   222  111  234 1    
   223  112  113 2    
   224  112  114 am   BACKBONE|DICT|INTERRES
   225  114  115 1    
   226  114  235 1    
   227  115  116 1    
   228  115  117 1    
   229  115  236 1    
   230  116  237 1    
   231  116  238 1    
   232  116  239 1    
   233  117  118 2    
   234  117  119 am   BACKBONE|DICT|INTERRES
   235  119  120 1    
   236  119  240 1    
   237  120  121 1    
   238  120  124 1    
   239  120  241 1    
   240  121  122 am   BACKBONE|DICT|INTERRES
   241  121  123 2    
   242  122  242 1    
   243  122  243 1    
   244  124  125 1    
   245  124  244 1    
   246  124  245 1    
   247  125  126 1    
   248  126  246 1    
   249  126  247 1    
@<TRIPOS>SUBSTRUCTURE
     1 UNK         1 GROUP             0       ****    0 ROOT    
