@<TRIPOS>MOLECULE
3R540
247   249    1
SMALL
USER_CHARGES


@<TRIPOS>ATOM
      1 CA         -2.1896  -14.6275  -42.4103 C.3       0 UNK        -0.1800 
      2 C          -2.3003  -13.4728  -43.3964 C.2       0 UNK         0.5000 
      3 O          -2.7337  -12.3832  -43.0200 O.2       0 UNK        -0.5000 
      4 N          -1.9121  -13.7048  -44.6562 N.am      1 UNK        -0.5000 
      5 CA         -1.9821  -12.7526  -45.7708 C.3       1 UNK         0.1400 
      6 C6         -2.0120  -13.4800  -47.1400 C.3       23 UNK        -0.0398 
      7 S7         -3.4766  -14.5605  -47.3012 S.3       23 UNK        -0.2404 
      8 C8         -3.3991  -15.0423  -49.0544 C.3       23 UNK        -0.0205 
      9 C9         -2.4773  -16.2317  -49.2744 C.ar      23 UNK        -0.0193 
     10 C10        -1.1186  -16.0327  -49.5265 C.ar      23 UNK        -0.1150 
     11 C11        -0.2660  -17.1199  -49.7281 C.ar      23 UNK        -0.0193 
     12 C12        -0.7962  -18.4151  -49.7041 C.ar      23 UNK        -0.1150 
     13 C13        -2.1557  -18.6391  -49.4431 C.ar      23 UNK        -0.0193 
     14 C14        -2.9846  -17.5338  -49.2257 C.ar      23 UNK        -0.1150 
     15 C15        -2.7788  -20.0379  -49.3534 C.3       23 UNK        -0.0205 
     16 S16        -1.7409  -21.4362  -49.9165 S.3       23 UNK        -0.2404 
     17 C17        -0.5262  -21.5316  -48.5539 C.3       23 UNK        -0.0398 
     18 CA         -0.5095  -22.8272  -47.7094 C.3       11 UNK         0.1400 
     19 N           0.4262  -22.6813  -46.5932 N.am      11 UNK        -0.5000 
     20 C           0.7834  -23.6358  -45.7266 C.2       10 UNK         0.5000 
     21 O           0.3817  -24.7971  -45.7855 O.2       10 UNK        -0.5000 
     22 CA          1.7004  -23.1980  -44.5701 C.3       10 UNK         0.1400 
     23 CB          3.1596  -23.0797  -45.0349 C.3       10 UNK        -0.1800 
     24 N           1.2686  -21.9295  -43.9796 N.am      10 UNK        -0.5000 
     25 C           0.1408  -21.7753  -43.2707 C.2       9 UNK         0.5000 
     26 O          -0.6235  -22.6996  -42.9937 O.2       9 UNK        -0.5000 
     27 CA         -0.2128  -20.3427  -42.8286 C.3       9 UNK         0.1400 
     28 CB          0.5647  -19.9556  -41.5620 C.3       9 UNK        -0.1800 
     29 N           0.0294  -19.3470  -43.8734 N.am      9 UNK        -0.5000 
     30 C          -0.6019  -19.3175  -45.0553 C.2       8 UNK         0.5000 
     31 O          -1.4866  -20.1072  -45.3775 O.2       8 UNK        -0.5000 
     32 CA         -0.1315  -18.2682  -46.0739 C.3       8 UNK         0.1400 
     33 CB         -0.7805  -16.9070  -45.8017 C.3       8 UNK        -0.1800 
     34 N           1.3226  -18.1300  -46.1164 N.am      8 UNK        -0.5000 
     35 C           2.1815  -19.1039  -46.4476 C.2       7 UNK         0.5000 
     36 O           1.8365  -20.2363  -46.7807 O.2       7 UNK        -0.5000 
     37 CA          3.6784  -18.7741  -46.3346 C.3       7 UNK         0.1400 
     38 CB          4.1901  -18.0579  -47.5929 C.3       7 UNK        -0.1800 
     39 N           3.9591  -17.9566  -45.1564 N.am      7 UNK        -0.5000 
     40 C           3.9591  -18.4207  -43.8998 C.2       6 UNK         0.5000 
     41 O           3.7777  -19.6032  -43.6061 O.2       6 UNK        -0.5000 
     42 CA          4.1621  -17.3763  -42.7853 C.3       6 UNK         0.1400 
     43 CB          5.6556  -17.0787  -42.5850 C.3       6 UNK        -0.1800 
     44 N           3.4471  -16.1234  -43.0442 N.am      6 UNK        -0.5000 
     45 C           2.1118  -16.0148  -43.0595 C.2       5 UNK         0.5000 
     46 O           1.3493  -16.9565  -42.8445 O.2       5 UNK        -0.5000 
     47 CA          1.5190  -14.6363  -43.4074 C.3       5 UNK         0.1400 
     48 CB          1.3956  -13.7747  -42.1429 C.3       5 UNK        -0.1800 
     49 N           2.2185  -13.8881  -44.4597 N.am      5 UNK        -0.5000 
     50 C           2.5167  -14.3565  -45.6831 C.2       4 UNK         0.5000 
     51 O           2.3049  -15.5185  -46.0248 O.2       4 UNK        -0.5000 
     52 CA          3.1449  -13.3924  -46.7077 C.3       4 UNK         0.1400 
     53 CB          2.5020  -13.5616  -48.0955 C.3       4 UNK        -0.1800 
     54 N           3.0259  -11.9937  -46.3017 N.am      4 UNK        -0.5000 
     55 C           3.9932  -11.2769  -45.7139 C.2       3 UNK         0.5000 
     56 O           5.1093  -11.7258  -45.4507 O.2       3 UNK        -0.5000 
     57 CA          3.6648   -9.8155  -45.3435 C.3       3 UNK         0.1400 
     58 CB          4.2773   -8.8514  -46.3712 C.3       3 UNK        -0.1800 
     59 N           2.2308   -9.5371  -45.2322 N.am      3 UNK        -0.5000 
     60 C           1.4155  -10.0600  -44.3072 C.2       2 UNK         0.5000 
     61 O           1.7998  -10.8344  -43.4310 O.2       2 UNK        -0.5000 
     62 CA         -0.0786   -9.6819  -44.3778 C.3       2 UNK         0.1400 
     63 CB         -0.3956   -8.5475  -45.3785 C.3       2 UNK        -0.1800 
     64 N          -0.9323  -10.8417  -44.6516 N.am      2 UNK        -0.5000 
     65 C          -0.8603  -11.6910  -45.6864 C.2       1 UNK         0.5000 
     66 O           0.0287  -11.6558  -46.5397 O.2       1 UNK        -0.5000 
     67 C          -1.9072  -23.2712  -47.2276 C.2       11 UNK         0.5000 
     68 O          -2.4571  -24.2190  -47.7824 O.2       11 UNK        -0.5000 
     69 N          -2.4279  -22.6321  -46.1717 N.am      12 UNK        -0.5000 
     70 CA         -3.7065  -22.9651  -45.5396 C.3       12 UNK         0.1400 
     71 CB         -4.0885  -21.8440  -44.5615 C.3       12 UNK        -0.1800 
     72 C          -3.7223  -24.3322  -44.8257 C.2       12 UNK         0.5000 
     73 O          -4.8020  -24.8889  -44.6256 O.2       12 UNK        -0.5000 
     74 N          -2.5467  -24.8493  -44.4453 N.am      13 UNK        -0.5000 
     75 CA         -2.3888  -26.1955  -43.8982 C.3       13 UNK         0.1400 
     76 CB         -1.1440  -26.2472  -42.9983 C.3       13 UNK        -0.1800 
     77 C          -2.3091  -27.2477  -45.0191 C.2       13 UNK         0.5000 
     78 O          -2.9308  -28.3047  -44.9043 O.2       13 UNK        -0.5000 
     79 N          -1.5445  -26.9437  -46.0769 N.am      14 UNK        -0.5000 
     80 CA         -1.3237  -27.8183  -47.2287 C.3       14 UNK         0.1400 
     81 CB         -0.1122  -27.3043  -48.0224 C.3       14 UNK        -0.1800 
     82 C          -2.5538  -27.9447  -48.1465 C.2       14 UNK         0.5000 
     83 O          -2.8562  -29.0460  -48.6086 O.2       14 UNK        -0.5000 
     84 N          -3.2288  -26.8204  -48.4016 N.am      15 UNK        -0.5000 
     85 CA         -4.3869  -26.6957  -49.2772 C.3       15 UNK         0.1400 
     86 CB         -3.9228  -26.5634  -50.7448 C.3       15 UNK        -0.1800 
     87 C          -5.2471  -25.5251  -48.7699 C.2       15 UNK         0.5000 
     88 O          -5.7149  -25.5780  -47.6324 O.2       15 UNK        -0.5000 
     89 N          -5.4424  -24.4964  -49.6011 N.am      16 UNK        -0.5000 
     90 CA         -6.1924  -23.2767  -49.3225 C.3       16 UNK         0.1400 
     91 CB         -7.7013  -23.5848  -49.2199 C.3       16 UNK        -0.1800 
     92 C          -5.9250  -22.2794  -50.4592 C.2       16 UNK         0.5000 
     93 O          -5.3442  -22.6523  -51.4823 O.2       16 UNK        -0.5000 
     94 N          -6.4210  -21.0435  -50.3057 N.am      17 UNK        -0.5000 
     95 CA         -6.4014  -19.9993  -51.3404 C.3       17 UNK         0.1400 
     96 CB         -6.9136  -18.6823  -50.7409 C.3       17 UNK        -0.1800 
     97 C          -7.1916  -20.3678  -52.6158 C.2       17 UNK         0.5000 
     98 O          -6.9227  -19.8091  -53.6788 O.2       17 UNK        -0.5000 
     99 N          -8.1006  -21.3483  -52.5049 N.am      18 UNK        -0.5000 
    100 CA        -8.8096  -21.9975  -53.6105 C.3       18 UNK         0.1400 
    101 CB        -9.8424  -22.9743  -53.0280 C.3       18 UNK        -0.1800 
    102 C         -7.8821  -22.7271  -54.6079 C.2       18 UNK         0.5000 
    103 O         -8.2762  -22.9241  -55.7572 O.2       18 UNK        -0.5000 
    104 N         -6.6578  -23.0732  -54.1787 N.am      19 UNK        -0.5000 
    105 CA        -5.5868  -23.6177  -55.0200 C.3       19 UNK         0.1400 
    106 CB        -4.6767  -24.5060  -54.1533 C.3       19 UNK        -0.1800 
    107 C         -4.7790  -22.5182  -55.7510 C.2       19 UNK         0.5000 
    108 O         -3.6944  -22.8050  -56.2578 O.2       19 UNK        -0.5000 
    109 N         -5.3127  -21.2873  -55.7825 N.am      20 UNK        -0.5000 
    110 CA        -4.7699  -20.0593  -56.3748 C.3       20 UNK         0.1400 
    111 CB        -4.3752  -20.2470  -57.8554 C.3       20 UNK        -0.1800 
    112 C         -3.6646  -19.3939  -55.5300 C.2       20 UNK         0.5000 
    113 O         -2.9823  -18.4995  -56.0328 O.2       20 UNK        -0.5000 
    114 N         -3.5475  -19.7997  -54.2555 N.am      21 UNK        -0.5000 
    115 CA        -2.6423  -19.2643  -53.2325 C.3       21 UNK         0.1400 
    116 CB        -3.0692  -17.8249  -52.8601 C.3       21 UNK        -0.1800 
    117 C         -1.1508  -19.3920  -53.6218 C.2       21 UNK         0.5000 
    118 O         -0.7813  -20.3361  -54.3246 O.2       21 UNK        -0.5000 
    119 N         -0.3156  -18.4613  -53.1451 N.am      22 UNK        -0.5000 
    120 CA         1.0898  -18.3145  -53.5448 C.3       22 UNK         0.1400 
    121 C          1.2157  -17.8352  -55.0179 C.2       22 UNK         0.5000 
    122 N          2.0482  -18.4817  -55.8225 N.am      22 UNK        -0.7600 
    123 O          0.6010  -16.8507  -55.4218 O.2       22 UNK        -0.5000 
    124 C124        1.8490  -17.3481  -52.6027 C.3       23 UNK        -0.0398 
    125 S125        2.1160  -18.0534  -50.9424 S.3       23 UNK        -0.2404 
    126 C126        1.2330  -16.8707  -49.8692 C.3       23 UNK        -0.0205 
    127 H127       -3.1783  -14.8968  -42.0391 H         1 UNK         0.0600 
    128 H128       -1.5747  -14.3371  -41.5588 H         1 UNK         0.0600 
    129 H129       -1.7457  -15.5136  -42.8641 H         1 UNK         0.0600 
    130 H130       -1.5879  -14.6259  -44.9080 H         1 UNK         0.3000 
    131 H131       -2.9231  -12.2045  -45.6843 H         1 UNK         0.0600 
    132 H132       -2.0387  -12.7525  -47.9532 H         1 UNK         0.0800 
    133 H133       -1.1071  -14.0706  -47.2846 H         1 UNK         0.0800 
    134 H134       -4.4061  -15.2944  -49.3905 H         1 UNK         0.0800 
    135 H135       -3.0826  -14.1952  -49.6646 H         1 UNK         0.0800 
    136 H136       -0.7201  -15.0281  -49.5395 H         1 UNK         0.1150 
    137 H137       -0.1271  -19.2454  -49.8567 H         1 UNK         0.1150 
    138 H138       -4.0339  -17.6864  -49.0161 H         1 UNK         0.1150 
    139 H139       -3.0890  -20.2209  -48.3233 H         1 UNK         0.0800 
    140 H140       -3.6897  -20.0470  -49.9503 H         1 UNK         0.0800 
    141 H141        0.4634  -21.3788  -48.9871 H         1 UNK         0.0800 
    142 H142       -0.6876  -20.6828  -47.8931 H         1 UNK         0.0800 
    143 H143       -0.1258  -23.6283  -48.3444 H         1 UNK         0.0600 
    144 H144        0.8511  -21.7619  -46.4920 H         1 UNK         0.3000 
    145 H145        1.6524  -23.9679  -43.7970 H         1 UNK         0.0600 
    146 H146        3.8173  -22.8235  -44.2040 H         1 UNK         0.0600 
    147 H147        3.5131  -24.0235  -45.4517 H         1 UNK         0.0600 
    148 H148        3.2813  -22.3156  -45.8030 H         1 UNK         0.0600 
    149 H149        1.8435  -21.1180  -44.1629 H         1 UNK         0.3000 
    150 H150       -1.2787  -20.3239  -42.5924 H         1 UNK         0.0600 
    151 H151        0.4018  -20.6818  -40.7647 H         1 UNK         0.0600 
    152 H152        0.2450  -18.9833  -41.1865 H         1 UNK         0.0600 
    153 H153        1.6381  -19.9044  -41.7482 H         1 UNK         0.0600 
    154 H154        0.7044  -18.6184  -43.6604 H         1 UNK         0.3000 
    155 H155       -0.4544  -18.5953  -47.0591 H         1 UNK         0.0600 
    156 H156       -0.4250  -16.1589  -46.5089 H         1 UNK         0.0600 
    157 H157       -0.5630  -16.5584  -44.7944 H         1 UNK         0.0600 
    158 H158       -1.8646  -16.9679  -45.9054 H         1 UNK         0.0600 
    159 H159        1.6981  -17.2061  -45.9121 H         1 UNK         0.3000 
    160 H160        4.2195  -19.7183  -46.2417 H         1 UNK         0.0600 
    161 H161        3.7346  -17.0756  -47.7166 H         1 UNK         0.0600 
    162 H162        3.9701  -18.6396  -48.4888 H         1 UNK         0.0600 
    163 H163        5.2706  -17.9202  -47.5530 H         1 UNK         0.0600 
    164 H164        4.0363  -16.9606  -45.3055 H         1 UNK         0.3000 
    165 H165        3.7730  -17.8031  -41.8583 H         1 UNK         0.0600 
    166 H166        6.0992  -16.6219  -43.4705 H         1 UNK         0.0600 
    167 H167        5.8135  -16.4036  -41.7437 H         1 UNK         0.0600 
    168 H168        6.2106  -17.9939  -42.3744 H         1 UNK         0.0600 
    169 H169        4.0035  -15.3035  -43.2373 H         1 UNK         0.3000 
    170 H170        0.5121  -14.8181  -43.7779 H         1 UNK         0.0600 
    171 H171        0.9762  -14.3454  -41.3131 H         1 UNK         0.0600 
    172 H172        2.3636  -13.3895  -41.8211 H         1 UNK         0.0600 
    173 H173        0.7320  -12.9270  -42.3104 H         1 UNK         0.0600 
    174 H174        2.4069  -12.9137  -44.2618 H         1 UNK         0.3000 
    175 H175        4.1973  -13.6683  -46.7966 H         1 UNK         0.0600 
    176 H176        2.9210  -12.8572  -48.8140 H         1 UNK         0.0600 
    177 H177        2.6799  -14.5632  -48.4872 H         1 UNK         0.0600 
    178 H178        1.4229  -13.4079  -48.0642 H         1 UNK         0.0600 
    179 H179        2.1132  -11.5718  -46.4421 H         1 UNK         0.3000 
    180 H180        4.1218   -9.6160  -44.3721 H         1 UNK         0.0600 
    181 H181        3.8430   -8.9914  -47.3620 H         1 UNK         0.0600 
    182 H182        5.3536   -9.0056  -46.4597 H         1 UNK         0.0600 
    183 H183        4.1229   -7.8124  -46.0794 H         1 UNK         0.0600 
    184 H184        1.8337   -8.9277  -45.9324 H         1 UNK         0.3000 
    185 H185       -0.3477   -9.3280  -43.3817 H         1 UNK         0.0600 
    186 H186       -1.4478   -8.2677  -45.3245 H         1 UNK         0.0600 
    187 H187        0.1827   -7.6499  -45.1557 H         1 UNK         0.0600 
    188 H188       -0.1871   -8.8352  -46.4098 H         1 UNK         0.0600 
    189 H189       -1.6506  -11.0335  -43.9590 H         1 UNK         0.3000 
    190 H190       -1.9376  -21.8248  -45.7908 H         1 UNK         0.3000 
    191 H191       -4.4646  -23.0050  -46.3239 H         1 UNK         0.0600 
    192 H192       -5.0477  -22.0480  -44.0841 H         1 UNK         0.0600 
    193 H193       -4.1788  -20.8867  -45.0753 H         1 UNK         0.0600 
    194 H194       -3.3439  -21.7321  -43.7723 H         1 UNK         0.0600 
    195 H195       -1.7026  -24.3172  -44.6089 H         1 UNK         0.3000 
    196 H196       -3.2534  -26.4336  -43.2749 H         1 UNK         0.0600 
    197 H197       -1.0353  -27.2321  -42.5427 H         1 UNK         0.0600 
    198 H198       -1.2138  -25.5197  -42.1894 H         1 UNK         0.0600 
    199 H199       -0.2285  -26.0412  -43.5521 H         1 UNK         0.0600 
    200 H200       -1.0227  -26.0718  -46.0656 H         1 UNK         0.3000 
    201 H201       -1.0835  -28.8162  -46.8556 H         1 UNK         0.0600 
    202 H202        0.7860  -27.2902  -47.4047 H         1 UNK         0.0600 
    203 H203       -0.2764  -26.2922  -48.3947 H         1 UNK         0.0600 
    204 H204        0.0929  -27.9431  -48.8823 H         1 UNK         0.0600 
    205 H205       -2.9182  -25.9446  -47.9810 H         1 UNK         0.3000 
    206 H206       -5.0025  -27.5929  -49.1878 H         1 UNK         0.0600 
    207 H207       -3.3616  -27.4437  -51.0585 H         1 UNK         0.0600 
    208 H208       -4.7731  -26.4728  -51.4216 H         1 UNK         0.0600 
    209 H209       -3.2789  -25.6948  -50.8906 H         1 UNK         0.0600 
    210 H210       -4.9950  -24.4921  -50.5101 H         1 UNK         0.3000 
    211 H211       -5.8320  -22.8416  -48.3888 H         1 UNK         0.0600 
    212 H212       -8.0795  -24.0398  -50.1362 H         1 UNK         0.0600 
    213 H213       -8.2832  -22.6812  -49.0359 H         1 UNK         0.0600 
    214 H214       -7.9172  -24.2673  -48.3984 H         1 UNK         0.0600 
    215 H215       -6.8959  -20.8090  -49.4455 H         1 UNK         0.3000 
    216 H216       -5.3640  -19.8522  -51.6452 H         1 UNK         0.0600 
    217 H217       -6.8745  -17.8773  -51.4762 H         1 UNK         0.0600 
    218 H218       -6.3057  -18.3724  -49.8910 H         1 UNK         0.0600 
    219 H219       -7.9469  -18.7692  -50.4027 H         1 UNK         0.0600 
    220 H220       -8.2614  -21.7348  -51.5874 H         1 UNK         0.3000 
    221 H221       -9.3415  -21.2223  -54.1657 H         1 UNK         0.0600 
    222 H222       -9.3655  -23.7641  -52.4461 H         1 UNK         0.0600 
    223 H223      -10.5518  -22.4597  -52.3796 H         1 UNK         0.0600 
    224 H224      -10.4184  -23.4533  -53.8209 H         1 UNK         0.0600 
    225 H225       -6.3980  -22.8728  -53.2186 H         1 UNK         0.3000 
    226 H226       -6.0309  -24.2515  -55.7900 H         1 UNK         0.0600 
    227 H227       -5.2554  -25.2491  -53.6049 H         1 UNK         0.0600 
    228 H228       -3.9573  -25.0476  -54.7685 H         1 UNK         0.0600 
    229 H229       -4.1090  -23.9194  -53.4306 H         1 UNK         0.0600 
    230 H230       -6.1858  -21.1519  -55.2885 H         1 UNK         0.3000 
    231 H231       -5.6008  -19.3525  -56.3595 H         1 UNK         0.0600 
    232 H232       -4.1852  -19.2846  -58.3317 H         1 UNK         0.0600 
    233 H233       -5.1704  -20.7346  -58.4190 H         1 UNK         0.0600 
    234 H234       -3.4688  -20.8427  -57.9632 H         1 UNK         0.0600 
    235 H235       -4.1368  -20.5650  -53.9643 H         1 UNK         0.3000 
    236 H236       -2.7774  -19.8911  -52.3513 H         1 UNK         0.0600 
    237 H237       -4.1219  -17.7881  -52.5796 H         1 UNK         0.0600 
    238 H238       -2.5043  -17.4398  -52.0134 H         1 UNK         0.0600 
    239 H239       -2.9223  -17.1311  -53.6883 H         1 UNK         0.0600 
    240 H240       -0.6887  -17.7248  -52.5657 H         1 UNK         0.3000 
    241 H241        1.5587  -19.2978  -53.4681 H         1 UNK         0.0600 
    242 H242        2.5652  -19.2895  -55.5103 H         1 UNK         0.3800 
    243 H243        2.1502  -18.1690  -56.7757 H         1 UNK         0.3800 
    244 H244        2.8381  -17.1214  -53.0052 H         1 UNK         0.0800 
    245 H245        1.3280  -16.3919  -52.5325 H         1 UNK         0.0800 
    246 H246        1.4253  -15.8559  -50.2198 H         1 UNK         0.0800 
    247 H247        1.6634  -16.9311  -48.8699 H         1 UNK         0.0800 
@<TRIPOS>BOND
     1    1    2 1    
     2    1  127 1    
     3    1  128 1    
     4    1  129 1    
     5    2    3 2    
     6    2    4 am   BACKBONE|DICT|INTERRES
     7    4    5 1    
     8    4  130 1    
     9    5    6 1    
    10    5   65 1    
    11    5  131 1    
    12    6    7 1    
    13    6  132 1    
    14    6  133 1    
    15    7    8 1    
    16    8    9 1    
    17    8  134 1    
    18    8  135 1    
    19    9   10 ar   
    20    9   14 ar   
    21   10   11 ar   
    22   10  136 1    
    23   11   12 ar   
    24   11  126 1    
    25   12   13 ar   
    26   12  137 1    
    27   13   14 ar   
    28   13   15 1    
    29   14  138 1    
    30   15   16 1    
    31   15  139 1    
    32   15  140 1    
    33   16   17 1    
    34   17   18 1    
    35   17  141 1    
    36   17  142 1    
    37   18   19 1    
    38   18   67 1    
    39   18  143 1    
    40   19   20 am   BACKBONE|DICT|INTERRES
    41   19  144 1    
    42   20   21 2    
    43   20   22 1    
    44   22   23 1    
    45   22   24 1    
    46   22  145 1    
    47   23  146 1    
    48   23  147 1    
    49   23  148 1    
    50   24   25 am   BACKBONE|DICT|INTERRES
    51   24  149 1    
    52   25   26 2    
    53   25   27 1    
    54   27   28 1    
    55   27   29 1    
    56   27  150 1    
    57   28  151 1    
    58   28  152 1    
    59   28  153 1    
    60   29   30 am   BACKBONE|DICT|INTERRES
    61   29  154 1    
    62   30   31 2    
    63   30   32 1    
    64   32   33 1    
    65   32   34 1    
    66   32  155 1    
    67   33  156 1    
    68   33  157 1    
    69   33  158 1    
    70   34   35 am   BACKBONE|DICT|INTERRES
    71   34  159 1    
    72   35   36 2    
    73   35   37 1    
    74   37   38 1    
    75   37   39 1    
    76   37  160 1    
    77   38  161 1    
    78   38  162 1    
    79   38  163 1    
    80   39   40 am   BACKBONE|DICT|INTERRES
    81   39  164 1    
    82   40   41 2    
    83   40   42 1    
    84   42   43 1    
    85   42   44 1    
    86   42  165 1    
    87   43  166 1    
    88   43  167 1    
    89   43  168 1    
    90   44   45 am   BACKBONE|DICT|INTERRES
    91   44  169 1    
    92   45   46 2    
    93   45   47 1    
    94   47   48 1    
    95   47   49 1    
    96   47  170 1    
    97   48  171 1    
    98   48  172 1    
    99   48  173 1    
   100   49   50 am   BACKBONE|DICT|INTERRES
   101   49  174 1    
   102   50   51 2    
   103   50   52 1    
   104   52   53 1    
   105   52   54 1    
   106   52  175 1    
   107   53  176 1    
   108   53  177 1    
   109   53  178 1    
   110   54   55 am   BACKBONE|DICT|INTERRES
   111   54  179 1    
   112   55   56 2    
   113   55   57 1    
   114   57   58 1    
   115   57   59 1    
   116   57  180 1    
   117   58  181 1    
   118   58  182 1    
   119   58  183 1    
   120   59   60 am   BACKBONE|DICT|INTERRES
   121   59  184 1    
   122   60   61 2    
   123   60   62 1    
   124   62   63 1    
   125   62   64 1    
   126   62  185 1    
   127   63  186 1    
   128   63  187 1    
   129   63  188 1    
   130   64   65 am   BACKBONE|DICT|INTERRES
   131   64  189 1    
   132   65   66 2    
   133   67   68 2    
   134   67   69 am   BACKBONE|DICT|INTERRES
   135   69   70 1    
   136   69  190 1    
   137   70   71 1    
   138   70   72 1    
   139   70  191 1    
   140   71  192 1    
   141   71  193 1    
   142   71  194 1    
   143   72   73 2    
   144   72   74 am   BACKBONE|DICT|INTERRES
   145   74   75 1    
   146   74  195 1    
   147   75   76 1    
   148   75   77 1    
   149   75  196 1    
   150   76  197 1    
   151   76  198 1    
   152   76  199 1    
   153   77   78 2    
   154   77   79 am   BACKBONE|DICT|INTERRES
   155   79   80 1    
   156   79  200 1    
   157   80   81 1    
   158   80   82 1    
   159   80  201 1    
   160   81  202 1    
   161   81  203 1    
   162   81  204 1    
   163   82   83 2    
   164   82   84 am   BACKBONE|DICT|INTERRES
   165   84   85 1    
   166   84  205 1    
   167   85   86 1    
   168   85   87 1    
   169   85  206 1    
   170   86  207 1    
   171   86  208 1    
   172   86  209 1    
   173   87   88 2    
   174   87   89 am   BACKBONE|DICT|INTERRES
   175   89   90 1    
   176   89  210 1    
   177   90   91 1    
   178   90   92 1    
   179   90  211 1    
   180   91  212 1    
   181   91  213 1    
   182   91  214 1    
   183   92   93 2    
   184   92   94 am   BACKBONE|DICT|INTERRES
   185   94   95 1    
   186   94  215 1    
   187   95   96 1    
   188   95   97 1    
   189   95  216 1    
   190   96  217 1    
   191   96  218 1    
   192   96  219 1    
   193   97   98 2    
   194   97   99 am   BACKBONE|DICT|INTERRES
   195   99  100 1    
   196   99  220 1    
   197  100  101 1    
   198  100  102 1    
   199  100  221 1    
   200  101  222 1    
   201  101  223 1    
   202  101  224 1    
   203  102  103 2    
   204  102  104 am   BACKBONE|DICT|INTERRES
   205  104  105 1    
   206  104  225 1    
   207  105  106 1    
   208  105  107 1    
   209  105  226 1    
   210  106  227 1    
   211  106  228 1    
   212  106  229 1    
   213  107  108 2    
   214  107  109 am   BACKBONE|DICT|INTERRES
   215  109  110 1    
   216  109  230 1    
   217  110  111 1    
   218  110  112 1    
   219  110  231 1    
   220  111  232 1    
   221  111  233 1    
   222  111  234 1    
   223  112  113 2    
   224  112  114 am   BACKBONE|DICT|INTERRES
   225  114  115 1    
   226  114  235 1    
   227  115  116 1    
   228  115  117 1    
   229  115  236 1    
   230  116  237 1    
   231  116  238 1    
   232  116  239 1    
   233  117  118 2    
   234  117  119 am   BACKBONE|DICT|INTERRES
   235  119  120 1    
   236  119  240 1    
   237  120  121 1    
   238  120  124 1    
   239  120  241 1    
   240  121  122 am   BACKBONE|DICT|INTERRES
   241  121  123 2    
   242  122  242 1    
   243  122  243 1    
   244  124  125 1    
   245  124  244 1    
   246  124  245 1    
   247  125  126 1    
   248  126  246 1    
   249  126  247 1    
@<TRIPOS>SUBSTRUCTURE
     1 UNK         1 GROUP             0       ****    0 ROOT    
