@<TRIPOS>MOLECULE
3R540
247   249    1
SMALL
USER_CHARGES


@<TRIPOS>ATOM
      1 CA         -2.5460  -14.5717  -42.9665 C.3       0 UNK        -0.1800 
      2 C          -2.7507  -13.3820  -43.8936 C.2       0 UNK         0.5000 
      3 O          -2.8628  -12.2493  -43.4264 O.2       0 UNK        -0.5000 
      4 N          -2.7975  -13.6350  -45.2067 N.am      1 UNK        -0.5000 
      5 CA         -2.9999  -12.6345  -46.2649 C.3       1 UNK         0.1400 
      6 C6         -3.7287  -13.2389  -47.4951 C.3       23 UNK        -0.0398 
      7 S7         -2.9896  -14.7824  -48.1337 S.3       23 UNK        -0.2404 
      8 C8         -2.0089  -14.1680  -49.5345 C.3       23 UNK        -0.0205 
      9 C9         -1.2896  -15.3093  -50.2343 C.ar      23 UNK        -0.0193 
     10 C10        -1.6988  -15.7418  -51.4987 C.ar      23 UNK        -0.1150 
     11 C11        -1.0262  -16.7834  -52.1463 C.ar      23 UNK        -0.0193 
     12 C12         0.0531  -17.4068  -51.5109 C.ar      23 UNK        -0.1150 
     13 C13         0.4771  -16.9738  -50.2502 C.ar      23 UNK        -0.0193 
     14 C14        -0.1956  -15.9231  -49.6207 C.ar      23 UNK        -0.1150 
     15 C15         1.6918  -17.5955  -49.5799 C.3       23 UNK        -0.0205 
     16 S16         1.2504  -18.4963  -48.0639 S.3       23 UNK        -0.2404 
     17 C17         0.7614  -20.1225  -48.7168 C.3       23 UNK        -0.0398 
     18 CA         -0.4121  -20.7959  -47.9656 C.3       11 UNK         0.1400 
     19 N          -0.1953  -20.9317  -46.5192 N.am      11 UNK        -0.5000 
     20 C          -0.6514  -21.9709  -45.8031 C.2       10 UNK         0.5000 
     21 O          -1.2421  -22.9304  -46.2986 O.2       10 UNK        -0.5000 
     22 CA         -0.4445  -21.9346  -44.2773 C.3       10 UNK         0.1400 
     23 CB          0.9540  -22.4433  -43.8965 C.3       10 UNK        -0.1800 
     24 N          -0.6662  -20.6132  -43.6918 N.am      10 UNK        -0.5000 
     25 C          -1.8380  -19.9628  -43.7037 C.2       9 UNK         0.5000 
     26 O          -2.8616  -20.4084  -44.2206 O.2       9 UNK        -0.5000 
     27 CA         -1.8592  -18.5584  -43.0768 C.3       9 UNK         0.1400 
     28 CB         -2.0596  -18.6267  -41.5559 C.3       9 UNK        -0.1800 
     29 N          -0.6422  -17.8098  -43.3853 N.am      9 UNK        -0.5000 
     30 C          -0.3463  -17.3390  -44.6046 C.2       8 UNK         0.5000 
     31 O          -1.1014  -17.4293  -45.5692 O.2       8 UNK        -0.5000 
     32 CA          1.0240  -16.6665  -44.7773 C.3       8 UNK         0.1400 
     33 CB          0.9101  -15.1665  -44.4904 C.3       8 UNK        -0.1800 
     34 N           2.0611  -17.2602  -43.9327 N.am      8 UNK        -0.5000 
     35 C           2.5290  -18.5081  -44.0854 C.2       7 UNK         0.5000 
     36 O           2.1365  -19.2860  -44.9545 O.2       7 UNK        -0.5000 
     37 CA          3.5706  -18.9907  -43.0617 C.3       7 UNK         0.1400 
     38 CB          4.9576  -18.4133  -43.3767 C.3       7 UNK        -0.1800 
     39 N           3.2127  -18.6628  -41.6827 N.am      7 UNK        -0.5000 
     40 C           2.1188  -19.0836  -41.0376 C.2       6 UNK         0.5000 
     41 O           1.2635  -19.8017  -41.5556 O.2       6 UNK        -0.5000 
     42 CA          1.9205  -18.6044  -39.5845 C.3       6 UNK         0.1400 
     43 CB          2.6757  -19.5082  -38.5919 C.3       6 UNK        -0.1800 
     44 N           2.2232  -17.1815  -39.3660 N.am      6 UNK        -0.5000 
     45 C           3.4027  -16.5487  -39.4366 C.2       5 UNK         0.5000 
     46 O           4.4815  -17.1068  -39.6517 O.2       5 UNK        -0.5000 
     47 CA          3.3578  -15.0162  -39.2845 C.3       5 UNK         0.1400 
     48 CB          3.9467  -14.5889  -37.9313 C.3       5 UNK        -0.1800 
     49 N           4.0658  -14.3165  -40.3612 N.am      5 UNK        -0.5000 
     50 C           3.8433  -14.4788  -41.6727 C.2       4 UNK         0.5000 
     51 O           3.0044  -15.2518  -42.1379 O.2       4 UNK        -0.5000 
     52 CA          4.6508  -13.5830  -42.6187 C.3       4 UNK         0.1400 
     53 CB          5.1060  -14.3224  -43.8904 C.3       4 UNK        -0.1800 
     54 N           3.8043  -12.4526  -42.9805 N.am      4 UNK        -0.5000 
     55 C           4.2307  -11.2058  -43.2015 C.2       3 UNK         0.5000 
     56 O           5.4198  -10.8814  -43.1753 O.2       3 UNK        -0.5000 
     57 CA          3.1440  -10.1538  -43.5135 C.3       3 UNK         0.1400 
     58 CB          3.7184   -8.7330  -43.6645 C.3       3 UNK        -0.1800 
     59 N           2.3870  -10.4814  -44.7237 N.am      3 UNK        -0.5000 
     60 C           1.3853  -11.3646  -44.7939 C.2       2 UNK         0.5000 
     61 O           1.0043  -12.0407  -43.8340 O.2       2 UNK        -0.5000 
     62 CA          0.7089  -11.5223  -46.1637 C.3       2 UNK         0.1400 
     63 CB          1.5610  -12.3736  -47.1214 C.3       2 UNK        -0.1800 
     64 N          -0.5903  -12.1577  -45.9778 N.am      2 UNK        -0.5000 
     65 C          -1.7066  -11.8799  -46.6595 C.2       1 UNK         0.5000 
     66 O          -1.7463  -11.0555  -47.5744 O.2       1 UNK        -0.5000 
     67 C          -1.7870  -20.1893  -48.3196 C.2       11 UNK         0.5000 
     68 O          -2.2475  -20.3898  -49.4429 O.2       11 UNK        -0.5000 
     69 N          -2.4513  -19.5102  -47.3728 N.am      12 UNK        -0.5000 
     70 CA         -3.8400  -19.0710  -47.5244 C.3       12 UNK         0.1400 
     71 CB         -4.1861  -18.0101  -46.4687 C.3       12 UNK        -0.1800 
     72 C          -4.8234  -20.2517  -47.4340 C.2       12 UNK         0.5000 
     73 O          -5.7550  -20.3215  -48.2372 O.2       12 UNK        -0.5000 
     74 N          -4.5904  -21.1506  -46.4634 N.am      13 UNK        -0.5000 
     75 CA         -5.3990  -22.3275  -46.1331 C.3       13 UNK         0.1400 
     76 CB         -4.7232  -23.0991  -44.9880 C.3       13 UNK        -0.1800 
     77 C          -5.6551  -23.2429  -47.3441 C.2       13 UNK         0.5000 
     78 O          -4.7651  -23.9928  -47.7538 O.2       13 UNK        -0.5000 
     79 N          -6.8581  -23.1131  -47.9227 N.am      14 UNK        -0.5000 
     80 CA         -7.3352  -23.7851  -49.1363 C.3       14 UNK         0.1400 
     81 CB         -7.6042  -25.2761  -48.8458 C.3       14 UNK        -0.1800 
     82 C          -6.4153  -23.5634  -50.3576 C.2       14 UNK         0.5000 
     83 O          -6.2686  -24.4644  -51.1832 O.2       14 UNK        -0.5000 
     84 N          -5.7788  -22.3828  -50.4258 N.am      15 UNK        -0.5000 
     85 CA         -4.7623  -21.9903  -51.4081 C.3       15 UNK         0.1400 
     86 CB         -5.3961  -21.8192  -52.7992 C.3       15 UNK        -0.1800 
     87 C          -3.5538  -22.9513  -51.4080 C.2       15 UNK         0.5000 
     88 O          -3.1508  -23.4556  -52.4618 O.2       15 UNK        -0.5000 
     89 N          -3.0382  -23.2087  -50.1975 N.am      16 UNK        -0.5000 
     90 CA         -1.9523  -24.1276  -49.8534 C.3       16 UNK         0.1400 
     91 CB         -0.6365  -23.7073  -50.5451 C.3       16 UNK        -0.1800 
     92 C          -2.3421  -25.5887  -50.1425 C.2       16 UNK         0.5000 
     93 O          -1.5498  -26.3316  -50.7200 O.2       16 UNK        -0.5000 
     94 N          -3.5839  -25.9581  -49.7914 N.am      17 UNK        -0.5000 
     95 CA         -4.2440  -27.2248  -50.1415 C.3       17 UNK         0.1400 
     96 CB         -3.6328  -28.3953  -49.3445 C.3       17 UNK        -0.1800 
     97 C          -4.2597  -27.4681  -51.6688 C.2       17 UNK         0.5000 
     98 O          -3.9308  -28.5594  -52.1368 O.2       17 UNK        -0.5000 
     99 N          -4.6047  -26.4050  -52.4073 N.am      18 UNK        -0.5000 
    100 CA        -4.6305  -26.2654  -53.8641 C.3       18 UNK         0.1400 
    101 CB        -5.6586  -27.2294  -54.4907 C.3       18 UNK        -0.1800 
    102 C         -3.2510  -26.3429  -54.5557 C.2       18 UNK         0.5000 
    103 O         -3.2114  -26.4357  -55.7835 O.2       18 UNK        -0.5000 
    104 N         -2.1438  -26.2812  -53.7988 N.am      19 UNK        -0.5000 
    105 CA        -0.7882  -26.2694  -54.3566 C.3       19 UNK         0.1400 
    106 CB         0.2319  -26.7061  -53.2954 C.3       19 UNK        -0.1800 
    107 C         -0.4062  -24.8989  -54.9437 C.2       19 UNK         0.5000 
    108 O          0.3087  -24.8564  -55.9460 O.2       19 UNK        -0.5000 
    109 N         -0.8913  -23.8096  -54.3291 N.am      20 UNK        -0.5000 
    110 CA        -0.7359  -22.4492  -54.8464 C.3       20 UNK         0.1400 
    111 CB        -0.7050  -21.4386  -53.6866 C.3       20 UNK        -0.1800 
    112 C         -1.8681  -22.1220  -55.8320 C.2       20 UNK         0.5000 
    113 O         -1.6124  -21.5042  -56.8654 O.2       20 UNK        -0.5000 
    114 N         -3.0920  -22.5603  -55.4919 N.am      21 UNK        -0.5000 
    115 CA        -4.3322  -22.4618  -56.2772 C.3       21 UNK         0.1400 
    116 CB        -4.2225  -23.3029  -57.5657 C.3       21 UNK        -0.1800 
    117 C         -4.8103  -21.0185  -56.5642 C.2       21 UNK         0.5000 
    118 O         -5.6666  -20.8214  -57.4285 O.2       21 UNK        -0.5000 
    119 N         -4.2596  -20.0376  -55.8406 N.am      22 UNK        -0.5000 
    120 CA        -4.6115  -18.6162  -55.9196 C.3       22 UNK         0.1400 
    121 C         -6.0026  -18.2738  -55.3104 C.2       22 UNK         0.5000 
    122 N         -6.5752  -17.1327  -55.6709 N.am      22 UNK        -0.7600 
    123 O         -6.5642  -19.0144  -54.5067 O.2       22 UNK        -0.5000 
    124 C124       -3.4755  -17.7290  -55.3493 C.3       23 UNK        -0.0398 
    125 S125       -3.0069  -18.0779  -53.6159 S.3       23 UNK        -0.2404 
    126 C126       -1.4265  -17.1774  -53.5600 C.3       23 UNK        -0.0205 
    127 H127       -1.5930  -14.4846  -42.4451 H         1 UNK         0.0600 
    128 H128       -2.5530  -15.5133  -43.5144 H         1 UNK         0.0600 
    129 H129       -3.3408  -14.6094  -42.2217 H         1 UNK         0.0600 
    130 H130       -2.6905  -14.5838  -45.5400 H         1 UNK         0.3000 
    131 H131       -3.6633  -11.8635  -45.8674 H         1 UNK         0.0600 
    132 H132       -3.8262  -12.5098  -48.3014 H         1 UNK         0.0800 
    133 H133       -4.7532  -13.4783  -47.2077 H         1 UNK         0.0800 
    134 H134       -2.6616  -13.6392  -50.2308 H         1 UNK         0.0800 
    135 H135       -1.2749  -13.4427  -49.1814 H         1 UNK         0.0800 
    136 H136       -2.5333  -15.2602  -51.9890 H         1 UNK         0.1150 
    137 H137        0.5811  -18.2069  -52.0105 H         1 UNK         0.1150 
    138 H138        0.1297  -15.5859  -48.6461 H         1 UNK         0.1150 
    139 H139        2.2274  -18.2574  -50.2623 H         1 UNK         0.0800 
    140 H140        2.3909  -16.8000  -49.3184 H         1 UNK         0.0800 
    141 H141        1.6381  -20.7688  -48.6610 H         1 UNK         0.0800 
    142 H142        0.5289  -20.0373  -49.7800 H         1 UNK         0.0800 
    143 H143       -0.4517  -21.8069  -48.3707 H         1 UNK         0.0600 
    144 H144        0.3213  -20.1903  -46.0595 H         1 UNK         0.3000 
    145 H145       -1.1775  -22.6118  -43.8337 H         1 UNK         0.0600 
    146 H146        1.0816  -22.4737  -42.8142 H         1 UNK         0.0600 
    147 H147        1.1157  -23.4543  -44.2723 H         1 UNK         0.0600 
    148 H148        1.7412  -21.8121  -44.3079 H         1 UNK         0.0600 
    149 H149        0.1205  -20.1913  -43.2098 H         1 UNK         0.3000 
    150 H150       -2.7085  -18.0184  -43.4997 H         1 UNK         0.0600 
    151 H151       -2.9933  -19.1349  -41.3117 H         1 UNK         0.0600 
    152 H152       -2.1096  -17.6288  -41.1199 H         1 UNK         0.0600 
    153 H153       -1.2549  -19.1701  -41.0615 H         1 UNK         0.0600 
    154 H154        0.0487  -17.7277  -42.6547 H         1 UNK         0.3000 
    155 H155        1.3293  -16.7805  -45.8170 H         1 UNK         0.0600 
    156 H156        0.1612  -14.7088  -45.1359 H         1 UNK         0.0600 
    157 H157        1.8553  -14.6572  -44.6734 H         1 UNK         0.0600 
    158 H158        0.6210  -14.9715  -43.4574 H         1 UNK         0.0600 
    159 H159        2.4367  -16.6685  -43.1940 H         1 UNK         0.3000 
    160 H160        3.6285  -20.0784  -43.1383 H         1 UNK         0.0600 
    161 H161        5.7195  -18.8409  -42.7248 H         1 UNK         0.0600 
    162 H162        4.9763  -17.3315  -43.2475 H         1 UNK         0.0600 
    163 H163        5.2490  -18.6293  -44.4054 H         1 UNK         0.0600 
    164 H164        3.8542  -18.0677  -41.1663 H         1 UNK         0.3000 
    165 H165        0.8558  -18.7106  -39.3699 H         1 UNK         0.0600 
    166 H166        3.7529  -19.4922  -38.7590 H         1 UNK         0.0600 
    167 H167        2.4909  -19.2034  -37.5618 H         1 UNK         0.0600 
    168 H168        2.3494  -20.5445  -38.6878 H         1 UNK         0.0600 
    169 H169        1.4060  -16.6075  -39.2107 H         1 UNK         0.3000 
    170 H170        2.3162  -14.6903  -39.3210 H         1 UNK         0.0600 
    171 H171        3.4264  -15.0782  -37.1067 H         1 UNK         0.0600 
    172 H172        5.0033  -14.8491  -37.8530 H         1 UNK         0.0600 
    173 H173        3.8530  -13.5133  -37.7803 H         1 UNK         0.0600 
    174 H174        4.7734  -13.6586  -40.0693 H         1 UNK         0.3000 
    175 H175        5.5384  -13.2323  -42.0875 H         1 UNK         0.0600 
    176 H176        4.2648  -14.7306  -44.4512 H         1 UNK         0.0600 
    177 H177        5.6566  -13.6573  -44.5557 H         1 UNK         0.0600 
    178 H178        5.7709  -15.1487  -43.6397 H         1 UNK         0.0600 
    179 H179        2.8067  -12.6386  -43.0299 H         1 UNK         0.3000 
    180 H180        2.4597  -10.1400  -42.6624 H         1 UNK         0.0600 
    181 H181        4.4085   -8.6635  -44.5063 H         1 UNK         0.0600 
    182 H182        4.2614   -8.4325  -42.7674 H         1 UNK         0.0600 
    183 H183        2.9250   -8.0018  -43.8203 H         1 UNK         0.0600 
    184 H184        2.6673   -9.9957  -45.5636 H         1 UNK         0.3000 
    185 H185        0.5769  -10.5239  -46.5862 H         1 UNK         0.0600 
    186 H186        2.5418  -11.9249  -47.2815 H         1 UNK         0.0600 
    187 H187        1.7199  -13.3809  -46.7369 H         1 UNK         0.0600 
    188 H188        1.0831  -12.4633  -48.0972 H         1 UNK         0.0600 
    189 H189       -0.6475  -12.7679  -45.1733 H         1 UNK         0.3000 
    190 H190       -1.9974  -19.3087  -46.4916 H         1 UNK         0.3000 
    191 H191       -3.9507  -18.6100  -48.5085 H         1 UNK         0.0600 
    192 H192       -4.1263  -18.4063  -45.4559 H         1 UNK         0.0600 
    193 H193       -3.5154  -17.1557  -46.5325 H         1 UNK         0.0600 
    194 H194       -5.1999  -17.6351  -46.6136 H         1 UNK         0.0600 
    195 H195       -3.8140  -20.9705  -45.8335 H         1 UNK         0.3000 
    196 H196       -6.3608  -21.9666  -45.7640 H         1 UNK         0.0600 
    197 H197       -4.6523  -22.4887  -44.0878 H         1 UNK         0.0600 
    198 H198       -3.7155  -23.4172  -45.2568 H         1 UNK         0.0600 
    199 H199       -5.2916  -23.9933  -44.7291 H         1 UNK         0.0600 
    200 H200       -7.4912  -22.4250  -47.5387 H         1 UNK         0.3000 
    201 H201       -8.2883  -23.3218  -49.3948 H         1 UNK         0.0600 
    202 H202       -8.0094  -25.7860  -49.7206 H         1 UNK         0.0600 
    203 H203       -8.3310  -25.3918  -48.0419 H         1 UNK         0.0600 
    204 H204       -6.6966  -25.7996  -48.5476 H         1 UNK         0.0600 
    205 H205       -5.9430  -21.7121  -49.6802 H         1 UNK         0.3000 
    206 H206       -4.3870  -21.0152  -51.0940 H         1 UNK         0.0600 
    207 H207       -6.2675  -21.1661  -52.7584 H         1 UNK         0.0600 
    208 H208       -5.7091  -22.7710  -53.2289 H         1 UNK         0.0600 
    209 H209       -4.6830  -21.3602  -53.4801 H         1 UNK         0.0600 
    210 H210       -3.4844  -22.7696  -49.4040 H         1 UNK         0.3000 
    211 H211       -1.8099  -24.0457  -48.7752 H         1 UNK         0.0600 
    212 H212       -0.4576  -22.6367  -50.4613 H         1 UNK         0.0600 
    213 H213        0.2161  -24.2229  -50.1027 H         1 UNK         0.0600 
    214 H214       -0.6441  -23.9465  -51.6065 H         1 UNK         0.0600 
    215 H215       -4.1501  -25.2807  -49.2907 H         1 UNK         0.3000 
    216 H216       -5.2869  -27.1297  -49.8402 H         1 UNK         0.0600 
    217 H217       -4.1881  -29.3175  -49.5185 H         1 UNK         0.0600 
    218 H218       -2.5955  -28.5805  -49.6252 H         1 UNK         0.0600 
    219 H219       -3.6600  -28.1976  -48.2729 H         1 UNK         0.0600 
    220 H220       -4.9167  -25.5766  -51.9057 H         1 UNK         0.3000 
    221 H221       -4.9871  -25.2506  -54.0456 H         1 UNK         0.0600 
    222 H222       -5.3384  -28.2687  -54.4148 H         1 UNK         0.0600 
    223 H223       -6.6299  -27.1397  -54.0042 H         1 UNK         0.0600 
    224 H224       -5.8075  -27.0111  -55.5488 H         1 UNK         0.0600 
    225 H225       -2.2283  -26.2213  -52.7910 H         1 UNK         0.3000 
    226 H226       -0.7459  -27.0008  -55.1667 H         1 UNK         0.0600 
    227 H227       -0.0506  -27.6553  -52.8398 H         1 UNK         0.0600 
    228 H228        1.2187  -26.8387  -53.7403 H         1 UNK         0.0600 
    229 H229        0.3338  -25.9673  -52.5011 H         1 UNK         0.0600 
    230 H230       -1.5134  -23.9247  -53.5356 H         1 UNK         0.3000 
    231 H231        0.2135  -22.3670  -55.3800 H         1 UNK         0.0600 
    232 H232        0.0805  -21.6822  -52.9713 H         1 UNK         0.0600 
    233 H233       -1.6496  -21.3991  -53.1454 H         1 UNK         0.0600 
    234 H234       -0.5054  -20.4325  -54.0571 H         1 UNK         0.0600 
    235 H235       -3.1813  -23.0215  -54.5940 H         1 UNK         0.3000 
    236 H236       -5.1107  -22.9145  -55.6622 H         1 UNK         0.0600 
    237 H237       -3.9004  -24.3205  -57.3474 H         1 UNK         0.0600 
    238 H238       -5.1851  -23.3728  -58.0733 H         1 UNK         0.0600 
    239 H239       -3.5122  -22.8712  -58.2713 H         1 UNK         0.0600 
    240 H240       -3.5801  -20.2813  -55.1367 H         1 UNK         0.3000 
    241 H241       -4.6885  -18.3797  -56.9829 H         1 UNK         0.0600 
    242 H242       -7.4734  -16.8946  -55.2796 H         1 UNK         0.3800 
    243 H243       -6.1439  -16.5049  -56.3317 H         1 UNK         0.3800 
    244 H244       -2.5881  -17.8590  -55.9709 H         1 UNK         0.0800 
    245 H245       -3.7363  -16.6726  -55.4317 H         1 UNK         0.0800 
    246 H246       -1.5013  -16.2694  -54.1605 H         1 UNK         0.0800 
    247 H247       -0.6524  -17.7882  -54.0269 H         1 UNK         0.0800 
@<TRIPOS>BOND
     1    1    2 1    
     2    1  127 1    
     3    1  128 1    
     4    1  129 1    
     5    2    3 2    
     6    2    4 am   BACKBONE|DICT|INTERRES
     7    4    5 1    
     8    4  130 1    
     9    5    6 1    
    10    5   65 1    
    11    5  131 1    
    12    6    7 1    
    13    6  132 1    
    14    6  133 1    
    15    7    8 1    
    16    8    9 1    
    17    8  134 1    
    18    8  135 1    
    19    9   10 ar   
    20    9   14 ar   
    21   10   11 ar   
    22   10  136 1    
    23   11   12 ar   
    24   11  126 1    
    25   12   13 ar   
    26   12  137 1    
    27   13   14 ar   
    28   13   15 1    
    29   14  138 1    
    30   15   16 1    
    31   15  139 1    
    32   15  140 1    
    33   16   17 1    
    34   17   18 1    
    35   17  141 1    
    36   17  142 1    
    37   18   19 1    
    38   18   67 1    
    39   18  143 1    
    40   19   20 am   BACKBONE|DICT|INTERRES
    41   19  144 1    
    42   20   21 2    
    43   20   22 1    
    44   22   23 1    
    45   22   24 1    
    46   22  145 1    
    47   23  146 1    
    48   23  147 1    
    49   23  148 1    
    50   24   25 am   BACKBONE|DICT|INTERRES
    51   24  149 1    
    52   25   26 2    
    53   25   27 1    
    54   27   28 1    
    55   27   29 1    
    56   27  150 1    
    57   28  151 1    
    58   28  152 1    
    59   28  153 1    
    60   29   30 am   BACKBONE|DICT|INTERRES
    61   29  154 1    
    62   30   31 2    
    63   30   32 1    
    64   32   33 1    
    65   32   34 1    
    66   32  155 1    
    67   33  156 1    
    68   33  157 1    
    69   33  158 1    
    70   34   35 am   BACKBONE|DICT|INTERRES
    71   34  159 1    
    72   35   36 2    
    73   35   37 1    
    74   37   38 1    
    75   37   39 1    
    76   37  160 1    
    77   38  161 1    
    78   38  162 1    
    79   38  163 1    
    80   39   40 am   BACKBONE|DICT|INTERRES
    81   39  164 1    
    82   40   41 2    
    83   40   42 1    
    84   42   43 1    
    85   42   44 1    
    86   42  165 1    
    87   43  166 1    
    88   43  167 1    
    89   43  168 1    
    90   44   45 am   BACKBONE|DICT|INTERRES
    91   44  169 1    
    92   45   46 2    
    93   45   47 1    
    94   47   48 1    
    95   47   49 1    
    96   47  170 1    
    97   48  171 1    
    98   48  172 1    
    99   48  173 1    
   100   49   50 am   BACKBONE|DICT|INTERRES
   101   49  174 1    
   102   50   51 2    
   103   50   52 1    
   104   52   53 1    
   105   52   54 1    
   106   52  175 1    
   107   53  176 1    
   108   53  177 1    
   109   53  178 1    
   110   54   55 am   BACKBONE|DICT|INTERRES
   111   54  179 1    
   112   55   56 2    
   113   55   57 1    
   114   57   58 1    
   115   57   59 1    
   116   57  180 1    
   117   58  181 1    
   118   58  182 1    
   119   58  183 1    
   120   59   60 am   BACKBONE|DICT|INTERRES
   121   59  184 1    
   122   60   61 2    
   123   60   62 1    
   124   62   63 1    
   125   62   64 1    
   126   62  185 1    
   127   63  186 1    
   128   63  187 1    
   129   63  188 1    
   130   64   65 am   BACKBONE|DICT|INTERRES
   131   64  189 1    
   132   65   66 2    
   133   67   68 2    
   134   67   69 am   BACKBONE|DICT|INTERRES
   135   69   70 1    
   136   69  190 1    
   137   70   71 1    
   138   70   72 1    
   139   70  191 1    
   140   71  192 1    
   141   71  193 1    
   142   71  194 1    
   143   72   73 2    
   144   72   74 am   BACKBONE|DICT|INTERRES
   145   74   75 1    
   146   74  195 1    
   147   75   76 1    
   148   75   77 1    
   149   75  196 1    
   150   76  197 1    
   151   76  198 1    
   152   76  199 1    
   153   77   78 2    
   154   77   79 am   BACKBONE|DICT|INTERRES
   155   79   80 1    
   156   79  200 1    
   157   80   81 1    
   158   80   82 1    
   159   80  201 1    
   160   81  202 1    
   161   81  203 1    
   162   81  204 1    
   163   82   83 2    
   164   82   84 am   BACKBONE|DICT|INTERRES
   165   84   85 1    
   166   84  205 1    
   167   85   86 1    
   168   85   87 1    
   169   85  206 1    
   170   86  207 1    
   171   86  208 1    
   172   86  209 1    
   173   87   88 2    
   174   87   89 am   BACKBONE|DICT|INTERRES
   175   89   90 1    
   176   89  210 1    
   177   90   91 1    
   178   90   92 1    
   179   90  211 1    
   180   91  212 1    
   181   91  213 1    
   182   91  214 1    
   183   92   93 2    
   184   92   94 am   BACKBONE|DICT|INTERRES
   185   94   95 1    
   186   94  215 1    
   187   95   96 1    
   188   95   97 1    
   189   95  216 1    
   190   96  217 1    
   191   96  218 1    
   192   96  219 1    
   193   97   98 2    
   194   97   99 am   BACKBONE|DICT|INTERRES
   195   99  100 1    
   196   99  220 1    
   197  100  101 1    
   198  100  102 1    
   199  100  221 1    
   200  101  222 1    
   201  101  223 1    
   202  101  224 1    
   203  102  103 2    
   204  102  104 am   BACKBONE|DICT|INTERRES
   205  104  105 1    
   206  104  225 1    
   207  105  106 1    
   208  105  107 1    
   209  105  226 1    
   210  106  227 1    
   211  106  228 1    
   212  106  229 1    
   213  107  108 2    
   214  107  109 am   BACKBONE|DICT|INTERRES
   215  109  110 1    
   216  109  230 1    
   217  110  111 1    
   218  110  112 1    
   219  110  231 1    
   220  111  232 1    
   221  111  233 1    
   222  111  234 1    
   223  112  113 2    
   224  112  114 am   BACKBONE|DICT|INTERRES
   225  114  115 1    
   226  114  235 1    
   227  115  116 1    
   228  115  117 1    
   229  115  236 1    
   230  116  237 1    
   231  116  238 1    
   232  116  239 1    
   233  117  118 2    
   234  117  119 am   BACKBONE|DICT|INTERRES
   235  119  120 1    
   236  119  240 1    
   237  120  121 1    
   238  120  124 1    
   239  120  241 1    
   240  121  122 am   BACKBONE|DICT|INTERRES
   241  121  123 2    
   242  122  242 1    
   243  122  243 1    
   244  124  125 1    
   245  124  244 1    
   246  124  245 1    
   247  125  126 1    
   248  126  246 1    
   249  126  247 1    
@<TRIPOS>SUBSTRUCTURE
     1 UNK         1 GROUP             0       ****    0 ROOT    
