@<TRIPOS>MOLECULE
3R540
247   249    1
SMALL
USER_CHARGES


@<TRIPOS>ATOM
      1 CA         -2.2886  -14.8801  -52.4511 C.3       0 UNK        -0.1800 
      2 C          -1.7275  -14.3877  -51.1255 C.2       0 UNK         0.5000 
      3 O          -1.8404  -13.2025  -50.8140 O.2       0 UNK        -0.5000 
      4 N          -1.1247  -15.2948  -50.3453 N.am      1 UNK        -0.5000 
      5 CA         -0.5063  -15.0099  -49.0415 C.3       1 UNK         0.1400 
      6 C6          0.4593  -16.1499  -48.6232 C.3       23 UNK        -0.0398 
      7 S7          2.0608  -15.5322  -47.9992 S.3       23 UNK        -0.2404 
      8 C8          3.0677  -15.3696  -49.5098 C.3       23 UNK        -0.0205 
      9 C9          3.0649  -16.6270  -50.3670 C.ar      23 UNK        -0.0193 
     10 C10         2.5654  -16.5743  -51.6703 C.ar      23 UNK        -0.1150 
     11 C11         2.5150  -17.7232  -52.4684 C.ar      23 UNK        -0.0193 
     12 C12         2.9950  -18.9286  -51.9465 C.ar      23 UNK        -0.1150 
     13 C13         3.5122  -18.9926  -50.6477 C.ar      23 UNK        -0.0193 
     14 C14         3.5429  -17.8387  -49.8610 C.ar      23 UNK        -0.1150 
     15 C15         4.0637  -20.3041  -50.1119 C.3       23 UNK        -0.0205 
     16 S16         2.7361  -21.4655  -49.6736 S.3       23 UNK        -0.2404 
     17 C17         2.3125  -20.9719  -47.9654 C.3       23 UNK        -0.0398 
     18 CA          1.6310  -22.1404  -47.2079 C.3       11 UNK         0.1400 
     19 N           1.7577  -22.0276  -45.7519 N.am      11 UNK        -0.5000 
     20 C           1.6052  -23.0609  -44.9089 C.2       10 UNK         0.5000 
     21 O           1.4302  -24.2226  -45.2770 O.2       10 UNK        -0.5000 
     22 CA          1.6268  -22.7519  -43.3999 C.3       10 UNK         0.1400 
     23 CB          3.0665  -22.7471  -42.8647 C.3       10 UNK        -0.1800 
     24 N           0.9722  -21.4870  -43.0664 N.am      10 UNK        -0.5000 
     25 C          -0.3328  -21.2372  -43.2441 C.2       9 UNK         0.5000 
     26 O          -1.1402  -22.0700  -43.6545 O.2       9 UNK        -0.5000 
     27 CA         -0.8077  -19.8002  -42.9718 C.3       9 UNK         0.1400 
     28 CB         -1.1036  -19.5893  -41.4803 C.3       9 UNK        -0.1800 
     29 N           0.1550  -18.7982  -43.4242 N.am      9 UNK        -0.5000 
     30 C           0.5240  -18.6004  -44.6973 C.2       8 UNK         0.5000 
     31 O           0.0669  -19.2249  -45.6525 O.2       8 UNK        -0.5000 
     32 CA          1.6129  -17.5452  -44.9331 C.3       8 UNK         0.1400 
     33 CB          1.0222  -16.1312  -44.8370 C.3       8 UNK        -0.1800 
     34 N           2.7086  -17.6850  -43.9775 N.am      8 UNK        -0.5000 
     35 C           3.5594  -18.7198  -43.9474 C.2       7 UNK         0.5000 
     36 O           3.5424  -19.6439  -44.7615 O.2       7 UNK        -0.5000 
     37 CA          4.5700  -18.7384  -42.7853 C.3       7 UNK         0.1400 
     38 CB          5.8258  -17.9327  -43.1494 C.3       7 UNK        -0.1800 
     39 N           4.0032  -18.2161  -41.5384 N.am      7 UNK        -0.5000 
     40 C           3.0428  -18.8294  -40.8318 C.2       6 UNK         0.5000 
     41 O           2.5519  -19.9130  -41.1464 O.2       6 UNK        -0.5000 
     42 CA          2.5024  -18.0782  -39.5991 C.3       6 UNK         0.1400 
     43 CB          3.4242  -18.2881  -38.3886 C.3       6 UNK        -0.1800 
     44 N           2.3128  -16.6408  -39.8277 N.am      6 UNK        -0.5000 
     45 C           1.4888  -16.1264  -40.7494 C.2       5 UNK         0.5000 
     46 O           0.8159  -16.8193  -41.5171 O.2       5 UNK        -0.5000 
     47 CA          1.4324  -14.5953  -40.8641 C.3       5 UNK         0.1400 
     48 CB          2.7696  -14.0256  -41.3732 C.3       5 UNK        -0.1800 
     49 N           0.3690  -14.2501  -41.8004 N.am      5 UNK        -0.5000 
     50 C          -0.3049  -13.0993  -41.8696 C.2       4 UNK         0.5000 
     51 O          -0.0953  -12.1456  -41.1186 O.2       4 UNK        -0.5000 
     52 CA         -1.3863  -12.9763  -42.9674 C.3       4 UNK         0.1400 
     53 CB         -0.9490  -11.9653  -44.0394 C.3       4 UNK        -0.1800 
     54 N          -1.7316  -14.2328  -43.6421 N.am      4 UNK        -0.5000 
     55 C          -2.4215  -15.2459  -43.0973 C.2       3 UNK         0.5000 
     56 O          -2.7962  -15.2571  -41.9242 O.2       3 UNK        -0.5000 
     57 CA         -2.7362  -16.4394  -44.0297 C.3       3 UNK         0.1400 
     58 CB         -3.8568  -17.3542  -43.4945 C.3       3 UNK        -0.1800 
     59 N          -3.0050  -16.0431  -45.4185 N.am      3 UNK        -0.5000 
     60 C          -3.9621  -15.2044  -45.8455 C.2       2 UNK         0.5000 
     61 O          -4.7995  -14.6929  -45.1006 O.2       2 UNK        -0.5000 
     62 CA         -4.0009  -14.8837  -47.3573 C.3       2 UNK         0.1400 
     63 CB         -4.4123  -13.4205  -47.6226 C.3       2 UNK        -0.1800 
     64 N          -2.7789  -15.1997  -48.1131 N.am      2 UNK        -0.5000 
     65 C          -1.5452  -14.6968  -47.9368 C.2       1 UNK         0.5000 
     66 O          -1.2168  -14.0162  -46.9640 O.2       1 UNK        -0.5000 
     67 C           0.1582  -22.3223  -47.6347 C.2       11 UNK         0.5000 
     68 O          -0.1216  -23.1452  -48.5065 O.2       11 UNK        -0.5000 
     69 N          -0.7557  -21.5609  -47.0130 N.am      12 UNK        -0.5000 
     70 CA         -2.1969  -21.6244  -47.2532 C.3       12 UNK         0.1400 
     71 CB         -2.9065  -20.4843  -46.5069 C.3       12 UNK        -0.1800 
     72 C          -2.8020  -22.9927  -46.8956 C.2       12 UNK         0.5000 
     73 O          -3.5305  -23.5523  -47.7142 O.2       12 UNK        -0.5000 
     74 N          -2.4605  -23.5108  -45.7071 N.am      13 UNK        -0.5000 
     75 CA         -2.8385  -24.8242  -45.1790 C.3       13 UNK         0.1400 
     76 CB         -2.0124  -25.9211  -45.8880 C.3       13 UNK        -0.1800 
     77 C          -4.3669  -25.0596  -45.2179 C.2       13 UNK         0.5000 
     78 O          -5.1275  -24.1666  -44.8358 O.2       13 UNK        -0.5000 
     79 N          -4.7936  -26.2393  -45.6828 N.am      14 UNK        -0.5000 
     80 CA         -6.1858  -26.5485  -45.9912 C.3       14 UNK         0.1400 
     81 CB         -6.3994  -28.0656  -45.8736 C.3       14 UNK        -0.1800 
     82 C          -6.5270  -26.0644  -47.4115 C.2       14 UNK         0.5000 
     83 O          -5.7046  -26.2064  -48.3188 O.2       14 UNK        -0.5000 
     84 N          -7.7454  -25.5319  -47.5760 N.am      15 UNK        -0.5000 
     85 CA         -8.3643  -25.0881  -48.8343 C.3       15 UNK         0.1400 
     86 CB         -8.5320  -26.2728  -49.8100 C.3       15 UNK        -0.1800 
     87 C          -7.6996  -23.8652  -49.5085 C.2       15 UNK         0.5000 
     88 O          -8.0309  -23.5673  -50.6570 O.2       15 UNK        -0.5000 
     89 N          -6.8187  -23.1592  -48.7816 N.am      16 UNK        -0.5000 
     90 CA         -6.1042  -21.9420  -49.1849 C.3       16 UNK         0.1400 
     91 CB         -7.0803  -20.7537  -49.2991 C.3       16 UNK        -0.1800 
     92 C          -5.2505  -22.1491  -50.4540 C.2       16 UNK         0.5000 
     93 O          -5.4519  -21.4781  -51.4678 O.2       16 UNK        -0.5000 
     94 N          -4.2994  -23.0863  -50.3676 N.am      17 UNK        -0.5000 
     95 CA         -3.4056  -23.4957  -51.4521 C.3       17 UNK         0.1400 
     96 CB         -2.5328  -24.6639  -50.9726 C.3       17 UNK        -0.1800 
     97 C          -2.5354  -22.3529  -52.0086 C.2       17 UNK         0.5000 
     98 O          -2.3146  -22.2996  -53.2167 O.2       17 UNK        -0.5000 
     99 N          -2.0996  -21.4316  -51.1379 N.am      18 UNK        -0.5000 
    100 CA        -1.3582  -20.2278  -51.5210 C.3       18 UNK         0.1400 
    101 CB        -0.7849  -19.5466  -50.2707 C.3       18 UNK        -0.1800 
    102 C         -2.2172  -19.2389  -52.3307 C.2       18 UNK         0.5000 
    103 O         -1.7252  -18.6548  -53.2942 O.2       18 UNK        -0.5000 
    104 N         -3.4971  -19.0954  -51.9565 N.am      19 UNK        -0.5000 
    105 CA        -4.4678  -18.2692  -52.6772 C.3       19 UNK         0.1400 
    106 CB        -5.7201  -18.0514  -51.8162 C.3       19 UNK        -0.1800 
    107 C         -4.8305  -18.8692  -54.0465 C.2       19 UNK         0.5000 
    108 O         -4.9898  -18.1214  -55.0101 O.2       19 UNK        -0.5000 
    109 N         -4.8980  -20.2043  -54.1290 N.am      20 UNK        -0.5000 
    110 CA        -5.0458  -20.9341  -55.3886 C.3       20 UNK         0.1400 
    111 CB        -5.3535  -22.4100  -55.0931 C.3       20 UNK        -0.1800 
    112 C         -3.8088  -20.7960  -56.3013 C.2       20 UNK         0.5000 
    113 O         -3.9640  -20.6966  -57.5191 O.2       20 UNK        -0.5000 
    114 N         -2.6110  -20.7857  -55.6997 N.am      21 UNK        -0.5000 
    115 CA        -1.3293  -20.6685  -56.3917 C.3       21 UNK         0.1400 
    116 CB        -0.1917  -21.1058  -55.4554 C.3       21 UNK        -0.1800 
    117 C         -1.0509  -19.2626  -56.9527 C.2       21 UNK         0.5000 
    118 O         -0.5702  -19.1643  -58.0832 O.2       21 UNK        -0.5000 
    119 N         -1.3213  -18.2104  -56.1676 N.am      22 UNK        -0.5000 
    120 CA        -0.9297  -16.8286  -56.5018 C.3       22 UNK         0.1400 
    121 C         -1.9734  -15.7278  -56.1584 C.2       22 UNK         0.5000 
    122 N         -3.1902  -16.0493  -55.7446 N.am      22 UNK        -0.7600 
    123 O         -1.6884  -14.5420  -56.3050 O.2       22 UNK        -0.5000 
    124 C124        0.5016  -16.4942  -55.9999 C.3       23 UNK        -0.0398 
    125 S125        0.6647  -16.4634  -54.1800 S.3       23 UNK        -0.2404 
    126 C126        1.9997  -17.6771  -53.9069 C.3       23 UNK        -0.0205 
    127 H127       -3.3755  -14.8008  -52.4548 H         1 UNK         0.0600 
    128 H128       -2.0190  -15.9184  -52.6443 H         1 UNK         0.0600 
    129 H129       -1.8984  -14.2767  -53.2708 H         1 UNK         0.0600 
    130 H130       -1.0454  -16.2443  -50.6778 H         1 UNK         0.3000 
    131 H131        0.0751  -14.0951  -49.1772 H         1 UNK         0.0600 
    132 H132        0.6532  -16.8196  -49.4581 H         1 UNK         0.0800 
    133 H133        0.0211  -16.7990  -47.8629 H         1 UNK         0.0800 
    134 H134        2.7032  -14.5121  -50.0776 H         1 UNK         0.0800 
    135 H135        4.0944  -15.1350  -49.2264 H         1 UNK         0.0800 
    136 H136        2.2126  -15.6306  -52.0604 H         1 UNK         0.1150 
    137 H137        2.9772  -19.8220  -52.5550 H         1 UNK         0.1150 
    138 H138        3.9339  -17.8807  -48.8539 H         1 UNK         0.1150 
    139 H139        4.6876  -20.7643  -50.8794 H         1 UNK         0.0800 
    140 H140        4.7169  -20.1365  -49.2543 H         1 UNK         0.0800 
    141 H141        1.6922  -20.0736  -47.9769 H         1 UNK         0.0800 
    142 H142        3.2363  -20.6950  -47.4554 H         1 UNK         0.0800 
    143 H143        2.1557  -23.0569  -47.4885 H         1 UNK         0.0600 
    144 H144        1.9395  -21.1062  -45.3734 H         1 UNK         0.3000 
    145 H145        1.0812  -23.5503  -42.8927 H         1 UNK         0.0600 
    146 H146        3.0848  -22.6071  -41.7838 H         1 UNK         0.0600 
    147 H147        3.5655  -23.6931  -43.0782 H         1 UNK         0.0600 
    148 H148        3.6619  -21.9532  -43.3154 H         1 UNK         0.0600 
    149 H149        1.5556  -20.7673  -42.6514 H         1 UNK         0.3000 
    150 H150       -1.7348  -19.6440  -43.5251 H         1 UNK         0.0600 
    151 H151       -1.8545  -20.2972  -41.1273 H         1 UNK         0.0600 
    152 H152       -1.4867  -18.5860  -41.2923 H         1 UNK         0.0600 
    153 H153       -0.2107  -19.7240  -40.8695 H         1 UNK         0.0600 
    154 H154        0.5575  -18.2047  -42.7021 H         1 UNK         0.3000 
    155 H155        2.0143  -17.6915  -45.9377 H         1 UNK         0.0600 
    156 H156        0.5615  -15.9504  -43.8720 H         1 UNK         0.0600 
    157 H157        0.2501  -15.9781  -45.5896 H         1 UNK         0.0600 
    158 H158        1.7852  -15.3679  -44.9896 H         1 UNK         0.0600 
    159 H159        2.7688  -16.9923  -43.2475 H         1 UNK         0.3000 
    160 H160        4.8661  -19.7762  -42.6184 H         1 UNK         0.0600 
    161 H161        5.5977  -16.8778  -43.3076 H         1 UNK         0.0600 
    162 H162        6.2797  -18.3116  -44.0662 H         1 UNK         0.0600 
    163 H163        6.5786  -17.9998  -42.3638 H         1 UNK         0.0600 
    164 H164        4.3524  -17.3274  -41.2112 H         1 UNK         0.3000 
    165 H165        1.5265  -18.5055  -39.3591 H         1 UNK         0.0600 
    166 H166        2.9996  -17.8441  -37.4881 H         1 UNK         0.0600 
    167 H167        3.5688  -19.3506  -38.1879 H         1 UNK         0.0600 
    168 H168        4.4088  -17.8471  -38.5488 H         1 UNK         0.0600 
    169 H169        2.8387  -16.0161  -39.2336 H         1 UNK         0.3000 
    170 H170        1.2001  -14.1858  -39.8791 H         1 UNK         0.0600 
    171 H171        3.5872  -14.2567  -40.6898 H         1 UNK         0.0600 
    172 H172        3.0317  -14.4304  -42.3517 H         1 UNK         0.0600 
    173 H173        2.7267  -12.9401  -41.4641 H         1 UNK         0.0600 
    174 H174        0.0778  -15.0198  -42.3869 H         1 UNK         0.3000 
    175 H175       -2.2887  -12.5936  -42.4865 H         1 UNK         0.0600 
    176 H176       -0.0574  -12.3043  -44.5687 H         1 UNK         0.0600 
    177 H177       -1.7357  -11.8086  -44.7780 H         1 UNK         0.0600 
    178 H178       -0.7213  -10.9944  -43.5976 H         1 UNK         0.0600 
    179 H179       -1.4916  -14.2865  -44.6244 H         1 UNK         0.3000 
    180 H180       -1.8262  -17.0335  -44.0595 H         1 UNK         0.0600 
    181 H181       -4.0208  -18.2039  -44.1574 H         1 UNK         0.0600 
    182 H182       -4.8017  -16.8200  -43.3924 H         1 UNK         0.0600 
    183 H183       -3.6008  -17.7554  -42.5134 H         1 UNK         0.0600 
    184 H184       -2.3713  -16.4066  -46.1144 H         1 UNK         0.3000 
    185 H185       -4.7817  -15.5227  -47.7721 H         1 UNK         0.0600 
    186 H186       -5.3979  -13.2042  -47.2089 H         1 UNK         0.0600 
    187 H187       -3.7079  -12.7178  -47.1760 H         1 UNK         0.0600 
    188 H188       -4.4598  -13.2119  -48.6916 H         1 UNK         0.0600 
    189 H189       -2.9242  -15.7641  -48.9379 H         1 UNK         0.3000 
    190 H190       -0.4378  -20.8569  -46.3511 H         1 UNK         0.3000 
    191 H191       -2.3553  -21.4669  -48.3200 H         1 UNK         0.0600 
    192 H192       -3.9773  -20.4873  -46.7124 H         1 UNK         0.0600 
    193 H193       -2.5195  -19.5112  -46.8100 H         1 UNK         0.0600 
    194 H194       -2.7824  -20.5727  -45.4282 H         1 UNK         0.0600 
    195 H195       -1.8984  -22.9416  -45.0773 H         1 UNK         0.3000 
    196 H196       -2.5561  -24.8217  -44.1254 H         1 UNK         0.0600 
    197 H197       -2.2712  -26.0060  -46.9445 H         1 UNK         0.0600 
    198 H198       -0.9462  -25.7010  -45.8301 H         1 UNK         0.0600 
    199 H199       -2.1594  -26.8965  -45.4230 H         1 UNK         0.0600 
    200 H200       -4.1073  -26.8909  -46.0341 H         1 UNK         0.3000 
    201 H201       -6.8401  -26.0528  -45.2707 H         1 UNK         0.0600 
    202 H202       -5.7719  -28.6176  -46.5747 H         1 UNK         0.0600 
    203 H203       -7.4366  -28.3307  -46.0829 H         1 UNK         0.0600 
    204 H204       -6.1702  -28.4191  -44.8682 H         1 UNK         0.0600 
    205 H205       -8.3376  -25.4463  -46.7610 H         1 UNK         0.3000 
    206 H206       -9.3667  -24.7549  -48.5620 H         1 UNK         0.0600 
    207 H207       -9.0210  -27.1178  -49.3254 H         1 UNK         0.0600 
    208 H208       -9.1476  -25.9932  -50.6658 H         1 UNK         0.0600 
    209 H209       -7.5734  -26.6168  -50.1991 H         1 UNK         0.0600 
    210 H210       -6.5877  -23.5158  -47.8653 H         1 UNK         0.3000 
    211 H211       -5.4110  -21.7102  -48.3762 H         1 UNK         0.0600 
    212 H212       -6.5373  -19.8205  -49.4479 H         1 UNK         0.0600 
    213 H213       -7.6712  -20.6401  -48.3903 H         1 UNK         0.0600 
    214 H214       -7.7707  -20.8710  -50.1351 H         1 UNK         0.0600 
    215 H215       -4.1647  -23.5505  -49.4714 H         1 UNK         0.3000 
    216 H216       -4.0328  -23.8549  -52.2702 H         1 UNK         0.0600 
    217 H217       -1.9164  -24.3802  -50.1191 H         1 UNK         0.0600 
    218 H218       -1.8643  -25.0054  -51.7640 H         1 UNK         0.0600 
    219 H219       -3.1450  -25.5146  -50.6721 H         1 UNK         0.0600 
    220 H220       -2.2975  -21.5665  -50.1597 H         1 UNK         0.3000 
    221 H221       -0.5190  -20.5338  -52.1491 H         1 UNK         0.0600 
    222 H222       -0.1787  -18.6858  -50.5525 H         1 UNK         0.0600 
    223 H223       -0.1360  -20.2247  -49.7194 H         1 UNK         0.0600 
    224 H224       -1.5670  -19.2007  -49.5939 H         1 UNK         0.0600 
    225 H225       -3.8568  -19.6659  -51.2061 H         1 UNK         0.3000 
    226 H226       -4.0135  -17.2932  -52.8556 H         1 UNK         0.0600 
    227 H227       -5.4644  -17.6539  -50.8340 H         1 UNK         0.0600 
    228 H228       -6.3937  -17.3372  -52.2911 H         1 UNK         0.0600 
    229 H229       -6.2792  -18.9757  -51.6745 H         1 UNK         0.0600 
    230 H230       -4.8214  -20.7503  -53.2774 H         1 UNK         0.3000 
    231 H231       -5.9007  -20.5131  -55.9220 H         1 UNK         0.0600 
    232 H232       -4.5274  -22.9013  -54.5800 H         1 UNK         0.0600 
    233 H233       -5.5382  -22.9604  -56.0163 H         1 UNK         0.0600 
    234 H234       -6.2419  -22.5110  -54.4692 H         1 UNK         0.0600 
    235 H235       -2.5701  -20.9530  -54.7003 H         1 UNK         0.3000 
    236 H236       -1.3438  -21.3608  -57.2363 H         1 UNK         0.0600 
    237 H237       -0.3219  -22.1385  -55.1317 H         1 UNK         0.0600 
    238 H238        0.7745  -21.0429  -55.9575 H         1 UNK         0.0600 
    239 H239       -0.1387  -20.4796  -54.5654 H         1 UNK         0.0600 
    240 H240       -1.6489  -18.3630  -55.2171 H         1 UNK         0.3000 
    241 H241       -0.8878  -16.7562  -57.5900 H         1 UNK         0.0600 
    242 H242       -3.8420  -15.3063  -55.5544 H         1 UNK         0.3800 
    243 H243       -3.5067  -17.0073  -55.6527 H         1 UNK         0.3800 
    244 H244        0.8208  -15.5239  -56.3833 H         1 UNK         0.0800 
    245 H245        1.2076  -17.2133  -56.4168 H         1 UNK         0.0800 
    246 H246        1.6325  -18.6599  -54.2065 H         1 UNK         0.0800 
    247 H247        2.8394  -17.4389  -54.5608 H         1 UNK         0.0800 
@<TRIPOS>BOND
     1    1    2 1    
     2    1  127 1    
     3    1  128 1    
     4    1  129 1    
     5    2    3 2    
     6    2    4 am   BACKBONE|DICT|INTERRES
     7    4    5 1    
     8    4  130 1    
     9    5    6 1    
    10    5   65 1    
    11    5  131 1    
    12    6    7 1    
    13    6  132 1    
    14    6  133 1    
    15    7    8 1    
    16    8    9 1    
    17    8  134 1    
    18    8  135 1    
    19    9   10 ar   
    20    9   14 ar   
    21   10   11 ar   
    22   10  136 1    
    23   11   12 ar   
    24   11  126 1    
    25   12   13 ar   
    26   12  137 1    
    27   13   14 ar   
    28   13   15 1    
    29   14  138 1    
    30   15   16 1    
    31   15  139 1    
    32   15  140 1    
    33   16   17 1    
    34   17   18 1    
    35   17  141 1    
    36   17  142 1    
    37   18   19 1    
    38   18   67 1    
    39   18  143 1    
    40   19   20 am   BACKBONE|DICT|INTERRES
    41   19  144 1    
    42   20   21 2    
    43   20   22 1    
    44   22   23 1    
    45   22   24 1    
    46   22  145 1    
    47   23  146 1    
    48   23  147 1    
    49   23  148 1    
    50   24   25 am   BACKBONE|DICT|INTERRES
    51   24  149 1    
    52   25   26 2    
    53   25   27 1    
    54   27   28 1    
    55   27   29 1    
    56   27  150 1    
    57   28  151 1    
    58   28  152 1    
    59   28  153 1    
    60   29   30 am   BACKBONE|DICT|INTERRES
    61   29  154 1    
    62   30   31 2    
    63   30   32 1    
    64   32   33 1    
    65   32   34 1    
    66   32  155 1    
    67   33  156 1    
    68   33  157 1    
    69   33  158 1    
    70   34   35 am   BACKBONE|DICT|INTERRES
    71   34  159 1    
    72   35   36 2    
    73   35   37 1    
    74   37   38 1    
    75   37   39 1    
    76   37  160 1    
    77   38  161 1    
    78   38  162 1    
    79   38  163 1    
    80   39   40 am   BACKBONE|DICT|INTERRES
    81   39  164 1    
    82   40   41 2    
    83   40   42 1    
    84   42   43 1    
    85   42   44 1    
    86   42  165 1    
    87   43  166 1    
    88   43  167 1    
    89   43  168 1    
    90   44   45 am   BACKBONE|DICT|INTERRES
    91   44  169 1    
    92   45   46 2    
    93   45   47 1    
    94   47   48 1    
    95   47   49 1    
    96   47  170 1    
    97   48  171 1    
    98   48  172 1    
    99   48  173 1    
   100   49   50 am   BACKBONE|DICT|INTERRES
   101   49  174 1    
   102   50   51 2    
   103   50   52 1    
   104   52   53 1    
   105   52   54 1    
   106   52  175 1    
   107   53  176 1    
   108   53  177 1    
   109   53  178 1    
   110   54   55 am   BACKBONE|DICT|INTERRES
   111   54  179 1    
   112   55   56 2    
   113   55   57 1    
   114   57   58 1    
   115   57   59 1    
   116   57  180 1    
   117   58  181 1    
   118   58  182 1    
   119   58  183 1    
   120   59   60 am   BACKBONE|DICT|INTERRES
   121   59  184 1    
   122   60   61 2    
   123   60   62 1    
   124   62   63 1    
   125   62   64 1    
   126   62  185 1    
   127   63  186 1    
   128   63  187 1    
   129   63  188 1    
   130   64   65 am   BACKBONE|DICT|INTERRES
   131   64  189 1    
   132   65   66 2    
   133   67   68 2    
   134   67   69 am   BACKBONE|DICT|INTERRES
   135   69   70 1    
   136   69  190 1    
   137   70   71 1    
   138   70   72 1    
   139   70  191 1    
   140   71  192 1    
   141   71  193 1    
   142   71  194 1    
   143   72   73 2    
   144   72   74 am   BACKBONE|DICT|INTERRES
   145   74   75 1    
   146   74  195 1    
   147   75   76 1    
   148   75   77 1    
   149   75  196 1    
   150   76  197 1    
   151   76  198 1    
   152   76  199 1    
   153   77   78 2    
   154   77   79 am   BACKBONE|DICT|INTERRES
   155   79   80 1    
   156   79  200 1    
   157   80   81 1    
   158   80   82 1    
   159   80  201 1    
   160   81  202 1    
   161   81  203 1    
   162   81  204 1    
   163   82   83 2    
   164   82   84 am   BACKBONE|DICT|INTERRES
   165   84   85 1    
   166   84  205 1    
   167   85   86 1    
   168   85   87 1    
   169   85  206 1    
   170   86  207 1    
   171   86  208 1    
   172   86  209 1    
   173   87   88 2    
   174   87   89 am   BACKBONE|DICT|INTERRES
   175   89   90 1    
   176   89  210 1    
   177   90   91 1    
   178   90   92 1    
   179   90  211 1    
   180   91  212 1    
   181   91  213 1    
   182   91  214 1    
   183   92   93 2    
   184   92   94 am   BACKBONE|DICT|INTERRES
   185   94   95 1    
   186   94  215 1    
   187   95   96 1    
   188   95   97 1    
   189   95  216 1    
   190   96  217 1    
   191   96  218 1    
   192   96  219 1    
   193   97   98 2    
   194   97   99 am   BACKBONE|DICT|INTERRES
   195   99  100 1    
   196   99  220 1    
   197  100  101 1    
   198  100  102 1    
   199  100  221 1    
   200  101  222 1    
   201  101  223 1    
   202  101  224 1    
   203  102  103 2    
   204  102  104 am   BACKBONE|DICT|INTERRES
   205  104  105 1    
   206  104  225 1    
   207  105  106 1    
   208  105  107 1    
   209  105  226 1    
   210  106  227 1    
   211  106  228 1    
   212  106  229 1    
   213  107  108 2    
   214  107  109 am   BACKBONE|DICT|INTERRES
   215  109  110 1    
   216  109  230 1    
   217  110  111 1    
   218  110  112 1    
   219  110  231 1    
   220  111  232 1    
   221  111  233 1    
   222  111  234 1    
   223  112  113 2    
   224  112  114 am   BACKBONE|DICT|INTERRES
   225  114  115 1    
   226  114  235 1    
   227  115  116 1    
   228  115  117 1    
   229  115  236 1    
   230  116  237 1    
   231  116  238 1    
   232  116  239 1    
   233  117  118 2    
   234  117  119 am   BACKBONE|DICT|INTERRES
   235  119  120 1    
   236  119  240 1    
   237  120  121 1    
   238  120  124 1    
   239  120  241 1    
   240  121  122 am   BACKBONE|DICT|INTERRES
   241  121  123 2    
   242  122  242 1    
   243  122  243 1    
   244  124  125 1    
   245  124  244 1    
   246  124  245 1    
   247  125  126 1    
   248  126  246 1    
   249  126  247 1    
@<TRIPOS>SUBSTRUCTURE
     1 UNK         1 GROUP             0       ****    0 ROOT    
