@<TRIPOS>MOLECULE
3R540
247   249    1
SMALL
USER_CHARGES


@<TRIPOS>ATOM
      1 CA          2.2714  -12.7748  -46.7970 C.3       0 UNK        -0.1800 
      2 C           1.1037  -12.8591  -45.8265 C.2       0 UNK         0.5000 
      3 O           1.2687  -12.5678  -44.6422 O.2       0 UNK        -0.5000 
      4 N          -0.0809  -13.2464  -46.3181 N.am      1 UNK        -0.5000 
      5 CA         -1.3110  -13.3846  -45.5248 C.3       1 UNK         0.1400 
      6 C6         -2.4548  -14.0602  -46.3181 C.3       23 UNK        -0.0398 
      7 S7         -2.0921  -15.7925  -46.7623 S.3       23 UNK        -0.2404 
      8 C8         -1.6124  -15.6305  -48.5098 C.3       23 UNK        -0.0205 
      9 C9         -1.6187  -16.9747  -49.2211 C.ar      23 UNK        -0.0193 
     10 C10        -2.8168  -17.4695  -49.7430 C.ar      23 UNK        -0.1150 
     11 C11        -2.8401  -18.6760  -50.4445 C.ar      23 UNK        -0.0193 
     12 C12        -1.6518  -19.3882  -50.6225 C.ar      23 UNK        -0.1150 
     13 C13        -0.4428  -18.9069  -50.1134 C.ar      23 UNK        -0.0193 
     14 C14        -0.4350  -17.7005  -49.4024 C.ar      23 UNK        -0.1150 
     15 C15         0.8608  -19.6443  -50.4088 C.3       23 UNK        -0.0205 
     16 S16         0.8380  -21.4079  -49.9370 S.3       23 UNK        -0.2404 
     17 C17         1.0089  -21.2862  -48.1272 C.3       23 UNK        -0.0398 
     18 CA          0.1538  -22.2856  -47.3089 C.3       11 UNK         0.1400 
     19 N           0.4023  -22.1164  -45.8732 N.am      11 UNK        -0.5000 
     20 C          -0.0970  -22.8843  -44.8950 C.2       10 UNK         0.5000 
     21 O          -0.7942  -23.8761  -45.0929 O.2       10 UNK        -0.5000 
     22 CA          0.1903  -22.4489  -43.4474 C.3       10 UNK         0.1400 
     23 CB          1.5935  -22.8961  -43.0121 C.3       10 UNK        -0.1800 
     24 N           0.0425  -21.0063  -43.2519 N.am      10 UNK        -0.5000 
     25 C          -1.1082  -20.3328  -43.4002 C.2       9 UNK         0.5000 
     26 O          -2.1836  -20.8686  -43.6654 O.2       9 UNK        -0.5000 
     27 CA         -1.0368  -18.7979  -43.2929 C.3       9 UNK         0.1400 
     28 CB         -0.9942  -18.3457  -41.8259 C.3       9 UNK        -0.1800 
     29 N           0.1081  -18.2407  -44.0118 N.am      9 UNK        -0.5000 
     30 C           0.3060  -18.3652  -45.3317 C.2       8 UNK         0.5000 
     31 O          -0.4818  -18.9267  -46.0913 O.2       8 UNK        -0.5000 
     32 CA          1.6422  -17.8387  -45.8803 C.3       8 UNK         0.1400 
     33 CB          1.6120  -16.3172  -46.0616 C.3       8 UNK        -0.1800 
     34 N           2.7599  -18.2026  -45.0120 N.am      8 UNK        -0.5000 
     35 C           3.2332  -19.4485  -44.8768 C.2       7 UNK         0.5000 
     36 O           2.7923  -20.4178  -45.4937 O.2       7 UNK        -0.5000 
     37 CA          4.3647  -19.6473  -43.8527 C.3       7 UNK         0.1400 
     38 CB          5.7266  -19.3104  -44.4776 C.3       7 UNK        -0.1800 
     39 N           4.1736  -18.8469  -42.6420 N.am      7 UNK        -0.5000 
     40 C           3.1853  -19.0432  -41.7584 C.2       6 UNK         0.5000 
     41 O           2.3409  -19.9313  -41.8628 O.2       6 UNK        -0.5000 
     42 CA          3.1003  -18.0541  -40.5832 C.3       6 UNK         0.1400 
     43 CB          4.0300  -18.4904  -39.4412 C.3       6 UNK        -0.1800 
     44 N           3.4027  -16.6696  -40.9563 N.am      6 UNK        -0.5000 
     45 C           2.6992  -15.9477  -41.8381 C.2       5 UNK         0.5000 
     46 O           1.7699  -16.4003  -42.5110 O.2       5 UNK        -0.5000 
     47 CA          3.1159  -14.4772  -42.0121 C.3       5 UNK         0.1400 
     48 CB          3.8705  -14.2819  -43.3356 C.3       5 UNK        -0.1800 
     49 N           1.9511  -13.5944  -41.9825 N.am      5 UNK        -0.5000 
     50 C           1.1909  -13.3774  -40.8987 C.2       4 UNK         0.5000 
     51 O           1.4370  -13.8576  -39.7900 O.2       4 UNK        -0.5000 
     52 CA         -0.0411  -12.4674  -41.0901 C.3       4 UNK         0.1400 
     53 CB         -0.6496  -11.9724  -39.7613 C.3       4 UNK        -0.1800 
     54 N           0.2183  -11.3465  -41.9962 N.am      4 UNK        -0.5000 
     55 C           1.1139  -10.3569  -41.8515 C.2       3 UNK         0.5000 
     56 O           1.8160  -10.2063  -40.8509 O.2       3 UNK        -0.5000 
     57 CA          1.2708   -9.3757  -43.0322 C.3       3 UNK         0.1400 
     58 CB          2.6808   -9.4798  -43.6379 C.3       3 UNK        -0.1800 
     59 N           0.2913   -9.6202  -44.0927 N.am      3 UNK        -0.5000 
     60 C          -0.9261   -9.0646  -44.1618 C.2       2 UNK         0.5000 
     61 O          -1.3343   -8.2103  -43.3748 O.2       2 UNK        -0.5000 
     62 CA         -1.8534   -9.5658  -45.2878 C.3       2 UNK         0.1400 
     63 CB         -1.7578   -8.6439  -46.5128 C.3       2 UNK        -0.1800 
     64 N          -1.5662  -10.9424  -45.7029 N.am      2 UNK        -0.5000 
     65 C          -1.7838  -12.0317  -44.9504 C.2       1 UNK         0.5000 
     66 O          -2.2838  -11.9926  -43.8266 O.2       1 UNK        -0.5000 
     67 C          -1.3536  -22.2040  -47.6394 C.2       11 UNK         0.5000 
     68 O          -1.8888  -23.1094  -48.2850 O.2       11 UNK        -0.5000 
     69 N          -2.0149  -21.1515  -47.1383 N.am      12 UNK        -0.5000 
     70 CA         -3.4518  -20.9265  -47.2801 C.3       12 UNK         0.1400 
     71 CB         -3.8059  -19.5427  -46.7157 C.3       12 UNK        -0.1800 
     72 C          -4.3027  -22.0247  -46.6140 C.2       12 UNK         0.5000 
     73 O          -5.2940  -22.4584  -47.2017 O.2       12 UNK        -0.5000 
     74 N          -3.8940  -22.4652  -45.4152 N.am      13 UNK        -0.5000 
     75 CA         -4.5424  -23.5365  -44.6580 C.3       13 UNK         0.1400 
     76 CB         -4.0031  -23.5516  -43.2197 C.3       13 UNK        -0.1800 
     77 C          -4.3811  -24.9210  -45.3115 C.2       13 UNK         0.5000 
     78 O          -5.3422  -25.6913  -45.3342 O.2       13 UNK        -0.5000 
     79 N          -3.1790  -25.2142  -45.8287 N.am      14 UNK        -0.5000 
     80 CA         -2.8532  -26.4608  -46.5229 C.3       14 UNK         0.1400 
     81 CB         -1.3351  -26.5534  -46.7441 C.3       14 UNK        -0.1800 
     82 C          -3.5922  -26.6046  -47.8621 C.2       14 UNK         0.5000 
     83 O          -4.0067  -27.7123  -48.2050 O.2       14 UNK        -0.5000 
     84 N          -3.7257  -25.4887  -48.5948 N.am      15 UNK        -0.5000 
     85 CA         -4.4254  -25.2987  -49.8730 C.3       15 UNK         0.1400 
     86 CB         -5.9241  -25.6263  -49.7439 C.3       15 UNK        -0.1800 
     87 C          -3.7965  -26.0283  -51.0780 C.2       15 UNK         0.5000 
     88 O          -3.7910  -25.4751  -52.1751 O.2       15 UNK        -0.5000 
     89 N          -3.2331  -27.2238  -50.8694 N.am      16 UNK        -0.5000 
     90 CA         -2.4866  -27.9941  -51.8685 C.3       16 UNK         0.1400 
     91 CB         -2.2218  -29.4019  -51.3143 C.3       16 UNK        -0.1800 
     92 C          -1.1636  -27.3184  -52.2844 C.2       16 UNK         0.5000 
     93 O          -0.6895  -27.5371  -53.3993 O.2       16 UNK        -0.5000 
     94 N          -0.6035  -26.5017  -51.3824 N.am      17 UNK        -0.5000 
     95 CA          0.5968  -25.6956  -51.6013 C.3       17 UNK         0.1400 
     96 CB          1.2184  -25.3824  -50.2298 C.3       17 UNK        -0.1800 
     97 C           0.3186  -24.3848  -52.3658 C.2       17 UNK         0.5000 
     98 O           1.2663  -23.7550  -52.8379 O.2       17 UNK        -0.5000 
     99 N          -0.9542  -23.9734  -52.4410 N.am      18 UNK        -0.5000 
    100 CA        -1.3807  -22.6920  -52.9947 C.3       18 UNK         0.1400 
    101 CB        -2.8029  -22.3918  -52.5010 C.3       18 UNK        -0.1800 
    102 C         -1.3421  -22.6488  -54.5310 C.2       18 UNK         0.5000 
    103 O         -1.3974  -23.6880  -55.1939 O.2       18 UNK        -0.5000 
    104 N         -1.3025  -21.4218  -55.0621 N.am      19 UNK        -0.5000 
    105 CA        -1.5070  -21.1198  -56.4761 C.3       19 UNK         0.1400 
    106 CB        -0.9384  -19.7203  -56.7619 C.3       19 UNK        -0.1800 
    107 C         -3.0035  -21.1694  -56.8369 C.2       19 UNK         0.5000 
    108 O         -3.8589  -21.0383  -55.9568 O.2       19 UNK        -0.5000 
    109 N         -3.2946  -21.2922  -58.1393 N.am      20 UNK        -0.5000 
    110 CA        -4.6501  -21.3323  -58.7046 C.3       20 UNK         0.1400 
    111 CB        -4.5546  -21.5806  -60.2175 C.3       20 UNK        -0.1800 
    112 C         -5.4959  -20.0736  -58.4181 C.2       20 UNK         0.5000 
    113 O         -6.7241  -20.1625  -58.3829 O.2       20 UNK        -0.5000 
    114 N         -4.8258  -18.9391  -58.1676 N.am      21 UNK        -0.5000 
    115 CA        -5.4159  -17.6653  -57.7487 C.3       21 UNK         0.1400 
    116 CB        -4.3001  -16.6132  -57.6536 C.3       21 UNK        -0.1800 
    117 C         -6.2006  -17.7378  -56.4210 C.2       21 UNK         0.5000 
    118 O         -7.0985  -16.9209  -56.2118 O.2       21 UNK        -0.5000 
    119 N         -5.8726  -18.7151  -55.5645 N.am      22 UNK        -0.5000 
    120 CA        -6.6147  -19.0296  -54.3331 C.3       22 UNK         0.1400 
    121 C         -7.9361  -19.8213  -54.5749 C.2       22 UNK         0.5000 
    122 N         -8.2447  -20.2762  -55.7849 N.am      22 UNK        -0.7600 
    123 O         -8.7095  -20.0183  -53.6417 O.2       22 UNK        -0.5000 
    124 C124       -5.7213  -19.7524  -53.2928 C.3       23 UNK        -0.0398 
    125 S125       -4.2728  -18.7589  -52.7955 S.3       23 UNK        -0.2404 
    126 C126       -4.1399  -19.1972  -51.0337 C.3       23 UNK        -0.0205 
    127 H127        2.6104  -11.7427  -46.8841 H         1 UNK         0.0600 
    128 H128        3.1039  -13.3775  -46.4349 H         1 UNK         0.0600 
    129 H129        1.9994  -13.1324  -47.7902 H         1 UNK         0.0600 
    130 H130       -0.1606  -13.4711  -47.2982 H         1 UNK         0.3000 
    131 H131       -1.0736  -14.0228  -44.6702 H         1 UNK         0.0600 
    132 H132       -2.6996  -13.4861  -47.2131 H         1 UNK         0.0800 
    133 H133       -3.3673  -14.0799  -45.7189 H         1 UNK         0.0800 
    134 H134       -2.3019  -14.9560  -49.0196 H         1 UNK         0.0800 
    135 H135       -0.6258  -15.1717  -48.5790 H         1 UNK         0.0800 
    136 H136       -3.7305  -16.9071  -49.6119 H         1 UNK         0.1150 
    137 H137       -1.6609  -20.3105  -51.1794 H         1 UNK         0.1150 
    138 H138        0.4952  -17.3101  -49.0155 H         1 UNK         0.1150 
    139 H139        1.0523  -19.5796  -51.4805 H         1 UNK         0.0800 
    140 H140        1.7051  -19.1555  -49.9200 H         1 UNK         0.0800 
    141 H141        2.0638  -21.4332  -47.8928 H         1 UNK         0.0800 
    142 H142        0.7785  -20.2664  -47.8261 H         1 UNK         0.0800 
    143 H143        0.4830  -23.2934  -47.5689 H         1 UNK         0.0600 
    144 H144        1.0076  -21.3440  -45.6154 H         1 UNK         0.3000 
    145 H145       -0.5365  -22.9463  -42.8022 H         1 UNK         0.0600 
    146 H146        1.7671  -22.6763  -41.9586 H         1 UNK         0.0600 
    147 H147        1.7196  -23.9714  -43.1446 H         1 UNK         0.0600 
    148 H148        2.3731  -22.3996  -43.5901 H         1 UNK         0.0600 
    149 H149        0.8777  -20.4987  -42.9735 H         1 UNK         0.3000 
    150 H150       -1.9415  -18.3905  -43.7491 H         1 UNK         0.0600 
    151 H151       -1.8615  -18.7164  -41.2784 H         1 UNK         0.0600 
    152 H152       -0.9991  -17.2582  -41.7487 H         1 UNK         0.0600 
    153 H153       -0.1027  -18.7120  -41.3170 H         1 UNK         0.0600 
    154 H154        0.7894  -17.7256  -43.4603 H         1 UNK         0.3000 
    155 H155        1.8102  -18.2902  -46.8601 H         1 UNK         0.0600 
    156 H156        2.5740  -15.9392  -46.4070 H         1 UNK         0.0600 
    157 H157        1.3581  -15.8045  -45.1335 H         1 UNK         0.0600 
    158 H158        0.8689  -16.0344  -46.8051 H         1 UNK         0.0600 
    159 H159        3.1351  -17.4743  -44.4233 H         1 UNK         0.3000 
    160 H160        4.3721  -20.7011  -43.5661 H         1 UNK         0.0600 
    161 H161        5.7921  -18.2596  -44.7627 H         1 UNK         0.0600 
    162 H162        5.9016  -19.9057  -45.3748 H         1 UNK         0.0600 
    163 H163        6.5412  -19.5221  -43.7848 H         1 UNK         0.0600 
    164 H164        4.8236  -18.0918  -42.4809 H         1 UNK         0.3000 
    165 H165        2.0740  -18.0768  -40.2110 H         1 UNK         0.0600 
    166 H166        5.0791  -18.4519  -39.7371 H         1 UNK         0.0600 
    167 H167        3.9041  -17.8541  -38.5650 H         1 UNK         0.0600 
    168 H168        3.8136  -19.5137  -39.1311 H         1 UNK         0.0600 
    169 H169        4.1535  -16.2240  -40.4490 H         1 UNK         0.3000 
    170 H170        3.7782  -14.1905  -41.1927 H         1 UNK         0.0600 
    171 H171        4.7783  -14.8856  -43.3617 H         1 UNK         0.0600 
    172 H172        3.2608  -14.5689  -44.1919 H         1 UNK         0.0600 
    173 H173        4.1658  -13.2413  -43.4717 H         1 UNK         0.0600 
    174 H174        1.6739  -13.1818  -42.8695 H         1 UNK         0.3000 
    175 H175       -0.7933  -13.0846  -41.5833 H         1 UNK         0.0600 
    176 H176       -1.5229  -11.3447  -39.9384 H         1 UNK         0.0600 
    177 H177       -0.9741  -12.8110  -39.1443 H         1 UNK         0.0600 
    178 H178        0.0664  -11.3948  -39.1761 H         1 UNK         0.0600 
    179 H179       -0.3028  -11.3734  -42.8620 H         1 UNK         0.3000 
    180 H180        1.1433   -8.3649  -42.6393 H         1 UNK         0.0600 
    181 H181        2.8089   -8.7783  -44.4623 H         1 UNK         0.0600 
    182 H182        3.4444   -9.2479  -42.8944 H         1 UNK         0.0600 
    183 H183        2.8863  -10.4823  -44.0148 H         1 UNK         0.0600 
    184 H184        0.5339  -10.3412  -44.7579 H         1 UNK         0.3000 
    185 H185       -2.8780   -9.5302  -44.9115 H         1 UNK         0.0600 
    186 H186       -2.4620   -8.9443  -47.2889 H         1 UNK         0.0600 
    187 H187       -1.9921   -7.6128  -46.2449 H         1 UNK         0.0600 
    188 H188       -0.7565   -8.6511  -46.9455 H         1 UNK         0.0600 
    189 H189       -1.1389  -11.0617  -46.6100 H         1 UNK         0.3000 
    190 H190       -1.4914  -20.4332  -46.6426 H         1 UNK         0.3000 
    191 H191       -3.6798  -20.9279  -48.3478 H         1 UNK         0.0600 
    192 H192       -4.8627  -19.3180  -46.8628 H         1 UNK         0.0600 
    193 H193       -3.2329  -18.7584  -47.2096 H         1 UNK         0.0600 
    194 H194       -3.5984  -19.4779  -45.6472 H         1 UNK         0.0600 
    195 H195       -3.1001  -22.0122  -44.9716 H         1 UNK         0.3000 
    196 H196       -5.6107  -23.3147  -44.6133 H         1 UNK         0.0600 
    197 H197       -4.4815  -24.3347  -42.6302 H         1 UNK         0.0600 
    198 H198       -4.1951  -22.6035  -42.7171 H         1 UNK         0.0600 
    199 H199       -2.9280  -23.7314  -43.1952 H         1 UNK         0.0600 
    200 H200       -2.4152  -24.5528  -45.7072 H         1 UNK         0.3000 
    201 H201       -3.1562  -27.2928  -45.8840 H         1 UNK         0.0600 
    202 H202       -0.7996  -26.5591  -45.7947 H         1 UNK         0.0600 
    203 H203       -0.9615  -25.7148  -47.3333 H         1 UNK         0.0600 
    204 H204       -1.0695  -27.4709  -47.2709 H         1 UNK         0.0600 
    205 H205       -3.2706  -24.6522  -48.2411 H         1 UNK         0.3000 
    206 H206       -4.3443  -24.2312  -50.0847 H         1 UNK         0.0600 
    207 H207       -6.3807  -25.0582  -48.9331 H         1 UNK         0.0600 
    208 H208       -6.4573  -25.3717  -50.6606 H         1 UNK         0.0600 
    209 H209       -6.0964  -26.6855  -49.5510 H         1 UNK         0.0600 
    210 H210       -3.3358  -27.6313  -49.9437 H         1 UNK         0.3000 
    211 H211       -3.1076  -28.0853  -52.7621 H         1 UNK         0.0600 
    212 H212       -1.6211  -29.3692  -50.4044 H         1 UNK         0.0600 
    213 H213       -1.6862  -30.0142  -52.0409 H         1 UNK         0.0600 
    214 H214       -3.1547  -29.9157  -51.0817 H         1 UNK         0.0600 
    215 H215       -1.0656  -26.3910  -50.4923 H         1 UNK         0.3000 
    216 H216        1.3165  -26.2750  -52.1834 H         1 UNK         0.0600 
    217 H217        2.1346  -24.8003  -50.3377 H         1 UNK         0.0600 
    218 H218        1.4755  -26.2958  -49.6932 H         1 UNK         0.0600 
    219 H219        0.5366  -24.8046  -49.6040 H         1 UNK         0.0600 
    220 H220       -1.6888  -24.5871  -52.1179 H         1 UNK         0.3000 
    221 H221       -0.7083  -21.9212  -52.6131 H         1 UNK         0.0600 
    222 H222       -3.5352  -23.0704  -52.9369 H         1 UNK         0.0600 
    223 H223       -2.8760  -22.4577  -51.4150 H         1 UNK         0.0600 
    224 H224       -3.1002  -21.3873  -52.7933 H         1 UNK         0.0600 
    225 H225       -1.3135  -20.6266  -54.4408 H         1 UNK         0.3000 
    226 H226       -0.9712  -21.8534  -57.0823 H         1 UNK         0.0600 
    227 H227       -1.0277  -19.4659  -57.8187 H         1 UNK         0.0600 
    228 H228       -1.4603  -18.9490  -56.1933 H         1 UNK         0.0600 
    229 H229        0.1201  -19.6657  -56.5065 H         1 UNK         0.0600 
    230 H230       -2.5360  -21.3774  -58.8008 H         1 UNK         0.3000 
    231 H231       -5.1699  -22.1786  -58.2509 H         1 UNK         0.0600 
    232 H232       -5.5467  -21.6435  -60.6670 H         1 UNK         0.0600 
    233 H233       -4.0431  -22.5190  -60.4326 H         1 UNK         0.0600 
    234 H234       -4.0153  -20.7789  -60.7234 H         1 UNK         0.0600 
    235 H235       -3.8188  -18.9696  -58.2185 H         1 UNK         0.3000 
    236 H236       -6.1176  -17.3552  -58.5255 H         1 UNK         0.0600 
    237 H237       -3.5525  -16.8878  -56.9082 H         1 UNK         0.0600 
    238 H238       -3.7923  -16.4873  -58.6100 H         1 UNK         0.0600 
    239 H239       -4.7034  -15.6398  -57.3710 H         1 UNK         0.0600 
    240 H240       -5.1273  -19.3591  -55.8050 H         1 UNK         0.3000 
    241 H241       -6.9235  -18.0839  -53.8835 H         1 UNK         0.0600 
    242 H242       -9.1082  -20.7792  -55.9140 H         1 UNK         0.3800 
    243 H243       -7.6349  -20.1250  -56.5807 H         1 UNK         0.3800 
    244 H244       -5.3701  -20.7066  -53.6886 H         1 UNK         0.0800 
    245 H245       -6.3005  -19.9884  -52.3983 H         1 UNK         0.0800 
    246 H246       -4.9950  -18.7888  -50.4928 H         1 UNK         0.0800 
    247 H247       -4.1883  -20.2800  -50.9131 H         1 UNK         0.0800 
@<TRIPOS>BOND
     1    1    2 1    
     2    1  127 1    
     3    1  128 1    
     4    1  129 1    
     5    2    3 2    
     6    2    4 am   BACKBONE|DICT|INTERRES
     7    4    5 1    
     8    4  130 1    
     9    5    6 1    
    10    5   65 1    
    11    5  131 1    
    12    6    7 1    
    13    6  132 1    
    14    6  133 1    
    15    7    8 1    
    16    8    9 1    
    17    8  134 1    
    18    8  135 1    
    19    9   10 ar   
    20    9   14 ar   
    21   10   11 ar   
    22   10  136 1    
    23   11   12 ar   
    24   11  126 1    
    25   12   13 ar   
    26   12  137 1    
    27   13   14 ar   
    28   13   15 1    
    29   14  138 1    
    30   15   16 1    
    31   15  139 1    
    32   15  140 1    
    33   16   17 1    
    34   17   18 1    
    35   17  141 1    
    36   17  142 1    
    37   18   19 1    
    38   18   67 1    
    39   18  143 1    
    40   19   20 am   BACKBONE|DICT|INTERRES
    41   19  144 1    
    42   20   21 2    
    43   20   22 1    
    44   22   23 1    
    45   22   24 1    
    46   22  145 1    
    47   23  146 1    
    48   23  147 1    
    49   23  148 1    
    50   24   25 am   BACKBONE|DICT|INTERRES
    51   24  149 1    
    52   25   26 2    
    53   25   27 1    
    54   27   28 1    
    55   27   29 1    
    56   27  150 1    
    57   28  151 1    
    58   28  152 1    
    59   28  153 1    
    60   29   30 am   BACKBONE|DICT|INTERRES
    61   29  154 1    
    62   30   31 2    
    63   30   32 1    
    64   32   33 1    
    65   32   34 1    
    66   32  155 1    
    67   33  156 1    
    68   33  157 1    
    69   33  158 1    
    70   34   35 am   BACKBONE|DICT|INTERRES
    71   34  159 1    
    72   35   36 2    
    73   35   37 1    
    74   37   38 1    
    75   37   39 1    
    76   37  160 1    
    77   38  161 1    
    78   38  162 1    
    79   38  163 1    
    80   39   40 am   BACKBONE|DICT|INTERRES
    81   39  164 1    
    82   40   41 2    
    83   40   42 1    
    84   42   43 1    
    85   42   44 1    
    86   42  165 1    
    87   43  166 1    
    88   43  167 1    
    89   43  168 1    
    90   44   45 am   BACKBONE|DICT|INTERRES
    91   44  169 1    
    92   45   46 2    
    93   45   47 1    
    94   47   48 1    
    95   47   49 1    
    96   47  170 1    
    97   48  171 1    
    98   48  172 1    
    99   48  173 1    
   100   49   50 am   BACKBONE|DICT|INTERRES
   101   49  174 1    
   102   50   51 2    
   103   50   52 1    
   104   52   53 1    
   105   52   54 1    
   106   52  175 1    
   107   53  176 1    
   108   53  177 1    
   109   53  178 1    
   110   54   55 am   BACKBONE|DICT|INTERRES
   111   54  179 1    
   112   55   56 2    
   113   55   57 1    
   114   57   58 1    
   115   57   59 1    
   116   57  180 1    
   117   58  181 1    
   118   58  182 1    
   119   58  183 1    
   120   59   60 am   BACKBONE|DICT|INTERRES
   121   59  184 1    
   122   60   61 2    
   123   60   62 1    
   124   62   63 1    
   125   62   64 1    
   126   62  185 1    
   127   63  186 1    
   128   63  187 1    
   129   63  188 1    
   130   64   65 am   BACKBONE|DICT|INTERRES
   131   64  189 1    
   132   65   66 2    
   133   67   68 2    
   134   67   69 am   BACKBONE|DICT|INTERRES
   135   69   70 1    
   136   69  190 1    
   137   70   71 1    
   138   70   72 1    
   139   70  191 1    
   140   71  192 1    
   141   71  193 1    
   142   71  194 1    
   143   72   73 2    
   144   72   74 am   BACKBONE|DICT|INTERRES
   145   74   75 1    
   146   74  195 1    
   147   75   76 1    
   148   75   77 1    
   149   75  196 1    
   150   76  197 1    
   151   76  198 1    
   152   76  199 1    
   153   77   78 2    
   154   77   79 am   BACKBONE|DICT|INTERRES
   155   79   80 1    
   156   79  200 1    
   157   80   81 1    
   158   80   82 1    
   159   80  201 1    
   160   81  202 1    
   161   81  203 1    
   162   81  204 1    
   163   82   83 2    
   164   82   84 am   BACKBONE|DICT|INTERRES
   165   84   85 1    
   166   84  205 1    
   167   85   86 1    
   168   85   87 1    
   169   85  206 1    
   170   86  207 1    
   171   86  208 1    
   172   86  209 1    
   173   87   88 2    
   174   87   89 am   BACKBONE|DICT|INTERRES
   175   89   90 1    
   176   89  210 1    
   177   90   91 1    
   178   90   92 1    
   179   90  211 1    
   180   91  212 1    
   181   91  213 1    
   182   91  214 1    
   183   92   93 2    
   184   92   94 am   BACKBONE|DICT|INTERRES
   185   94   95 1    
   186   94  215 1    
   187   95   96 1    
   188   95   97 1    
   189   95  216 1    
   190   96  217 1    
   191   96  218 1    
   192   96  219 1    
   193   97   98 2    
   194   97   99 am   BACKBONE|DICT|INTERRES
   195   99  100 1    
   196   99  220 1    
   197  100  101 1    
   198  100  102 1    
   199  100  221 1    
   200  101  222 1    
   201  101  223 1    
   202  101  224 1    
   203  102  103 2    
   204  102  104 am   BACKBONE|DICT|INTERRES
   205  104  105 1    
   206  104  225 1    
   207  105  106 1    
   208  105  107 1    
   209  105  226 1    
   210  106  227 1    
   211  106  228 1    
   212  106  229 1    
   213  107  108 2    
   214  107  109 am   BACKBONE|DICT|INTERRES
   215  109  110 1    
   216  109  230 1    
   217  110  111 1    
   218  110  112 1    
   219  110  231 1    
   220  111  232 1    
   221  111  233 1    
   222  111  234 1    
   223  112  113 2    
   224  112  114 am   BACKBONE|DICT|INTERRES
   225  114  115 1    
   226  114  235 1    
   227  115  116 1    
   228  115  117 1    
   229  115  236 1    
   230  116  237 1    
   231  116  238 1    
   232  116  239 1    
   233  117  118 2    
   234  117  119 am   BACKBONE|DICT|INTERRES
   235  119  120 1    
   236  119  240 1    
   237  120  121 1    
   238  120  124 1    
   239  120  241 1    
   240  121  122 am   BACKBONE|DICT|INTERRES
   241  121  123 2    
   242  122  242 1    
   243  122  243 1    
   244  124  125 1    
   245  124  244 1    
   246  124  245 1    
   247  125  126 1    
   248  126  246 1    
   249  126  247 1    
@<TRIPOS>SUBSTRUCTURE
     1 UNK         1 GROUP             0       ****    0 ROOT    
