@<TRIPOS>MOLECULE
3R540
247   249    1
SMALL
USER_CHARGES


@<TRIPOS>ATOM
      1 CA          0.2576  -10.5484  -45.5318 C.3       0 UNK        -0.1800 
      2 C           0.3738  -10.6953  -47.0426 C.2       0 UNK         0.5000 
      3 O           0.8310   -9.7679  -47.7106 O.2       0 UNK        -0.5000 
      4 N          -0.0564  -11.8439  -47.5828 N.am      1 UNK        -0.5000 
      5 CA         -0.0578  -12.1505  -49.0180 C.3       1 UNK         0.1400 
      6 C6         -0.9519  -13.3771  -49.3290 C.3       23 UNK        -0.0398 
      7 S7         -1.4218  -13.4825  -51.0868 S.3       23 UNK        -0.2404 
      8 C8         -0.3809  -14.8700  -51.6577 C.3       23 UNK        -0.0205 
      9 C9         -0.7845  -16.2375  -51.1093 C.ar      23 UNK        -0.0193 
     10 C10        -2.1293  -16.5875  -50.9457 C.ar      23 UNK        -0.1150 
     11 C11        -2.4884  -17.8774  -50.5456 C.ar      23 UNK        -0.0193 
     12 C12        -1.4912  -18.8165  -50.2735 C.ar      23 UNK        -0.1150 
     13 C13        -0.1429  -18.4833  -50.4291 C.ar      23 UNK        -0.0193 
     14 C14         0.2026  -17.1931  -50.8449 C.ar      23 UNK        -0.1150 
     15 C15         0.9340  -19.5405  -50.2273 C.3       23 UNK        -0.0205 
     16 S16         2.0093  -19.2116  -48.7939 S.3       23 UNK        -0.2404 
     17 C17         0.8647  -19.3958  -47.3880 C.3       23 UNK        -0.0398 
     18 CA          0.5514  -20.8801  -47.0379 C.3       11 UNK         0.1400 
     19 N           0.8244  -21.1996  -45.6304 N.am      11 UNK        -0.5000 
     20 C           0.7453  -22.4254  -45.0900 C.2       10 UNK         0.5000 
     21 O           0.4981  -23.4409  -45.7376 O.2       10 UNK        -0.5000 
     22 CA          0.9170  -22.5370  -43.5635 C.3       10 UNK         0.1400 
     23 CB          2.4029  -22.6081  -43.1836 C.3       10 UNK        -0.1800 
     24 N           0.2648  -21.4453  -42.8386 N.am      10 UNK        -0.5000 
     25 C          -1.0573  -21.2186  -42.8387 C.2       9 UNK         0.5000 
     26 O          -1.8732  -21.9499  -43.3971 O.2       9 UNK        -0.5000 
     27 CA         -1.5470  -19.9250  -42.1616 C.3       9 UNK         0.1400 
     28 CB         -1.6681  -20.1054  -40.6417 C.3       9 UNK        -0.1800 
     29 N          -0.6865  -18.7798  -42.4604 N.am      9 UNK        -0.5000 
     30 C          -0.4781  -18.2903  -43.6916 C.2       8 UNK         0.5000 
     31 O          -1.0376  -18.7119  -44.7047 O.2       8 UNK        -0.5000 
     32 CA          0.5822  -17.1852  -43.8169 C.3       8 UNK         0.1400 
     33 CB         -0.0158  -15.8179  -43.4578 C.3       8 UNK        -0.1800 
     34 N           1.7611  -17.4713  -42.9924 N.am      8 UNK        -0.5000 
     35 C           2.6252  -18.4655  -43.2517 C.2       7 UNK         0.5000 
     36 O           2.5624  -19.1680  -44.2596 O.2       7 UNK        -0.5000 
     37 CA          3.6992  -18.7716  -42.1906 C.3       7 UNK         0.1400 
     38 CB          4.9912  -17.9795  -42.4328 C.3       7 UNK        -0.1800 
     39 N           3.2185  -18.5310  -40.8312 N.am      7 UNK        -0.5000 
     40 C           2.3577  -19.3410  -40.1994 C.2       6 UNK         0.5000 
     41 O           1.9158  -20.3766  -40.6950 O.2       6 UNK        -0.5000 
     42 CA          1.8783  -18.9137  -38.7998 C.3       6 UNK         0.1400 
     43 CB          2.7837  -19.5160  -37.7155 C.3       6 UNK        -0.1800 
     44 N           1.8099  -17.4632  -38.6183 N.am      6 UNK        -0.5000 
     45 C           1.0270  -16.6333  -39.3205 C.2       5 UNK         0.5000 
     46 O           0.2710  -17.0138  -40.2169 O.2       5 UNK        -0.5000 
     47 CA          1.1101  -15.1269  -38.9869 C.3       5 UNK         0.1400 
     48 CB          2.0957  -14.7864  -37.8457 C.3       5 UNK        -0.1800 
     49 N           1.4107  -14.3004  -40.1615 N.am      5 UNK        -0.5000 
     50 C           2.4473  -14.4335  -41.0004 C.2       4 UNK         0.5000 
     51 O           3.2790  -15.3428  -40.9378 O.2       4 UNK        -0.5000 
     52 CA          2.5802  -13.3506  -42.0810 C.3       4 UNK         0.1400 
     53 CB          3.2342  -12.0828  -41.5075 C.3       4 UNK        -0.1800 
     54 N           3.3965  -13.8496  -43.1863 N.am      4 UNK        -0.5000 
     55 C           3.1138  -13.6727  -44.4801 C.2       3 UNK         0.5000 
     56 O           2.1298  -13.0457  -44.8845 O.2       3 UNK        -0.5000 
     57 CA          4.0687  -14.3129  -45.5011 C.3       3 UNK         0.1400 
     58 CB          3.9958  -15.8500  -45.4418 C.3       3 UNK        -0.1800 
     59 N           3.6576  -13.8465  -46.8179 N.am      3 UNK        -0.5000 
     60 C           4.2834  -14.0164  -47.9871 C.2       2 UNK         0.5000 
     61 O           5.3918  -14.5423  -48.0957 O.2       2 UNK        -0.5000 
     62 CA          3.5332  -13.5337  -49.2449 C.3       2 UNK         0.1400 
     63 CB          3.6030  -14.5627  -50.3898 C.3       2 UNK        -0.1800 
     64 N           2.1316  -13.2340  -48.9393 N.am      2 UNK        -0.5000 
     65 C           1.3775  -12.3212  -49.5609 C.2       1 UNK         0.5000 
     66 O           1.7722  -11.6240  -50.4968 O.2       1 UNK        -0.5000 
     67 C          -0.8972  -21.2444  -47.4248 C.2       11 UNK         0.5000 
     68 O          -1.1144  -21.9347  -48.4219 O.2       11 UNK        -0.5000 
     69 N          -1.8574  -20.8038  -46.5999 N.am      12 UNK        -0.5000 
     70 CA         -3.2813  -21.0968  -46.7541 C.3       12 UNK         0.1400 
     71 CB         -4.0869  -20.2793  -45.7343 C.3       12 UNK        -0.1800 
     72 C          -3.5985  -22.5987  -46.6359 C.2       12 UNK         0.5000 
     73 O          -4.3928  -23.1087  -47.4240 O.2       12 UNK        -0.5000 
     74 N          -2.9495  -23.2897  -45.6887 N.am      13 UNK        -0.5000 
     75 CA         -3.0563  -24.7369  -45.4968 C.3       13 UNK         0.1400 
     76 CB         -2.3798  -25.1353  -44.1769 C.3       13 UNK        -0.1800 
     77 C          -2.4749  -25.5453  -46.6717 C.2       13 UNK         0.5000 
     78 O          -3.0580  -26.5627  -47.0461 O.2       13 UNK        -0.5000 
     79 N          -1.3567  -25.0740  -47.2427 N.am      14 UNK        -0.5000 
     80 CA         -0.7151  -25.6576  -48.4217 C.3       14 UNK         0.1400 
     81 CB          0.6801  -25.0434  -48.6142 C.3       14 UNK        -0.1800 
     82 C          -1.5648  -25.4989  -49.6951 C.2       14 UNK         0.5000 
     83 O          -1.6534  -26.4417  -50.4829 O.2       14 UNK        -0.5000 
     84 N          -2.1919  -24.3255  -49.8622 N.am      15 UNK        -0.5000 
     85 CA         -3.1560  -24.0546  -50.9307 C.3       15 UNK         0.1400 
     86 CB         -3.4141  -22.5436  -51.0101 C.3       15 UNK        -0.1800 
     87 C          -4.4743  -24.8338  -50.7433 C.2       15 UNK         0.5000 
     88 O          -5.0562  -25.2876  -51.7281 O.2       15 UNK        -0.5000 
     89 N          -4.9005  -24.9799  -49.4792 N.am      16 UNK        -0.5000 
     90 CA         -6.0549  -25.7280  -48.9613 C.3       16 UNK         0.1400 
     91 CB         -5.9762  -27.2152  -49.3606 C.3       16 UNK        -0.1800 
     92 C          -7.4322  -25.1131  -49.2904 C.2       16 UNK         0.5000 
     93 O          -8.4536  -25.6553  -48.8655 O.2       16 UNK        -0.5000 
     94 N          -7.4394  -23.9895  -50.0100 N.am      17 UNK        -0.5000 
     95 CA         -8.5745  -23.2198  -50.5046 C.3       17 UNK         0.1400 
     96 CB         -9.4214  -24.0652  -51.4819 C.3       17 UNK        -0.1800 
     97 C          -7.9908  -21.9876  -51.2165 C.2       17 UNK         0.5000 
     98 O          -6.7659  -21.8479  -51.2904 O.2       17 UNK        -0.5000 
     99 N          -8.8567  -21.1436  -51.7918 N.am      18 UNK        -0.5000 
    100 CA        -8.4858  -20.0466  -52.6945 C.3       18 UNK         0.1400 
    101 CB        -9.6343  -19.0226  -52.7314 C.3       18 UNK        -0.1800 
    102 C         -8.1102  -20.5778  -54.0988 C.2       18 UNK         0.5000 
    103 O         -8.7322  -20.2129  -55.0986 O.2       18 UNK        -0.5000 
    104 N         -7.1264  -21.4814  -54.1282 N.am      19 UNK        -0.5000 
    105 CA        -6.6058  -22.1686  -55.3044 C.3       19 UNK         0.1400 
    106 CB        -5.8952  -23.4452  -54.8191 C.3       19 UNK        -0.1800 
    107 C         -5.6398  -21.2798  -56.1077 C.2       19 UNK         0.5000 
    108 O         -5.2777  -20.1880  -55.6638 O.2       19 UNK        -0.5000 
    109 N         -5.1767  -21.7976  -57.2547 N.am      20 UNK        -0.5000 
    110 CA        -4.1634  -21.1736  -58.1168 C.3       20 UNK         0.1400 
    111 CB        -3.9532  -22.0493  -59.3611 C.3       20 UNK        -0.1800 
    112 C         -2.8172  -20.9093  -57.4082 C.2       20 UNK         0.5000 
    113 O         -2.1055  -19.9766  -57.7830 O.2       20 UNK        -0.5000 
    114 N         -2.5276  -21.6909  -56.3566 N.am      21 UNK        -0.5000 
    115 CA        -1.4147  -21.5035  -55.4225 C.3       21 UNK         0.1400 
    116 CB        -1.4340  -22.6490  -54.3976 C.3       21 UNK        -0.1800 
    117 C         -1.4264  -20.1404  -54.6977 C.2       21 UNK         0.5000 
    118 O         -0.3592  -19.6590  -54.3163 O.2       21 UNK        -0.5000 
    119 N         -2.6137  -19.5373  -54.5466 N.am      22 UNK        -0.5000 
    120 CA        -2.8015  -18.1814  -54.0113 C.3       22 UNK         0.1400 
    121 C         -2.5641  -17.0496  -55.0557 C.2       22 UNK         0.5000 
    122 N         -2.2822  -17.3409  -56.3213 N.am      22 UNK        -0.7600 
    123 O         -2.6258  -15.8734  -54.7098 O.2       22 UNK        -0.5000 
    124 C124       -4.1771  -18.0137  -53.3070 C.3       23 UNK        -0.0398 
    125 S125       -4.4565  -19.2175  -51.9602 S.3       23 UNK        -0.2404 
    126 C126       -3.9542  -18.2767  -50.4808 C.3       23 UNK        -0.0205 
    127 H127       -0.1739  -11.4367  -45.0698 H         1 UNK         0.0600 
    128 H128       -0.3740   -9.6954  -45.2841 H         1 UNK         0.0600 
    129 H129        1.2423  -10.3836  -45.0942 H         1 UNK         0.0600 
    130 H130       -0.4181  -12.5626  -46.9723 H         1 UNK         0.3000 
    131 H131       -0.4949  -11.2858  -49.5228 H         1 UNK         0.0600 
    132 H132       -0.4902  -14.3093  -48.9994 H         1 UNK         0.0800 
    133 H133       -1.8848  -13.2996  -48.7688 H         1 UNK         0.0800 
    134 H134        0.6597  -14.6528  -51.4148 H         1 UNK         0.0800 
    135 H135       -0.4388  -14.9148  -52.7461 H         1 UNK         0.0800 
    136 H136       -2.9033  -15.8715  -51.1818 H         1 UNK         0.1150 
    137 H137       -1.7715  -19.8205  -49.9881 H         1 UNK         0.1150 
    138 H138        1.2445  -16.9463  -50.9927 H         1 UNK         0.1150 
    139 H139        0.4928  -20.5333  -50.1302 H         1 UNK         0.0800 
    140 H140        1.5543  -19.5786  -51.1239 H         1 UNK         0.0800 
    141 H141       -0.0318  -18.8009  -47.5749 H         1 UNK         0.0800 
    142 H142        1.3475  -18.9008  -46.5465 H         1 UNK         0.0800 
    143 H143        1.2053  -21.5305  -47.6228 H         1 UNK         0.0600 
    144 H144        1.0910  -20.4256  -45.0329 H         1 UNK         0.3000 
    145 H145        0.4465  -23.4690  -43.2446 H         1 UNK         0.0600 
    146 H146        2.5305  -22.7371  -42.1088 H         1 UNK         0.0600 
    147 H147        2.8884  -23.4537  -43.6724 H         1 UNK         0.0600 
    148 H148        2.9399  -21.7080  -43.4803 H         1 UNK         0.0600 
    149 H149        0.8653  -20.8423  -42.2852 H         1 UNK         0.3000 
    150 H150       -2.5405  -19.7004  -42.5552 H         1 UNK         0.0600 
    151 H151       -2.3748  -20.9005  -40.4013 H         1 UNK         0.0600 
    152 H152       -2.0263  -19.1941  -40.1623 H         1 UNK         0.0600 
    153 H153       -0.7140  -20.3702  -40.1878 H         1 UNK         0.0600 
    154 H154       -0.2184  -18.3366  -41.6765 H         1 UNK         0.3000 
    155 H155        0.8952  -17.1453  -44.8618 H         1 UNK         0.0600 
    156 H156       -0.9004  -15.6109  -44.0613 H         1 UNK         0.0600 
    157 H157        0.6932  -15.0176  -43.6506 H         1 UNK         0.0600 
    158 H158       -0.3151  -15.7597  -42.4121 H         1 UNK         0.0600 
    159 H159        1.8520  -16.9656  -42.1217 H         1 UNK         0.3000 
    160 H160        3.9498  -19.8305  -42.2813 H         1 UNK         0.0600 
    161 H161        4.8438  -16.9081  -42.3060 H         1 UNK         0.0600 
    162 H162        5.3685  -18.1476  -43.4423 H         1 UNK         0.0600 
    163 H163        5.7742  -18.2893  -41.7407 H         1 UNK         0.0600 
    164 H164        3.4993  -17.6644  -40.3908 H         1 UNK         0.3000 
    165 H165        0.8712  -19.3116  -38.6617 H         1 UNK         0.0600 
    166 H166        2.4050  -19.2956  -36.7173 H         1 UNK         0.0600 
    167 H167        2.8357  -20.6017  -37.8092 H         1 UNK         0.0600 
    168 H168        3.8022  -19.1315  -37.7821 H         1 UNK         0.0600 
    169 H169        2.4133  -17.0685  -37.9116 H         1 UNK         0.3000 
    170 H170        0.1111  -14.8405  -38.6555 H         1 UNK         0.0600 
    171 H171        1.8345  -15.3080  -36.9240 H         1 UNK         0.0600 
    172 H172        3.1245  -15.0444  -38.1008 H         1 UNK         0.0600 
    173 H173        2.0734  -13.7199  -37.6208 H         1 UNK         0.0600 
    174 H174        0.7649  -13.5401  -40.3214 H         1 UNK         0.3000 
    175 H175        1.5750  -13.1032  -42.4286 H         1 UNK         0.0600 
    176 H176        4.2394  -12.2832  -41.1346 H         1 UNK         0.0600 
    177 H177        3.3077  -11.3024  -42.2652 H         1 UNK         0.0600 
    178 H178        2.6508  -11.6770  -40.6801 H         1 UNK         0.0600 
    179 H179        4.1741  -14.4335  -42.9088 H         1 UNK         0.3000 
    180 H180        5.0851  -13.9721  -45.2956 H         1 UNK         0.0600 
    181 H181        4.2489  -16.2111  -44.4487 H         1 UNK         0.0600 
    182 H182        4.6956  -16.3147  -46.1359 H         1 UNK         0.0600 
    183 H183        2.9970  -16.2152  -45.6818 H         1 UNK         0.0600 
    184 H184        2.8008  -13.3079  -46.7786 H         1 UNK         0.3000 
    185 H185        4.0342  -12.6183  -49.5662 H         1 UNK         0.0600 
    186 H186        4.6361  -14.7898  -50.6550 H         1 UNK         0.0600 
    187 H187        3.1200  -15.5003  -50.1126 H         1 UNK         0.0600 
    188 H188        3.1175  -14.1869  -51.2903 H         1 UNK         0.0600 
    189 H189        1.7234  -13.7741  -48.1905 H         1 UNK         0.3000 
    190 H190       -1.5930  -20.2179  -45.8125 H         1 UNK         0.3000 
    191 H191       -3.5770  -20.7759  -47.7552 H         1 UNK         0.0600 
    192 H192       -3.8236  -20.5403  -44.7092 H         1 UNK         0.0600 
    193 H193       -5.1570  -20.4526  -45.8537 H         1 UNK         0.0600 
    194 H194       -3.9129  -19.2106  -45.8615 H         1 UNK         0.0600 
    195 H195       -2.3631  -22.7846  -45.0294 H         1 UNK         0.3000 
    196 H196       -4.1172  -24.9839  -45.4196 H         1 UNK         0.0600 
    197 H197       -2.4780  -26.2062  -43.9954 H         1 UNK         0.0600 
    198 H198       -2.8321  -24.6189  -43.3300 H         1 UNK         0.0600 
    199 H199       -1.3158  -24.8998  -44.1838 H         1 UNK         0.0600 
    200 H200       -0.8961  -24.2689  -46.8285 H         1 UNK         0.3000 
    201 H201       -0.5890  -26.7268  -48.2391 H         1 UNK         0.0600 
    202 H202        1.3151  -25.2310  -47.7483 H         1 UNK         0.0600 
    203 H203        0.6306  -23.9648  -48.7642 H         1 UNK         0.0600 
    204 H204        1.1799  -25.4734  -49.4829 H         1 UNK         0.0600 
    205 H205       -2.0109  -23.5760  -49.2015 H         1 UNK         0.3000 
    206 H206       -2.7134  -24.3719  -51.8771 H         1 UNK         0.0600 
    207 H207       -2.4911  -21.9922  -51.1906 H         1 UNK         0.0600 
    208 H208       -4.0959  -22.3094  -51.8283 H         1 UNK         0.0600 
    209 H209       -3.8593  -22.1582  -50.0920 H         1 UNK         0.0600 
    210 H210       -4.3982  -24.4621  -48.7631 H         1 UNK         0.3000 
    211 H211       -5.9621  -25.6788  -47.8755 H         1 UNK         0.0600 
    212 H212       -6.1273  -27.3578  -50.4307 H         1 UNK         0.0600 
    213 H213       -6.7389  -27.7992  -48.8445 H         1 UNK         0.0600 
    214 H214       -5.0082  -27.6419  -49.0966 H         1 UNK         0.0600 
    215 H215       -6.5503  -23.5925  -50.2926 H         1 UNK         0.3000 
    216 H216       -9.1813  -22.8888  -49.6603 H         1 UNK         0.0600 
    217 H217      -10.2661  -23.4979  -51.8733 H         1 UNK         0.0600 
    218 H218       -9.8385  -24.9477  -50.9980 H         1 UNK         0.0600 
    219 H219       -8.8286  -24.4018  -52.3337 H         1 UNK         0.0600 
    220 H220       -9.8450  -21.3345  -51.7130 H         1 UNK         0.3000 
    221 H221       -7.6045  -19.5403  -52.2945 H         1 UNK         0.0600 
    222 H222      -10.5543  -19.4615  -53.1191 H         1 UNK         0.0600 
    223 H223       -9.8431  -18.6296  -51.7362 H         1 UNK         0.0600 
    224 H224       -9.3801  -18.1735  -53.3671 H         1 UNK         0.0600 
    225 H225       -6.6713  -21.6894  -53.2449 H         1 UNK         0.3000 
    226 H226       -7.4398  -22.4463  -55.9520 H         1 UNK         0.0600 
    227 H227       -5.5449  -24.0530  -55.6538 H         1 UNK         0.0600 
    228 H228       -5.0315  -23.2126  -54.1942 H         1 UNK         0.0600 
    229 H229       -6.5675  -24.0701  -54.2300 H         1 UNK         0.0600 
    230 H230       -5.5181  -22.7000  -57.5534 H         1 UNK         0.3000 
    231 H231       -4.5550  -20.2067  -58.4390 H         1 UNK         0.0600 
    232 H232       -3.2233  -21.6002  -60.0361 H         1 UNK         0.0600 
    233 H233       -4.8806  -22.1687  -59.9215 H         1 UNK         0.0600 
    234 H234       -3.5884  -23.0427  -59.0971 H         1 UNK         0.0600 
    235 H235       -3.1742  -22.4325  -56.1351 H         1 UNK         0.3000 
    236 H236       -0.4867  -21.5640  -55.9943 H         1 UNK         0.0600 
    237 H237       -1.3229  -23.6181  -54.8842 H         1 UNK         0.0600 
    238 H238       -0.6168  -22.5497  -53.6817 H         1 UNK         0.0600 
    239 H239       -2.3657  -22.6614  -53.8313 H         1 UNK         0.0600 
    240 H240       -3.4531  -19.9783  -54.9077 H         1 UNK         0.3000 
    241 H241       -2.0294  -18.0271  -53.2588 H         1 UNK         0.0600 
    242 H242       -2.2140  -18.2998  -56.6423 H         1 UNK         0.3800 
    243 H243       -2.1280  -16.5891  -56.9742 H         1 UNK         0.3800 
    244 H244       -4.2861  -17.0070  -52.9015 H         1 UNK         0.0800 
    245 H245       -4.9847  -18.1277  -54.0309 H         1 UNK         0.0800 
    246 H246       -4.1262  -18.8915  -49.5962 H         1 UNK         0.0800 
    247 H247       -4.5918  -17.3979  -50.3734 H         1 UNK         0.0800 
@<TRIPOS>BOND
     1    1    2 1    
     2    1  127 1    
     3    1  128 1    
     4    1  129 1    
     5    2    3 2    
     6    2    4 am   BACKBONE|DICT|INTERRES
     7    4    5 1    
     8    4  130 1    
     9    5    6 1    
    10    5   65 1    
    11    5  131 1    
    12    6    7 1    
    13    6  132 1    
    14    6  133 1    
    15    7    8 1    
    16    8    9 1    
    17    8  134 1    
    18    8  135 1    
    19    9   10 ar   
    20    9   14 ar   
    21   10   11 ar   
    22   10  136 1    
    23   11   12 ar   
    24   11  126 1    
    25   12   13 ar   
    26   12  137 1    
    27   13   14 ar   
    28   13   15 1    
    29   14  138 1    
    30   15   16 1    
    31   15  139 1    
    32   15  140 1    
    33   16   17 1    
    34   17   18 1    
    35   17  141 1    
    36   17  142 1    
    37   18   19 1    
    38   18   67 1    
    39   18  143 1    
    40   19   20 am   BACKBONE|DICT|INTERRES
    41   19  144 1    
    42   20   21 2    
    43   20   22 1    
    44   22   23 1    
    45   22   24 1    
    46   22  145 1    
    47   23  146 1    
    48   23  147 1    
    49   23  148 1    
    50   24   25 am   BACKBONE|DICT|INTERRES
    51   24  149 1    
    52   25   26 2    
    53   25   27 1    
    54   27   28 1    
    55   27   29 1    
    56   27  150 1    
    57   28  151 1    
    58   28  152 1    
    59   28  153 1    
    60   29   30 am   BACKBONE|DICT|INTERRES
    61   29  154 1    
    62   30   31 2    
    63   30   32 1    
    64   32   33 1    
    65   32   34 1    
    66   32  155 1    
    67   33  156 1    
    68   33  157 1    
    69   33  158 1    
    70   34   35 am   BACKBONE|DICT|INTERRES
    71   34  159 1    
    72   35   36 2    
    73   35   37 1    
    74   37   38 1    
    75   37   39 1    
    76   37  160 1    
    77   38  161 1    
    78   38  162 1    
    79   38  163 1    
    80   39   40 am   BACKBONE|DICT|INTERRES
    81   39  164 1    
    82   40   41 2    
    83   40   42 1    
    84   42   43 1    
    85   42   44 1    
    86   42  165 1    
    87   43  166 1    
    88   43  167 1    
    89   43  168 1    
    90   44   45 am   BACKBONE|DICT|INTERRES
    91   44  169 1    
    92   45   46 2    
    93   45   47 1    
    94   47   48 1    
    95   47   49 1    
    96   47  170 1    
    97   48  171 1    
    98   48  172 1    
    99   48  173 1    
   100   49   50 am   BACKBONE|DICT|INTERRES
   101   49  174 1    
   102   50   51 2    
   103   50   52 1    
   104   52   53 1    
   105   52   54 1    
   106   52  175 1    
   107   53  176 1    
   108   53  177 1    
   109   53  178 1    
   110   54   55 am   BACKBONE|DICT|INTERRES
   111   54  179 1    
   112   55   56 2    
   113   55   57 1    
   114   57   58 1    
   115   57   59 1    
   116   57  180 1    
   117   58  181 1    
   118   58  182 1    
   119   58  183 1    
   120   59   60 am   BACKBONE|DICT|INTERRES
   121   59  184 1    
   122   60   61 2    
   123   60   62 1    
   124   62   63 1    
   125   62   64 1    
   126   62  185 1    
   127   63  186 1    
   128   63  187 1    
   129   63  188 1    
   130   64   65 am   BACKBONE|DICT|INTERRES
   131   64  189 1    
   132   65   66 2    
   133   67   68 2    
   134   67   69 am   BACKBONE|DICT|INTERRES
   135   69   70 1    
   136   69  190 1    
   137   70   71 1    
   138   70   72 1    
   139   70  191 1    
   140   71  192 1    
   141   71  193 1    
   142   71  194 1    
   143   72   73 2    
   144   72   74 am   BACKBONE|DICT|INTERRES
   145   74   75 1    
   146   74  195 1    
   147   75   76 1    
   148   75   77 1    
   149   75  196 1    
   150   76  197 1    
   151   76  198 1    
   152   76  199 1    
   153   77   78 2    
   154   77   79 am   BACKBONE|DICT|INTERRES
   155   79   80 1    
   156   79  200 1    
   157   80   81 1    
   158   80   82 1    
   159   80  201 1    
   160   81  202 1    
   161   81  203 1    
   162   81  204 1    
   163   82   83 2    
   164   82   84 am   BACKBONE|DICT|INTERRES
   165   84   85 1    
   166   84  205 1    
   167   85   86 1    
   168   85   87 1    
   169   85  206 1    
   170   86  207 1    
   171   86  208 1    
   172   86  209 1    
   173   87   88 2    
   174   87   89 am   BACKBONE|DICT|INTERRES
   175   89   90 1    
   176   89  210 1    
   177   90   91 1    
   178   90   92 1    
   179   90  211 1    
   180   91  212 1    
   181   91  213 1    
   182   91  214 1    
   183   92   93 2    
   184   92   94 am   BACKBONE|DICT|INTERRES
   185   94   95 1    
   186   94  215 1    
   187   95   96 1    
   188   95   97 1    
   189   95  216 1    
   190   96  217 1    
   191   96  218 1    
   192   96  219 1    
   193   97   98 2    
   194   97   99 am   BACKBONE|DICT|INTERRES
   195   99  100 1    
   196   99  220 1    
   197  100  101 1    
   198  100  102 1    
   199  100  221 1    
   200  101  222 1    
   201  101  223 1    
   202  101  224 1    
   203  102  103 2    
   204  102  104 am   BACKBONE|DICT|INTERRES
   205  104  105 1    
   206  104  225 1    
   207  105  106 1    
   208  105  107 1    
   209  105  226 1    
   210  106  227 1    
   211  106  228 1    
   212  106  229 1    
   213  107  108 2    
   214  107  109 am   BACKBONE|DICT|INTERRES
   215  109  110 1    
   216  109  230 1    
   217  110  111 1    
   218  110  112 1    
   219  110  231 1    
   220  111  232 1    
   221  111  233 1    
   222  111  234 1    
   223  112  113 2    
   224  112  114 am   BACKBONE|DICT|INTERRES
   225  114  115 1    
   226  114  235 1    
   227  115  116 1    
   228  115  117 1    
   229  115  236 1    
   230  116  237 1    
   231  116  238 1    
   232  116  239 1    
   233  117  118 2    
   234  117  119 am   BACKBONE|DICT|INTERRES
   235  119  120 1    
   236  119  240 1    
   237  120  121 1    
   238  120  124 1    
   239  120  241 1    
   240  121  122 am   BACKBONE|DICT|INTERRES
   241  121  123 2    
   242  122  242 1    
   243  122  243 1    
   244  124  125 1    
   245  124  244 1    
   246  124  245 1    
   247  125  126 1    
   248  126  246 1    
   249  126  247 1    
@<TRIPOS>SUBSTRUCTURE
     1 UNK         1 GROUP             0       ****    0 ROOT    
