@<TRIPOS>MOLECULE
3R540
247   249    1
SMALL
USER_CHARGES


@<TRIPOS>ATOM
      1 CA          5.9923  -14.8462  -48.4350 C.3       0 UNK        -0.1800 
      2 C           4.4842  -14.9631  -48.5968 C.2       0 UNK         0.5000 
      3 O           3.7443  -14.6130  -47.6784 O.2       0 UNK        -0.5000 
      4 N           4.0305  -15.4336  -49.7679 N.am      1 UNK        -0.5000 
      5 CA          2.6288  -15.7055  -50.1313 C.3       1 UNK         0.1400 
      6 C6          2.5021  -16.2024  -51.5929 C.3       23 UNK        -0.0398 
      7 S7          3.5272  -17.6693  -51.9569 S.3       23 UNK        -0.2404 
      8 C8          2.2671  -18.9460  -52.2631 C.3       23 UNK        -0.0205 
      9 C9          1.7287  -19.5320  -50.9681 C.ar      23 UNK        -0.0193 
     10 C10         0.5926  -18.9903  -50.3598 C.ar      23 UNK        -0.1150 
     11 C11         0.0849  -19.5490  -49.1837 C.ar      23 UNK        -0.0193 
     12 C12         0.7267  -20.6526  -48.6132 C.ar      23 UNK        -0.1150 
     13 C13         1.8512  -21.2172  -49.2236 C.ar      23 UNK        -0.0193 
     14 C14         2.3517  -20.6448  -50.3957 C.ar      23 UNK        -0.1150 
     15 C15         2.5003  -22.4735  -48.6577 C.3       23 UNK        -0.0205 
     16 S16         3.9564  -22.1050  -47.6337 S.3       23 UNK        -0.2404 
     17 C17         3.1688  -21.5843  -46.0753 C.3       23 UNK        -0.0398 
     18 CA          3.3515  -22.5822  -44.9020 C.3       11 UNK         0.1400 
     19 N           3.2137  -21.8706  -43.6292 N.am      11 UNK        -0.5000 
     20 C           3.7232  -22.2536  -42.4525 C.2       10 UNK         0.5000 
     21 O           4.3099  -23.3214  -42.2765 O.2       10 UNK        -0.5000 
     22 CA          3.5586  -21.2697  -41.2812 C.3       10 UNK         0.1400 
     23 CB          4.6302  -20.1704  -41.3557 C.3       10 UNK        -0.1800 
     24 N           2.2362  -20.6412  -41.2882 N.am      10 UNK        -0.5000 
     25 C           1.2572  -20.9128  -40.4140 C.2       9 UNK         0.5000 
     26 O           1.3773  -21.7004  -39.4746 O.2       9 UNK        -0.5000 
     27 CA         -0.0945  -20.1939  -40.6178 C.3       9 UNK         0.1400 
     28 CB         -0.1473  -18.9101  -39.7754 C.3       9 UNK        -0.1800 
     29 N          -0.3967  -19.8570  -42.0103 N.am      9 UNK        -0.5000 
     30 C          -0.4891  -20.7348  -43.0175 C.2       8 UNK         0.5000 
     31 O          -0.3672  -21.9505  -42.8825 O.2       8 UNK        -0.5000 
     32 CA         -0.6921  -20.1611  -44.4296 C.3       8 UNK         0.1400 
     33 CB         -2.1882  -20.0650  -44.7499 C.3       8 UNK        -0.1800 
     34 N          -0.0565  -18.8600  -44.6488 N.am      8 UNK        -0.5000 
     35 C           1.2468  -18.5845  -44.4853 C.2       7 UNK         0.5000 
     36 O           2.0729  -19.3940  -44.0671 O.2       7 UNK        -0.5000 
     37 CA          1.6787  -17.1418  -44.7785 C.3       7 UNK         0.1400 
     38 CB          1.6327  -16.8577  -46.2920 C.3       7 UNK        -0.1800 
     39 N           0.8162  -16.2213  -44.0354 N.am      7 UNK        -0.5000 
     40 C           0.9252  -16.0121  -42.7124 C.2       6 UNK         0.5000 
     41 O           1.8695  -16.4225  -42.0376 O.2       6 UNK        -0.5000 
     42 CA         -0.2240  -15.2696  -42.0023 C.3       6 UNK         0.1400 
     43 CB          0.1635  -13.8291  -41.6367 C.3       6 UNK        -0.1800 
     44 N          -1.4607  -15.2634  -42.7831 N.am      6 UNK        -0.5000 
     45 C          -2.2993  -16.3065  -42.8609 C.2       5 UNK         0.5000 
     46 O          -2.1309  -17.3608  -42.2485 O.2       5 UNK        -0.5000 
     47 CA         -3.4939  -16.1710  -43.8256 C.3       5 UNK         0.1400 
     48 CB         -4.6960  -15.5364  -43.1119 C.3       5 UNK        -0.1800 
     49 N          -3.1786  -15.3941  -45.0266 N.am      5 UNK        -0.5000 
     50 C          -2.2506  -15.7366  -45.9297 C.2       4 UNK         0.5000 
     51 O          -1.5925  -16.7735  -45.8529 O.2       4 UNK        -0.5000 
     52 CA         -1.9757  -14.7565  -47.0849 C.3       4 UNK         0.1400 
     53 CB         -3.1144  -13.7415  -47.3255 C.3       4 UNK        -0.1800 
     54 N          -0.6986  -14.0537  -46.9377 N.am      4 UNK        -0.5000 
     55 C          -0.2943  -13.2855  -45.9123 C.2       3 UNK         0.5000 
     56 O          -0.9285  -13.1654  -44.8634 O.2       3 UNK        -0.5000 
     57 CA          1.0222  -12.4927  -46.0853 C.3       3 UNK         0.1400 
     58 CB          2.1286  -12.9972  -45.1456 C.3       3 UNK        -0.1800 
     59 N           1.5230  -12.4954  -47.4618 N.am      3 UNK        -0.5000 
     60 C           0.9898  -11.7721  -48.4588 C.2       2 UNK         0.5000 
     61 O           0.0812  -10.9574  -48.2934 O.2       2 UNK        -0.5000 
     62 CA          1.5332  -12.0037  -49.8841 C.3       2 UNK         0.1400 
     63 CB          2.4854  -10.8668  -50.2860 C.3       2 UNK        -0.1800 
     64 N           2.2227  -13.2818  -50.0721 N.am      2 UNK        -0.5000 
     65 C           1.6838  -14.5012  -49.9246 C.2       1 UNK         0.5000 
     66 O           0.5086  -14.6960  -49.6135 O.2       1 UNK        -0.5000 
     67 C           2.4110  -23.8078  -45.0153 C.2       11 UNK         0.5000 
     68 O           2.6528  -24.6720  -45.8572 O.2       11 UNK        -0.5000 
     69 N           1.3676  -23.8686  -44.1713 N.am      12 UNK        -0.5000 
     70 CA          0.3276  -24.9063  -44.0994 C.3       12 UNK         0.1400 
     71 CB          0.9309  -26.2910  -43.7806 C.3       12 UNK        -0.1800 
     72 C          -0.6155  -24.9158  -45.3234 C.2       12 UNK         0.5000 
     73 O          -1.1608  -25.9656  -45.6683 O.2       12 UNK        -0.5000 
     74 N          -0.8003  -23.7293  -45.9245 N.am      13 UNK        -0.5000 
     75 CA         -1.5635  -23.4102  -47.1393 C.3       13 UNK         0.1400 
     76 CB         -3.0421  -23.8235  -47.0100 C.3       13 UNK        -0.1800 
     77 C          -0.9321  -23.9788  -48.4269 C.2       13 UNK         0.5000 
     78 O          -0.2020  -24.9710  -48.3945 O.2       13 UNK        -0.5000 
     79 N          -1.2237  -23.3326  -49.5622 N.am      14 UNK        -0.5000 
     80 CA         -0.7108  -23.6766  -50.8937 C.3       14 UNK         0.1400 
     81 CB         -0.8112  -22.4314  -51.7947 C.3       14 UNK        -0.1800 
     82 C          -1.4158  -24.9081  -51.5093 C.2       14 UNK         0.5000 
     83 O          -1.9016  -24.8354  -52.6392 O.2       14 UNK        -0.5000 
     84 N          -1.4772  -26.0088  -50.7445 N.am      15 UNK        -0.5000 
     85 CA         -2.2120  -27.2493  -51.0138 C.3       15 UNK         0.1400 
     86 CB         -1.5598  -28.0292  -52.1779 C.3       15 UNK        -0.1800 
     87 C          -3.7148  -26.9535  -51.2020 C.2       15 UNK         0.5000 
     88 O          -4.3368  -26.4110  -50.2854 O.2       15 UNK        -0.5000 
     89 N          -4.2643  -27.2493  -52.3870 N.am      16 UNK        -0.5000 
     90 CA         -5.5792  -26.7926  -52.8404 C.3       16 UNK         0.1400 
     91 CB         -6.0729  -27.7296  -53.9574 C.3       16 UNK        -0.1800 
     92 C          -5.4878  -25.3186  -53.2908 C.2       16 UNK         0.5000 
     93 O          -5.5501  -25.0256  -54.4868 O.2       16 UNK        -0.5000 
     94 N          -5.2608  -24.4327  -52.3138 N.am      17 UNK        -0.5000 
     95 CA         -4.9582  -23.0154  -52.4908 C.3       17 UNK         0.1400 
     96 CB         -4.6132  -22.4169  -51.1181 C.3       17 UNK        -0.1800 
     97 C          -6.1055  -22.2251  -53.1426 C.2       17 UNK         0.5000 
     98 O          -7.2767  -22.4733  -52.8437 O.2       17 UNK        -0.5000 
     99 N          -5.7374  -21.2542  -53.9868 N.am      18 UNK        -0.5000 
    100 CA        -6.6491  -20.2648  -54.5573 C.3       18 UNK         0.1400 
    101 CB        -5.9390  -19.5436  -55.7130 C.3       18 UNK        -0.1800 
    102 C         -7.0756  -19.2480  -53.4867 C.2       18 UNK         0.5000 
    103 O         -6.2882  -18.9509  -52.5826 O.2       18 UNK        -0.5000 
    104 N         -8.2876  -18.6964  -53.6208 N.am      19 UNK        -0.5000 
    105 CA        -8.8676  -17.7179  -52.6915 C.3       19 UNK         0.1400 
    106 CB       -10.3268  -17.4509  -53.0905 C.3       19 UNK        -0.1800 
    107 C         -8.0813  -16.3937  -52.6035 C.2       19 UNK         0.5000 
    108 O         -8.1200  -15.7306  -51.5669 O.2       19 UNK        -0.5000 
    109 N         -7.3644  -16.0494  -53.6820 N.am      20 UNK        -0.5000 
    110 CA        -6.4595  -14.9023  -53.7557 C.3       20 UNK         0.1400 
    111 CB        -6.1508  -14.6129  -55.2330 C.3       20 UNK        -0.1800 
    112 C         -5.1512  -15.1046  -52.9633 C.2       20 UNK         0.5000 
    113 O         -4.5111  -14.1143  -52.6079 O.2       20 UNK        -0.5000 
    114 N         -4.7723  -16.3657  -52.7123 N.am      21 UNK        -0.5000 
    115 CA        -3.6003  -16.7413  -51.9286 C.3       21 UNK         0.1400 
    116 CB        -2.9248  -17.9743  -52.5603 C.3       21 UNK        -0.1800 
    117 C         -4.0157  -16.9935  -50.4729 C.2       21 UNK         0.5000 
    118 O         -3.6940  -16.1893  -49.6002 O.2       21 UNK        -0.5000 
    119 N         -4.7246  -18.1016  -50.2402 N.am      22 UNK        -0.5000 
    120 CA        -5.1196  -18.5866  -48.9088 C.3       22 UNK         0.1400 
    121 C         -6.2356  -19.6720  -48.9270 C.2       22 UNK         0.5000 
    122 N         -6.8552  -19.9874  -50.0570 N.am      22 UNK        -0.7600 
    123 O         -6.5785  -20.2232  -47.8849 O.2       22 UNK        -0.5000 
    124 C124       -3.9097  -18.9688  -48.0023 C.3       23 UNK        -0.0398 
    125 S125       -2.6279  -20.0032  -48.8047 S.3       23 UNK        -0.2404 
    126 C126       -1.1559  -18.9623  -48.5313 C.3       23 UNK        -0.0205 
    127 H127        6.2690  -13.8098  -48.2420 H         1 UNK         0.0600 
    128 H128        6.5236  -15.1809  -49.3263 H         1 UNK         0.0600 
    129 H129        6.3255  -15.4518  -47.5923 H         1 UNK         0.0600 
    130 H130        4.7034  -15.7053  -50.4709 H         1 UNK         0.3000 
    131 H131        2.2795  -16.5002  -49.4686 H         1 UNK         0.0600 
    132 H132        1.4603  -16.4217  -51.8320 H         1 UNK         0.0800 
    133 H133        2.8044  -15.4154  -52.2865 H         1 UNK         0.0800 
    134 H134        1.4555  -18.5416  -52.8699 H         1 UNK         0.0800 
    135 H135        2.7173  -19.7395  -52.8614 H         1 UNK         0.0800 
    136 H136        0.0990  -18.1387  -50.8049 H         1 UNK         0.1150 
    137 H137        0.3319  -21.0840  -47.7072 H         1 UNK         0.1150 
    138 H138        3.2211  -21.0763  -50.8717 H         1 UNK         0.1150 
    139 H139        1.7855  -23.0515  -48.0727 H         1 UNK         0.0800 
    140 H140        2.8061  -23.1228  -49.4793 H         1 UNK         0.0800 
    141 H141        3.6439  -20.6347  -45.8245 H         1 UNK         0.0800 
    142 H142        2.1164  -21.3473  -46.2264 H         1 UNK         0.0800 
    143 H143        4.3733  -22.9658  -44.9439 H         1 UNK         0.0600 
    144 H144        2.7741  -20.9540  -43.6928 H         1 UNK         0.3000 
    145 H145        3.7161  -21.8287  -40.3565 H         1 UNK         0.0600 
    146 H146        4.5670  -19.5029  -40.4961 H         1 UNK         0.0600 
    147 H147        4.5259  -19.5641  -42.2567 H         1 UNK         0.0600 
    148 H148        5.6327  -20.6001  -41.3610 H         1 UNK         0.0600 
    149 H149        2.0453  -19.9940  -42.0439 H         1 UNK         0.3000 
    150 H150       -0.8785  -20.8675  -40.2667 H         1 UNK         0.0600 
    151 H151        0.0473  -19.1229  -38.7235 H         1 UNK         0.0600 
    152 H152       -1.1287  -18.4389  -39.8342 H         1 UNK         0.0600 
    153 H153        0.5948  -18.1827  -40.1068 H         1 UNK         0.0600 
    154 H154       -0.5919  -18.8831  -42.2088 H         1 UNK         0.3000 
    155 H155       -0.2368  -20.8571  -45.1353 H         1 UNK         0.0600 
    156 H156       -2.6663  -21.0438  -44.6905 H         1 UNK         0.0600 
    157 H157       -2.3484  -19.6857  -45.7552 H         1 UNK         0.0600 
    158 H158       -2.7064  -19.4022  -44.0570 H         1 UNK         0.0600 
    159 H159       -0.6593  -18.1194  -45.0012 H         1 UNK         0.3000 
    160 H160        2.7091  -17.0074  -44.4425 H         1 UNK         0.0600 
    161 H161        0.7156  -17.2060  -46.7632 H         1 UNK         0.0600 
    162 H162        2.4564  -17.3611  -46.7992 H         1 UNK         0.0600 
    163 H163        1.7206  -15.7968  -46.5103 H         1 UNK         0.0600 
    164 H164       -0.0169  -15.9010  -44.5093 H         1 UNK         0.3000 
    165 H165       -0.4071  -15.8013  -41.0658 H         1 UNK         0.0600 
    166 H166       -0.5841  -13.3802  -40.9827 H         1 UNK         0.0600 
    167 H167        1.1166  -13.7990  -41.1070 H         1 UNK         0.0600 
    168 H168        0.2535  -13.1940  -42.5152 H         1 UNK         0.0600 
    169 H169       -1.6226  -14.4503  -43.3685 H         1 UNK         0.3000 
    170 H170       -3.7773  -17.1759  -44.1444 H         1 UNK         0.0600 
    171 H171       -4.9678  -16.1074  -42.2229 H         1 UNK         0.0600 
    172 H172       -4.4826  -14.5151  -42.7939 H         1 UNK         0.0600 
    173 H173       -5.5718  -15.5110  -43.7606 H         1 UNK         0.0600 
    174 H174       -3.6579  -14.5128  -45.1391 H         1 UNK         0.3000 
    175 H175       -1.8748  -15.3683  -47.9811 H         1 UNK         0.0600 
    176 H176       -3.2267  -13.0376  -46.5003 H         1 UNK         0.0600 
    177 H177       -2.9260  -13.1608  -48.2286 H         1 UNK         0.0600 
    178 H178       -4.0694  -14.2492  -47.4680 H         1 UNK         0.0600 
    179 H179       -0.0949  -14.1172  -47.7505 H         1 UNK         0.3000 
    180 H180        0.8044  -11.4600  -45.8049 H         1 UNK         0.0600 
    181 H181        1.8261  -12.9205  -44.1029 H         1 UNK         0.0600 
    182 H182        3.0368  -12.4049  -45.2578 H         1 UNK         0.0600 
    183 H183        2.3896  -14.0365  -45.3338 H         1 UNK         0.0600 
    184 H184        2.2714  -13.1497  -47.6690 H         1 UNK         0.3000 
    185 H185        0.6766  -11.9899  -50.5610 H         1 UNK         0.0600 
    186 H186        1.9981   -9.8954  -50.1912 H         1 UNK         0.0600 
    187 H187        3.3770  -10.8495  -49.6579 H         1 UNK         0.0600 
    188 H188        2.8056  -10.9671  -51.3232 H         1 UNK         0.0600 
    189 H189        3.2041  -13.2287  -50.3032 H         1 UNK         0.3000 
    190 H190        1.2317  -23.1008  -43.5229 H         1 UNK         0.3000 
    191 H191       -0.3009  -24.6343  -43.2505 H         1 UNK         0.0600 
    192 H192        0.1476  -27.0115  -43.5426 H         1 UNK         0.0600 
    193 H193        1.5976  -26.2422  -42.9197 H         1 UNK         0.0600 
    194 H194        1.4954  -26.6933  -44.6220 H         1 UNK         0.0600 
    195 H195       -0.2856  -22.9613  -45.5246 H         1 UNK         0.3000 
    196 H196       -1.5395  -22.3236  -47.2170 H         1 UNK         0.0600 
    197 H197       -3.4826  -23.4334  -46.0924 H         1 UNK         0.0600 
    198 H198       -3.6293  -23.4322  -47.8419 H         1 UNK         0.0600 
    199 H199       -3.1662  -24.9067  -47.0108 H         1 UNK         0.0600 
    200 H200       -1.8300  -22.5253  -49.5214 H         1 UNK         0.3000 
    201 H201        0.3477  -23.9283  -50.8014 H         1 UNK         0.0600 
    202 H202       -0.3634  -22.6166  -52.7717 H         1 UNK         0.0600 
    203 H203       -0.2858  -21.5850  -51.3577 H         1 UNK         0.0600 
    204 H204       -1.8447  -22.1281  -51.9585 H         1 UNK         0.0600 
    205 H205       -1.0542  -25.9386  -49.8229 H         1 UNK         0.3000 
    206 H206       -2.1299  -27.8621  -50.1152 H         1 UNK         0.0600 
    207 H207       -0.5141  -28.2459  -51.9593 H         1 UNK         0.0600 
    208 H208       -2.0565  -28.9871  -52.3369 H         1 UNK         0.0600 
    209 H209       -1.5891  -27.4768  -53.1177 H         1 UNK         0.0600 
    210 H210       -3.6670  -27.6487  -53.0963 H         1 UNK         0.3000 
    211 H211       -6.2916  -26.8502  -52.0147 H         1 UNK         0.0600 
    212 H212       -5.3922  -27.7391  -54.8096 H         1 UNK         0.0600 
    213 H213       -7.0528  -27.4186  -54.3217 H         1 UNK         0.0600 
    214 H214       -6.1711  -28.7535  -53.5965 H         1 UNK         0.0600 
    215 H215       -5.1875  -24.7927  -51.3701 H         1 UNK         0.3000 
    216 H216       -4.0758  -22.9489  -53.1306 H         1 UNK         0.0600 
    217 H217       -5.4636  -22.4617  -50.4369 H         1 UNK         0.0600 
    218 H218       -4.3171  -21.3707  -51.2070 H         1 UNK         0.0600 
    219 H219       -3.7897  -22.9522  -50.6486 H         1 UNK         0.0600 
    220 H220       -4.7543  -21.0974  -54.1517 H         1 UNK         0.3000 
    221 H221       -7.5337  -20.7762  -54.9426 H         1 UNK         0.0600 
    222 H222       -5.6274  -20.2479  -56.4846 H         1 UNK         0.0600 
    223 H223       -6.5996  -18.8167  -56.1874 H         1 UNK         0.0600 
    224 H224       -5.0525  -19.0071  -55.3710 H         1 UNK         0.0600 
    225 H225       -8.8733  -18.9808  -54.3930 H         1 UNK         0.3000 
    226 H226       -8.8625  -18.1635  -51.6944 H         1 UNK         0.0600 
    227 H227      -10.9166  -18.3675  -53.0671 H         1 UNK         0.0600 
    228 H228      -10.7975  -16.7463  -52.4035 H         1 UNK         0.0600 
    229 H229      -10.3989  -17.0292  -54.0938 H         1 UNK         0.0600 
    230 H230       -7.4071  -16.6470  -54.4939 H         1 UNK         0.3000 
    231 H231       -6.9687  -14.0323  -53.3356 H         1 UNK         0.0600 
    232 H232       -5.5001  -13.7431  -55.3333 H         1 UNK         0.0600 
    233 H233       -7.0620  -14.4011  -55.7928 H         1 UNK         0.0600 
    234 H234       -5.6491  -15.4549  -55.7118 H         1 UNK         0.0600 
    235 H235       -5.3952  -17.1217  -52.9679 H         1 UNK         0.3000 
    236 H236       -2.8676  -15.9313  -51.9284 H         1 UNK         0.0600 
    237 H237       -3.6122  -18.8115  -52.6806 H         1 UNK         0.0600 
    238 H238       -2.5230  -17.7352  -53.5448 H         1 UNK         0.0600 
    239 H239       -2.0934  -18.3214  -51.9457 H         1 UNK         0.0600 
    240 H240       -4.9971  -18.6805  -51.0242 H         1 UNK         0.3000 
    241 H241       -5.6132  -17.7423  -48.4241 H         1 UNK         0.0600 
    242 H242       -6.6358  -19.5405  -50.9421 H         1 UNK         0.3800 
    243 H243       -7.5779  -20.6879  -50.0269 H         1 UNK         0.3800 
    244 H244       -4.2441  -19.4764  -47.0969 H         1 UNK         0.0800 
    245 H245       -3.4428  -18.0517  -47.6431 H         1 UNK         0.0800 
    246 H246       -1.3461  -17.9572  -48.9117 H         1 UNK         0.0800 
    247 H247       -0.9792  -18.8564  -47.4618 H         1 UNK         0.0800 
@<TRIPOS>BOND
     1    1    2 1    
     2    1  127 1    
     3    1  128 1    
     4    1  129 1    
     5    2    3 2    
     6    2    4 am   BACKBONE|DICT|INTERRES
     7    4    5 1    
     8    4  130 1    
     9    5    6 1    
    10    5   65 1    
    11    5  131 1    
    12    6    7 1    
    13    6  132 1    
    14    6  133 1    
    15    7    8 1    
    16    8    9 1    
    17    8  134 1    
    18    8  135 1    
    19    9   10 ar   
    20    9   14 ar   
    21   10   11 ar   
    22   10  136 1    
    23   11   12 ar   
    24   11  126 1    
    25   12   13 ar   
    26   12  137 1    
    27   13   14 ar   
    28   13   15 1    
    29   14  138 1    
    30   15   16 1    
    31   15  139 1    
    32   15  140 1    
    33   16   17 1    
    34   17   18 1    
    35   17  141 1    
    36   17  142 1    
    37   18   19 1    
    38   18   67 1    
    39   18  143 1    
    40   19   20 am   BACKBONE|DICT|INTERRES
    41   19  144 1    
    42   20   21 2    
    43   20   22 1    
    44   22   23 1    
    45   22   24 1    
    46   22  145 1    
    47   23  146 1    
    48   23  147 1    
    49   23  148 1    
    50   24   25 am   BACKBONE|DICT|INTERRES
    51   24  149 1    
    52   25   26 2    
    53   25   27 1    
    54   27   28 1    
    55   27   29 1    
    56   27  150 1    
    57   28  151 1    
    58   28  152 1    
    59   28  153 1    
    60   29   30 am   BACKBONE|DICT|INTERRES
    61   29  154 1    
    62   30   31 2    
    63   30   32 1    
    64   32   33 1    
    65   32   34 1    
    66   32  155 1    
    67   33  156 1    
    68   33  157 1    
    69   33  158 1    
    70   34   35 am   BACKBONE|DICT|INTERRES
    71   34  159 1    
    72   35   36 2    
    73   35   37 1    
    74   37   38 1    
    75   37   39 1    
    76   37  160 1    
    77   38  161 1    
    78   38  162 1    
    79   38  163 1    
    80   39   40 am   BACKBONE|DICT|INTERRES
    81   39  164 1    
    82   40   41 2    
    83   40   42 1    
    84   42   43 1    
    85   42   44 1    
    86   42  165 1    
    87   43  166 1    
    88   43  167 1    
    89   43  168 1    
    90   44   45 am   BACKBONE|DICT|INTERRES
    91   44  169 1    
    92   45   46 2    
    93   45   47 1    
    94   47   48 1    
    95   47   49 1    
    96   47  170 1    
    97   48  171 1    
    98   48  172 1    
    99   48  173 1    
   100   49   50 am   BACKBONE|DICT|INTERRES
   101   49  174 1    
   102   50   51 2    
   103   50   52 1    
   104   52   53 1    
   105   52   54 1    
   106   52  175 1    
   107   53  176 1    
   108   53  177 1    
   109   53  178 1    
   110   54   55 am   BACKBONE|DICT|INTERRES
   111   54  179 1    
   112   55   56 2    
   113   55   57 1    
   114   57   58 1    
   115   57   59 1    
   116   57  180 1    
   117   58  181 1    
   118   58  182 1    
   119   58  183 1    
   120   59   60 am   BACKBONE|DICT|INTERRES
   121   59  184 1    
   122   60   61 2    
   123   60   62 1    
   124   62   63 1    
   125   62   64 1    
   126   62  185 1    
   127   63  186 1    
   128   63  187 1    
   129   63  188 1    
   130   64   65 am   BACKBONE|DICT|INTERRES
   131   64  189 1    
   132   65   66 2    
   133   67   68 2    
   134   67   69 am   BACKBONE|DICT|INTERRES
   135   69   70 1    
   136   69  190 1    
   137   70   71 1    
   138   70   72 1    
   139   70  191 1    
   140   71  192 1    
   141   71  193 1    
   142   71  194 1    
   143   72   73 2    
   144   72   74 am   BACKBONE|DICT|INTERRES
   145   74   75 1    
   146   74  195 1    
   147   75   76 1    
   148   75   77 1    
   149   75  196 1    
   150   76  197 1    
   151   76  198 1    
   152   76  199 1    
   153   77   78 2    
   154   77   79 am   BACKBONE|DICT|INTERRES
   155   79   80 1    
   156   79  200 1    
   157   80   81 1    
   158   80   82 1    
   159   80  201 1    
   160   81  202 1    
   161   81  203 1    
   162   81  204 1    
   163   82   83 2    
   164   82   84 am   BACKBONE|DICT|INTERRES
   165   84   85 1    
   166   84  205 1    
   167   85   86 1    
   168   85   87 1    
   169   85  206 1    
   170   86  207 1    
   171   86  208 1    
   172   86  209 1    
   173   87   88 2    
   174   87   89 am   BACKBONE|DICT|INTERRES
   175   89   90 1    
   176   89  210 1    
   177   90   91 1    
   178   90   92 1    
   179   90  211 1    
   180   91  212 1    
   181   91  213 1    
   182   91  214 1    
   183   92   93 2    
   184   92   94 am   BACKBONE|DICT|INTERRES
   185   94   95 1    
   186   94  215 1    
   187   95   96 1    
   188   95   97 1    
   189   95  216 1    
   190   96  217 1    
   191   96  218 1    
   192   96  219 1    
   193   97   98 2    
   194   97   99 am   BACKBONE|DICT|INTERRES
   195   99  100 1    
   196   99  220 1    
   197  100  101 1    
   198  100  102 1    
   199  100  221 1    
   200  101  222 1    
   201  101  223 1    
   202  101  224 1    
   203  102  103 2    
   204  102  104 am   BACKBONE|DICT|INTERRES
   205  104  105 1    
   206  104  225 1    
   207  105  106 1    
   208  105  107 1    
   209  105  226 1    
   210  106  227 1    
   211  106  228 1    
   212  106  229 1    
   213  107  108 2    
   214  107  109 am   BACKBONE|DICT|INTERRES
   215  109  110 1    
   216  109  230 1    
   217  110  111 1    
   218  110  112 1    
   219  110  231 1    
   220  111  232 1    
   221  111  233 1    
   222  111  234 1    
   223  112  113 2    
   224  112  114 am   BACKBONE|DICT|INTERRES
   225  114  115 1    
   226  114  235 1    
   227  115  116 1    
   228  115  117 1    
   229  115  236 1    
   230  116  237 1    
   231  116  238 1    
   232  116  239 1    
   233  117  118 2    
   234  117  119 am   BACKBONE|DICT|INTERRES
   235  119  120 1    
   236  119  240 1    
   237  120  121 1    
   238  120  124 1    
   239  120  241 1    
   240  121  122 am   BACKBONE|DICT|INTERRES
   241  121  123 2    
   242  122  242 1    
   243  122  243 1    
   244  124  125 1    
   245  124  244 1    
   246  124  245 1    
   247  125  126 1    
   248  126  246 1    
   249  126  247 1    
@<TRIPOS>SUBSTRUCTURE
     1 UNK         1 GROUP             0       ****    0 ROOT    
