@<TRIPOS>MOLECULE
3R540
247   249    1
SMALL
USER_CHARGES


@<TRIPOS>ATOM
      1 CA          1.9707  -12.4582  -45.2609 C.3       0 UNK        -0.1800 
      2 C           0.6145  -13.0293  -45.6422 C.2       0 UNK         0.5000 
      3 O          -0.4014  -12.3515  -45.4864 O.2       0 UNK        -0.5000 
      4 N           0.5915  -14.2812  -46.1193 N.am      1 UNK        -0.5000 
      5 CA         -0.6055  -15.0546  -46.4667 C.3       1 UNK         0.1400 
      6 C6         -1.3073  -14.4957  -47.7341 C.3       23 UNK        -0.0398 
      7 S7         -2.4303  -15.6993  -48.5244 S.3       23 UNK        -0.2404 
      8 C8         -1.9342  -15.5634  -50.2799 C.3       23 UNK        -0.0205 
      9 C9         -0.8392  -16.5281  -50.7432 C.ar      23 UNK        -0.0193 
     10 C10        -0.7474  -16.8160  -52.1089 C.ar      23 UNK        -0.1150 
     11 C11         0.2237  -17.6951  -52.5957 C.ar      23 UNK        -0.0193 
     12 C12         1.1252  -18.2827  -51.7065 C.ar      23 UNK        -0.1150 
     13 C13         1.0360  -18.0278  -50.3377 C.ar      23 UNK        -0.0193 
     14 C14         0.0656  -17.1384  -49.8637 C.ar      23 UNK        -0.1150 
     15 C15         1.9582  -18.7547  -49.3678 C.3       23 UNK        -0.0205 
     16 S16         1.5507  -20.5300  -49.2280 S.3       23 UNK        -0.2404 
     17 C17        -0.2509  -20.4615  -48.9513 C.3       23 UNK        -0.0398 
     18 CA         -0.8079  -21.6287  -48.1081 C.3       11 UNK         0.1400 
     19 N          -0.1944  -21.7046  -46.7782 N.am      11 UNK        -0.5000 
     20 C          -0.3581  -22.7255  -45.9223 C.2       10 UNK         0.5000 
     21 O          -1.0326  -23.7225  -46.1748 O.2       10 UNK        -0.5000 
     22 CA          0.2828  -22.5853  -44.5267 C.3       10 UNK         0.1400 
     23 CB          1.7290  -23.1002  -44.5455 C.3       10 UNK        -0.1800 
     24 N           0.2690  -21.2115  -44.0242 N.am      10 UNK        -0.5000 
     25 C          -0.8306  -20.4587  -43.8660 C.2       9 UNK         0.5000 
     26 O          -1.9727  -20.8902  -44.0183 O.2       9 UNK        -0.5000 
     27 CA         -0.6308  -18.9629  -43.5561 C.3       9 UNK         0.1400 
     28 CB         -0.9748  -18.6555  -42.0918 C.3       9 UNK        -0.1800 
     29 N           0.7210  -18.4801  -43.8470 N.am      9 UNK        -0.5000 
     30 C           1.2919  -18.4396  -45.0596 C.2       8 UNK         0.5000 
     31 O           0.6992  -18.7452  -46.0943 O.2       8 UNK        -0.5000 
     32 CA          2.7842  -18.0495  -45.1220 C.3       8 UNK         0.1400 
     33 CB          2.9716  -16.6919  -45.8127 C.3       8 UNK        -0.1800 
     34 N           3.4369  -18.0133  -43.8071 N.am      8 UNK        -0.5000 
     35 C           3.7263  -19.0955  -43.0687 C.2       7 UNK         0.5000 
     36 O           3.4605  -20.2419  -43.4342 O.2       7 UNK        -0.5000 
     37 CA          4.3449  -18.8584  -41.6725 C.3       7 UNK         0.1400 
     38 CB          5.1800  -20.0590  -41.1799 C.3       7 UNK        -0.1800 
     39 N           5.0985  -17.6039  -41.5448 N.am      7 UNK        -0.5000 
     40 C           6.2338  -17.2629  -42.1740 C.2       6 UNK         0.5000 
     41 O           6.8022  -17.9740  -43.0038 O.2       6 UNK        -0.5000 
     42 CA          6.8005  -15.8759  -41.8174 C.3       6 UNK         0.1400 
     43 CB          7.9340  -15.4178  -42.7540 C.3       6 UNK        -0.1800 
     44 N           5.7190  -14.8970  -41.8447 N.am      6 UNK        -0.5000 
     45 C           5.5403  -13.8659  -41.0168 C.2       5 UNK         0.5000 
     46 O           6.2993  -13.5957  -40.0855 O.2       5 UNK        -0.5000 
     47 CA          4.2996  -12.9835  -41.2753 C.3       5 UNK         0.1400 
     48 CB          4.4585  -12.1804  -42.5794 C.3       5 UNK        -0.1800 
     49 N           3.0079  -13.6884  -41.2451 N.am      5 UNK        -0.5000 
     50 C           2.5694  -14.7067  -41.9976 C.2       4 UNK         0.5000 
     51 O           3.2259  -15.2407  -42.8912 O.2       4 UNK        -0.5000 
     52 CA          1.1589  -15.2399  -41.7015 C.3       4 UNK         0.1400 
     53 CB          1.0483  -15.8282  -40.2816 C.3       4 UNK        -0.1800 
     54 N           0.0945  -14.2767  -41.9883 N.am      4 UNK        -0.5000 
     55 C          -0.1904  -13.1207  -41.3697 C.2       3 UNK         0.5000 
     56 O           0.4391  -12.6950  -40.3998 O.2       3 UNK        -0.5000 
     57 CA         -1.3654  -12.2864  -41.9257 C.3       3 UNK         0.1400 
     58 CB         -0.8717  -10.9184  -42.4243 C.3       3 UNK        -0.1800 
     59 N          -2.0875  -12.9597  -43.0108 N.am      3 UNK        -0.5000 
     60 C          -3.0634  -13.8628  -42.8271 C.2       2 UNK         0.5000 
     61 O          -3.5089  -14.1615  -41.7187 O.2       2 UNK        -0.5000 
     62 CA         -3.6246  -14.5785  -44.0770 C.3       2 UNK         0.1400 
     63 CB         -4.9417  -13.9271  -44.5243 C.3       2 UNK        -0.1800 
     64 N          -2.7061  -14.6198  -45.2187 N.am      2 UNK        -0.5000 
     65 C          -1.5010  -15.2048  -45.2153 C.2       1 UNK         0.5000 
     66 O          -1.0457  -15.7914  -44.2339 O.2       1 UNK        -0.5000 
     67 C          -2.3426  -21.4994  -48.0282 C.2       11 UNK         0.5000 
     68 O          -3.0442  -22.0489  -48.8785 O.2       11 UNK        -0.5000 
     69 N          -2.8339  -20.7707  -47.0167 N.am      12 UNK        -0.5000 
     70 CA         -4.2578  -20.5919  -46.7451 C.3       12 UNK         0.1400 
     71 CB         -4.4680  -19.3323  -45.8902 C.3       12 UNK        -0.1800 
     72 C          -4.8595  -21.8374  -46.0746 C.2       12 UNK         0.5000 
     73 O          -5.9507  -22.2577  -46.4564 O.2       12 UNK        -0.5000 
     74 N          -4.1198  -22.4342  -45.1285 N.am      13 UNK        -0.5000 
     75 CA         -4.4872  -23.6653  -44.4237 C.3       13 UNK         0.1400 
     76 CB         -3.4784  -23.9284  -43.2961 C.3       13 UNK        -0.1800 
     77 C          -4.5906  -24.8868  -45.3571 C.2       13 UNK         0.5000 
     78 O          -5.5140  -25.6879  -45.2106 O.2       13 UNK        -0.5000 
     79 N          -3.6675  -24.9843  -46.3241 N.am      14 UNK        -0.5000 
     80 CA         -3.6725  -25.9940  -47.3861 C.3       14 UNK         0.1400 
     81 CB         -2.2631  -26.0746  -47.9950 C.3       14 UNK        -0.1800 
     82 C          -4.7088  -25.7137  -48.4944 C.2       14 UNK         0.5000 
     83 O          -4.9366  -26.5851  -49.3336 O.2       14 UNK        -0.5000 
     84 N          -5.2809  -24.4995  -48.5018 N.am      15 UNK        -0.5000 
     85 CA         -6.2061  -23.9353  -49.4918 C.3       15 UNK         0.1400 
     86 CB         -7.5119  -24.7509  -49.5750 C.3       15 UNK        -0.1800 
     87 C          -5.5716  -23.6975  -50.8779 C.2       15 UNK         0.5000 
     88 O          -6.2924  -23.4111  -51.8339 O.2       15 UNK        -0.5000 
     89 N          -4.2360  -23.7594  -50.9641 N.am      16 UNK        -0.5000 
     90 CA         -3.4564  -23.4961  -52.1718 C.3       16 UNK         0.1400 
     91 CB         -1.9934  -23.8982  -51.9355 C.3       16 UNK        -0.1800 
     92 C          -3.5502  -22.0278  -52.6136 C.2       16 UNK         0.5000 
     93 O          -3.6105  -21.7625  -53.8137 O.2       16 UNK        -0.5000 
     94 N          -3.6046  -21.1129  -51.6353 N.am      17 UNK        -0.5000 
     95 CA         -3.8312  -19.6831  -51.8473 C.3       17 UNK         0.1400 
     96 CB         -3.5857  -18.9289  -50.5323 C.3       17 UNK        -0.1800 
     97 C          -5.2442  -19.3797  -52.3787 C.2       17 UNK         0.5000 
     98 O          -5.4009  -18.4984  -53.2232 O.2       17 UNK        -0.5000 
     99 N          -6.2423  -20.1223  -51.8793 N.am      18 UNK        -0.5000 
    100 CA        -7.6482  -19.9917  -52.2628 C.3       18 UNK         0.1400 
    101 CB        -8.5320  -20.6623  -51.1991 C.3       18 UNK        -0.1800 
    102 C         -7.9247  -20.5780  -53.6578 C.2       18 UNK         0.5000 
    103 O         -8.6376  -19.9605  -54.4495 O.2       18 UNK        -0.5000 
    104 N         -7.3379  -21.7490  -53.9386 N.am      19 UNK        -0.5000 
    105 CA        -7.4348  -22.4462  -55.2220 C.3       19 UNK         0.1400 
    106 CB        -7.0127  -23.9098  -55.0143 C.3       19 UNK        -0.1800 
    107 C         -6.5834  -21.8073  -56.3368 C.2       19 UNK         0.5000 
    108 O         -6.8082  -22.1119  -57.5086 O.2       19 UNK        -0.5000 
    109 N         -5.6028  -20.9761  -55.9506 N.am      20 UNK        -0.5000 
    110 CA        -4.5356  -20.4041  -56.7816 C.3       20 UNK         0.1400 
    111 CB        -5.1025  -19.4678  -57.8685 C.3       20 UNK        -0.1800 
    112 C         -3.5826  -21.4844  -57.3413 C.2       20 UNK         0.5000 
    113 O         -2.9814  -21.3030  -58.4012 O.2       20 UNK        -0.5000 
    114 N         -3.4492  -22.5876  -56.5937 N.am      21 UNK        -0.5000 
    115 CA        -2.5486  -23.7076  -56.8656 C.3       21 UNK         0.1400 
    116 CB        -3.1372  -24.9726  -56.2215 C.3       21 UNK        -0.1800 
    117 C         -1.1219  -23.4450  -56.3444 C.2       21 UNK         0.5000 
    118 O         -0.2075  -24.2026  -56.6695 O.2       21 UNK        -0.5000 
    119 N         -0.9611  -22.3831  -55.5454 N.am      22 UNK        -0.5000 
    120 CA         0.3019  -21.8990  -54.9728 C.3       22 UNK         0.1400 
    121 C          1.3682  -21.3958  -55.9940 C.2       22 UNK         0.5000 
    122 N          1.0284  -21.1597  -57.2556 N.am      22 UNK        -0.7600 
    123 O          2.5286  -21.2231  -55.6317 O.2       22 UNK        -0.5000 
    124 C124        0.0268  -20.8442  -53.8720 C.3       23 UNK        -0.0398 
    125 S125       -0.8779  -19.3746  -54.4871 S.3       23 UNK        -0.2404 
    126 C126        0.2763  -18.0282  -54.0781 C.3       23 UNK        -0.0205 
    127 H127        2.7712  -13.1867  -45.3933 H         1 UNK         0.0600 
    128 H128        1.9580  -12.1547  -44.2149 H         1 UNK         0.0600 
    129 H129        2.1970  -11.5834  -45.8701 H         1 UNK         0.0600 
    130 H130        1.4638  -14.7813  -46.2039 H         1 UNK         0.3000 
    131 H131       -0.2473  -16.0592  -46.6939 H         1 UNK         0.0600 
    132 H132       -1.8459  -13.5691  -47.5312 H         1 UNK         0.0800 
    133 H133       -0.5403  -14.2244  -48.4607 H         1 UNK         0.0800 
    134 H134       -1.6251  -14.5412  -50.5011 H         1 UNK         0.0800 
    135 H135       -2.8293  -15.7345  -50.8792 H         1 UNK         0.0800 
    136 H136       -1.4463  -16.3648  -52.7995 H         1 UNK         0.1150 
    137 H137        1.8787  -18.9667  -52.0694 H         1 UNK         0.1150 
    138 H138        0.0084  -16.9491  -48.8036 H         1 UNK         0.1150 
    139 H139        1.9064  -18.3018  -48.3791 H         1 UNK         0.0800 
    140 H140        2.9922  -18.6498  -49.6990 H         1 UNK         0.0800 
    141 H141       -0.7210  -20.4451  -49.9365 H         1 UNK         0.0800 
    142 H142       -0.4987  -19.5129  -48.4719 H         1 UNK         0.0800 
    143 H143       -0.5875  -22.5623  -48.6302 H         1 UNK         0.0600 
    144 H144        0.3519  -20.9002  -46.4943 H         1 UNK         0.3000 
    145 H145       -0.2909  -23.1991  -43.8307 H         1 UNK         0.0600 
    146 H146        1.7725  -24.1322  -44.8959 H         1 UNK         0.0600 
    147 H147        2.1692  -23.0763  -43.5483 H         1 UNK         0.0600 
    148 H148        2.3606  -22.5012  -45.2031 H         1 UNK         0.0600 
    149 H149        1.1723  -20.7829  -43.8708 H         1 UNK         0.3000 
    150 H150       -1.3289  -18.4173  -44.1935 H         1 UNK         0.0600 
    151 H151       -0.2597  -19.1078  -41.4037 H         1 UNK         0.0600 
    152 H152       -1.9651  -19.0334  -41.8340 H         1 UNK         0.0600 
    153 H153       -0.9877  -17.5806  -41.9127 H         1 UNK         0.0600 
    154 H154        1.2869  -18.2223  -43.0548 H         1 UNK         0.3000 
    155 H155        3.2843  -18.8067  -45.7295 H         1 UNK         0.0600 
    156 H156        4.0289  -16.4553  -45.9338 H         1 UNK         0.0600 
    157 H157        2.5159  -15.8918  -45.2345 H         1 UNK         0.0600 
    158 H158        2.5208  -16.6834  -46.8049 H         1 UNK         0.0600 
    159 H159        3.6389  -17.0907  -43.4357 H         1 UNK         0.3000 
    160 H160        3.4962  -18.7608  -40.9942 H         1 UNK         0.0600 
    161 H161        6.0115  -20.2776  -41.8505 H         1 UNK         0.0600 
    162 H162        4.5702  -20.9609  -41.1143 H         1 UNK         0.0600 
    163 H163        5.5889  -19.8746  -40.1865 H         1 UNK         0.0600 
    164 H164        4.7161  -16.9324  -40.8942 H         1 UNK         0.3000 
    165 H165        7.1996  -15.9541  -40.8041 H         1 UNK         0.0600 
    166 H166        8.7686  -16.1196  -42.7333 H         1 UNK         0.0600 
    167 H167        7.5922  -15.3390  -43.7867 H         1 UNK         0.0600 
    168 H168        8.3224  -14.4442  -42.4549 H         1 UNK         0.0600 
    169 H169        4.9828  -15.0637  -42.5280 H         1 UNK         0.3000 
    170 H170        4.2584  -12.2630  -40.4569 H         1 UNK         0.0600 
    171 H171        3.6621  -11.4441  -42.6838 H         1 UNK         0.0600 
    172 H172        4.4440  -12.8223  -43.4604 H         1 UNK         0.0600 
    173 H173        5.4034  -11.6356  -42.5896 H         1 UNK         0.0600 
    174 H174        2.3368  -13.3180  -40.5788 H         1 UNK         0.3000 
    175 H175        0.9915  -16.0603  -42.3991 H         1 UNK         0.0600 
    176 H176        1.7816  -16.6214  -40.1318 H         1 UNK         0.0600 
    177 H177        1.2173  -15.0799  -39.5072 H         1 UNK         0.0600 
    178 H178        0.0629  -16.2616  -40.1115 H         1 UNK         0.0600 
    179 H179       -0.4866  -14.5392  -42.7780 H         1 UNK         0.3000 
    180 H180       -2.0539  -12.1080  -41.0972 H         1 UNK         0.0600 
    181 H181       -0.1174  -11.0185  -43.2043 H         1 UNK         0.0600 
    182 H182       -0.4234  -10.3457  -41.6115 H         1 UNK         0.0600 
    183 H183       -1.6925  -10.3233  -42.8247 H         1 UNK         0.0600 
    184 H184       -1.7577  -12.7727  -43.9524 H         1 UNK         0.3000 
    185 H185       -3.8351  -15.6107  -43.7892 H         1 UNK         0.0600 
    186 H186       -5.6656  -13.9071  -43.7085 H         1 UNK         0.0600 
    187 H187       -4.7892  -12.8984  -44.8533 H         1 UNK         0.0600 
    188 H188       -5.3966  -14.4800  -45.3465 H         1 UNK         0.0600 
    189 H189       -3.0093  -14.1387  -46.0526 H         1 UNK         0.3000 
    190 H190       -2.1926  -20.3902  -46.3358 H         1 UNK         0.3000 
    191 H191       -4.7794  -20.4425  -47.6925 H         1 UNK         0.0600 
    192 H192       -4.0694  -18.4478  -46.3882 H         1 UNK         0.0600 
    193 H193       -5.5299  -19.1555  -45.7152 H         1 UNK         0.0600 
    194 H194       -3.9862  -19.4132  -44.9159 H         1 UNK         0.0600 
    195 H195       -3.2559  -21.9846  -44.8356 H         1 UNK         0.3000 
    196 H196       -5.4688  -23.5071  -43.9724 H         1 UNK         0.0600 
    197 H197       -3.7674  -24.8018  -42.7104 H         1 UNK         0.0600 
    198 H198       -3.4192  -23.0815  -42.6121 H         1 UNK         0.0600 
    199 H199       -2.4787  -24.1134  -43.6884 H         1 UNK         0.0600 
    200 H200       -2.8902  -24.3296  -46.3296 H         1 UNK         0.3000 
    201 H201       -3.9131  -26.9643  -46.9470 H         1 UNK         0.0600 
    202 H202       -2.2101  -26.8431  -48.7672 H         1 UNK         0.0600 
    203 H203       -1.5205  -26.3259  -47.2375 H         1 UNK         0.0600 
    204 H204       -1.9682  -25.1287  -48.4517 H         1 UNK         0.0600 
    205 H205       -5.0352  -23.8688  -47.7500 H         1 UNK         0.3000 
    206 H206       -6.4672  -22.9447  -49.1176 H         1 UNK         0.0600 
    207 H207       -7.9467  -24.8996  -48.5866 H         1 UNK         0.0600 
    208 H208       -8.2571  -24.2347  -50.1813 H         1 UNK         0.0600 
    209 H209       -7.3524  -25.7311  -50.0245 H         1 UNK         0.0600 
    210 H210       -3.7168  -23.9016  -50.1092 H         1 UNK         0.3000 
    211 H211       -3.8621  -24.1146  -52.9741 H         1 UNK         0.0600 
    212 H212       -1.9142  -24.9496  -51.6584 H         1 UNK         0.0600 
    213 H213       -1.3990  -23.7559  -52.8388 H         1 UNK         0.0600 
    214 H214       -1.5349  -23.3071  -51.1415 H         1 UNK         0.0600 
    215 H215       -3.5271  -21.4331  -50.6746 H         1 UNK         0.3000 
    216 H216       -3.1139  -19.3241  -52.5867 H         1 UNK         0.0600 
    217 H217       -4.1993  -19.3191  -49.7209 H         1 UNK         0.0600 
    218 H218       -3.8257  -17.8714  -50.6391 H         1 UNK         0.0600 
    219 H219       -2.5424  -18.9912  -50.2277 H         1 UNK         0.0600 
    220 H220       -6.0167  -20.8493  -51.2183 H         1 UNK         0.3000 
    221 H221       -7.9008  -18.9294  -52.2899 H         1 UNK         0.0600 
    222 H222       -8.3298  -21.7304  -51.1158 H         1 UNK         0.0600 
    223 H223       -8.3767  -20.2142  -50.2175 H         1 UNK         0.0600 
    224 H224       -9.5887  -20.5484  -51.4442 H         1 UNK         0.0600 
    225 H225       -6.8240  -22.2291  -53.2035 H         1 UNK         0.3000 
    226 H226       -8.4762  -22.4310  -55.5498 H         1 UNK         0.0600 
    227 H227       -7.6422  -24.4000  -54.2713 H         1 UNK         0.0600 
    228 H228       -7.0984  -24.4800  -55.9401 H         1 UNK         0.0600 
    229 H229       -5.9782  -23.9849  -54.6764 H         1 UNK         0.0600 
    230 H230       -5.4934  -20.8267  -54.9563 H         1 UNK         0.3000 
    231 H231       -3.9312  -19.7942  -56.1082 H         1 UNK         0.0600 
    232 H232       -5.6465  -20.0168  -58.6372 H         1 UNK         0.0600 
    233 H233       -4.3014  -18.9204  -58.3662 H         1 UNK         0.0600 
    234 H234       -5.7798  -18.7302  -57.4381 H         1 UNK         0.0600 
    235 H235       -3.9150  -22.5918  -55.6940 H         1 UNK         0.3000 
    236 H236       -2.4865  -23.8653  -57.9443 H         1 UNK         0.0600 
    237 H237       -3.1919  -24.8839  -55.1366 H         1 UNK         0.0600 
    238 H238       -4.1423  -25.1737  -56.5932 H         1 UNK         0.0600 
    239 H239       -2.5263  -25.8472  -56.4484 H         1 UNK         0.0600 
    240 H240       -1.7779  -21.8308  -55.3212 H         1 UNK         0.3000 
    241 H241        0.7602  -22.7592  -54.4816 H         1 UNK         0.0600 
    242 H242        0.0776  -21.2892  -57.5629 H         1 UNK         0.3800 
    243 H243        1.7275  -20.8388  -57.9068 H         1 UNK         0.3800 
    244 H244       -0.5673  -21.2889  -53.0733 H         1 UNK         0.0800 
    245 H245        0.9637  -20.5486  -53.4017 H         1 UNK         0.0800 
    246 H246        1.2889  -18.2990  -54.3817 H         1 UNK         0.0800 
    247 H247        0.0092  -17.1459  -54.6615 H         1 UNK         0.0800 
@<TRIPOS>BOND
     1    1    2 1    
     2    1  127 1    
     3    1  128 1    
     4    1  129 1    
     5    2    3 2    
     6    2    4 am   BACKBONE|DICT|INTERRES
     7    4    5 1    
     8    4  130 1    
     9    5    6 1    
    10    5   65 1    
    11    5  131 1    
    12    6    7 1    
    13    6  132 1    
    14    6  133 1    
    15    7    8 1    
    16    8    9 1    
    17    8  134 1    
    18    8  135 1    
    19    9   10 ar   
    20    9   14 ar   
    21   10   11 ar   
    22   10  136 1    
    23   11   12 ar   
    24   11  126 1    
    25   12   13 ar   
    26   12  137 1    
    27   13   14 ar   
    28   13   15 1    
    29   14  138 1    
    30   15   16 1    
    31   15  139 1    
    32   15  140 1    
    33   16   17 1    
    34   17   18 1    
    35   17  141 1    
    36   17  142 1    
    37   18   19 1    
    38   18   67 1    
    39   18  143 1    
    40   19   20 am   BACKBONE|DICT|INTERRES
    41   19  144 1    
    42   20   21 2    
    43   20   22 1    
    44   22   23 1    
    45   22   24 1    
    46   22  145 1    
    47   23  146 1    
    48   23  147 1    
    49   23  148 1    
    50   24   25 am   BACKBONE|DICT|INTERRES
    51   24  149 1    
    52   25   26 2    
    53   25   27 1    
    54   27   28 1    
    55   27   29 1    
    56   27  150 1    
    57   28  151 1    
    58   28  152 1    
    59   28  153 1    
    60   29   30 am   BACKBONE|DICT|INTERRES
    61   29  154 1    
    62   30   31 2    
    63   30   32 1    
    64   32   33 1    
    65   32   34 1    
    66   32  155 1    
    67   33  156 1    
    68   33  157 1    
    69   33  158 1    
    70   34   35 am   BACKBONE|DICT|INTERRES
    71   34  159 1    
    72   35   36 2    
    73   35   37 1    
    74   37   38 1    
    75   37   39 1    
    76   37  160 1    
    77   38  161 1    
    78   38  162 1    
    79   38  163 1    
    80   39   40 am   BACKBONE|DICT|INTERRES
    81   39  164 1    
    82   40   41 2    
    83   40   42 1    
    84   42   43 1    
    85   42   44 1    
    86   42  165 1    
    87   43  166 1    
    88   43  167 1    
    89   43  168 1    
    90   44   45 am   BACKBONE|DICT|INTERRES
    91   44  169 1    
    92   45   46 2    
    93   45   47 1    
    94   47   48 1    
    95   47   49 1    
    96   47  170 1    
    97   48  171 1    
    98   48  172 1    
    99   48  173 1    
   100   49   50 am   BACKBONE|DICT|INTERRES
   101   49  174 1    
   102   50   51 2    
   103   50   52 1    
   104   52   53 1    
   105   52   54 1    
   106   52  175 1    
   107   53  176 1    
   108   53  177 1    
   109   53  178 1    
   110   54   55 am   BACKBONE|DICT|INTERRES
   111   54  179 1    
   112   55   56 2    
   113   55   57 1    
   114   57   58 1    
   115   57   59 1    
   116   57  180 1    
   117   58  181 1    
   118   58  182 1    
   119   58  183 1    
   120   59   60 am   BACKBONE|DICT|INTERRES
   121   59  184 1    
   122   60   61 2    
   123   60   62 1    
   124   62   63 1    
   125   62   64 1    
   126   62  185 1    
   127   63  186 1    
   128   63  187 1    
   129   63  188 1    
   130   64   65 am   BACKBONE|DICT|INTERRES
   131   64  189 1    
   132   65   66 2    
   133   67   68 2    
   134   67   69 am   BACKBONE|DICT|INTERRES
   135   69   70 1    
   136   69  190 1    
   137   70   71 1    
   138   70   72 1    
   139   70  191 1    
   140   71  192 1    
   141   71  193 1    
   142   71  194 1    
   143   72   73 2    
   144   72   74 am   BACKBONE|DICT|INTERRES
   145   74   75 1    
   146   74  195 1    
   147   75   76 1    
   148   75   77 1    
   149   75  196 1    
   150   76  197 1    
   151   76  198 1    
   152   76  199 1    
   153   77   78 2    
   154   77   79 am   BACKBONE|DICT|INTERRES
   155   79   80 1    
   156   79  200 1    
   157   80   81 1    
   158   80   82 1    
   159   80  201 1    
   160   81  202 1    
   161   81  203 1    
   162   81  204 1    
   163   82   83 2    
   164   82   84 am   BACKBONE|DICT|INTERRES
   165   84   85 1    
   166   84  205 1    
   167   85   86 1    
   168   85   87 1    
   169   85  206 1    
   170   86  207 1    
   171   86  208 1    
   172   86  209 1    
   173   87   88 2    
   174   87   89 am   BACKBONE|DICT|INTERRES
   175   89   90 1    
   176   89  210 1    
   177   90   91 1    
   178   90   92 1    
   179   90  211 1    
   180   91  212 1    
   181   91  213 1    
   182   91  214 1    
   183   92   93 2    
   184   92   94 am   BACKBONE|DICT|INTERRES
   185   94   95 1    
   186   94  215 1    
   187   95   96 1    
   188   95   97 1    
   189   95  216 1    
   190   96  217 1    
   191   96  218 1    
   192   96  219 1    
   193   97   98 2    
   194   97   99 am   BACKBONE|DICT|INTERRES
   195   99  100 1    
   196   99  220 1    
   197  100  101 1    
   198  100  102 1    
   199  100  221 1    
   200  101  222 1    
   201  101  223 1    
   202  101  224 1    
   203  102  103 2    
   204  102  104 am   BACKBONE|DICT|INTERRES
   205  104  105 1    
   206  104  225 1    
   207  105  106 1    
   208  105  107 1    
   209  105  226 1    
   210  106  227 1    
   211  106  228 1    
   212  106  229 1    
   213  107  108 2    
   214  107  109 am   BACKBONE|DICT|INTERRES
   215  109  110 1    
   216  109  230 1    
   217  110  111 1    
   218  110  112 1    
   219  110  231 1    
   220  111  232 1    
   221  111  233 1    
   222  111  234 1    
   223  112  113 2    
   224  112  114 am   BACKBONE|DICT|INTERRES
   225  114  115 1    
   226  114  235 1    
   227  115  116 1    
   228  115  117 1    
   229  115  236 1    
   230  116  237 1    
   231  116  238 1    
   232  116  239 1    
   233  117  118 2    
   234  117  119 am   BACKBONE|DICT|INTERRES
   235  119  120 1    
   236  119  240 1    
   237  120  121 1    
   238  120  124 1    
   239  120  241 1    
   240  121  122 am   BACKBONE|DICT|INTERRES
   241  121  123 2    
   242  122  242 1    
   243  122  243 1    
   244  124  125 1    
   245  124  244 1    
   246  124  245 1    
   247  125  126 1    
   248  126  246 1    
   249  126  247 1    
@<TRIPOS>SUBSTRUCTURE
     1 UNK         1 GROUP             0       ****    0 ROOT    
