@<TRIPOS>MOLECULE
3R540
247   249    1
SMALL
USER_CHARGES


@<TRIPOS>ATOM
      1 CA         -1.5230  -15.4468  -44.7555 C.3       0 UNK        -0.1800 
      2 C          -2.2128  -14.0980  -44.8759 C.2       0 UNK         0.5000 
      3 O          -2.1656  -13.3067  -43.9345 O.2       0 UNK        -0.5000 
      4 N          -2.8447  -13.8256  -46.0263 N.am      1 UNK        -0.5000 
      5 CA         -3.4911  -12.5409  -46.3312 C.3       1 UNK         0.1400 
      6 C6         -4.4903  -12.6516  -47.5106 C.3       23 UNK        -0.0398 
      7 S7         -3.7463  -13.1036  -49.1209 S.3       23 UNK        -0.2404 
      8 C8         -4.5019  -14.7231  -49.4694 C.3       23 UNK        -0.0205 
      9 C9         -3.7696  -15.8544  -48.7671 C.ar      23 UNK        -0.0193 
     10 C10        -2.5775  -16.3466  -49.3035 C.ar      23 UNK        -0.1150 
     11 C11        -1.9100  -17.4094  -48.6926 C.ar      23 UNK        -0.0193 
     12 C12        -2.4457  -17.9811  -47.5369 C.ar      23 UNK        -0.1150 
     13 C13        -3.6292  -17.4897  -46.9752 C.ar      23 UNK        -0.0193 
     14 C14        -4.2863  -16.4236  -47.5997 C.ar      23 UNK        -0.1150 
     15 C15        -4.1954  -18.0774  -45.6858 C.3       23 UNK        -0.0205 
     16 S16        -4.4288  -19.8858  -45.7438 S.3       23 UNK        -0.2404 
     17 C17        -2.8532  -20.4962  -45.0457 C.3       23 UNK        -0.0398 
     18 CA         -2.2726  -21.6986  -45.8401 C.3       11 UNK         0.1400 
     19 N          -0.8155  -21.5885  -46.0002 N.am      11 UNK        -0.5000 
     20 C          -0.0287  -22.3736  -46.7495 C.2       10 UNK         0.5000 
     21 O          -0.4518  -23.3027  -47.4371 O.2       10 UNK        -0.5000 
     22 CA          1.4916  -22.1337  -46.6574 C.3       10 UNK         0.1400 
     23 CB          1.9582  -21.1878  -47.7719 C.3       10 UNK        -0.1800 
     24 N           1.9220  -21.6207  -45.3513 N.am      10 UNK        -0.5000 
     25 C           1.8017  -22.2941  -44.1960 C.2       9 UNK         0.5000 
     26 O           1.3395  -23.4323  -44.1198 O.2       9 UNK        -0.5000 
     27 CA          2.2138  -21.5591  -42.9065 C.3       9 UNK         0.1400 
     28 CB          3.7362  -21.6004  -42.7069 C.3       9 UNK        -0.1800 
     29 N           1.7552  -20.1714  -42.8917 N.am      9 UNK        -0.5000 
     30 C           0.4702  -19.7938  -42.8388 C.2       8 UNK         0.5000 
     31 O          -0.4703  -20.5744  -42.6939 O.2       8 UNK        -0.5000 
     32 CA          0.1844  -18.2962  -43.0530 C.3       8 UNK         0.1400 
     33 CB          0.2997  -17.5059  -41.7410 C.3       8 UNK        -0.1800 
     34 N           1.0581  -17.7080  -44.0715 N.am      8 UNK        -0.5000 
     35 C           1.0145  -18.0366  -45.3702 C.2       7 UNK         0.5000 
     36 O           0.2275  -18.8590  -45.8304 O.2       7 UNK        -0.5000 
     37 CA          2.0329  -17.3641  -46.3060 C.3       7 UNK         0.1400 
     38 CB          1.4811  -16.0318  -46.8163 C.3       7 UNK        -0.1800 
     39 N           3.3304  -17.1410  -45.6712 N.am      7 UNK        -0.5000 
     40 C           4.1599  -18.1262  -45.3039 C.2       6 UNK         0.5000 
     41 O           3.9329  -19.3202  -45.5037 O.2       6 UNK        -0.5000 
     42 CA          5.4134  -17.7047  -44.5147 C.3       6 UNK         0.1400 
     43 CB          6.4792  -17.1089  -45.4468 C.3       6 UNK        -0.1800 
     44 N           5.1146  -16.7574  -43.4340 N.am      6 UNK        -0.5000 
     45 C           4.2865  -17.0132  -42.4106 C.2       5 UNK         0.5000 
     46 O           3.6777  -18.0750  -42.2873 O.2       5 UNK        -0.5000 
     47 CA          4.0694  -15.9138  -41.3529 C.3       5 UNK         0.1400 
     48 CB          4.6025  -16.3801  -39.9893 C.3       5 UNK        -0.1800 
     49 N           4.7011  -14.6330  -41.6822 N.am      5 UNK        -0.5000 
     50 C           4.2272  -13.6425  -42.4515 C.2       4 UNK         0.5000 
     51 O           4.8653  -12.5978  -42.5904 O.2       4 UNK        -0.5000 
     52 CA          2.8579  -13.7832  -43.1632 C.3       4 UNK         0.1400 
     53 CB          1.7091  -13.3131  -42.2563 C.3       4 UNK        -0.1800 
     54 N           2.8307  -12.9860  -44.3899 N.am      4 UNK        -0.5000 
     55 C           3.5332  -13.2727  -45.4934 C.2       3 UNK         0.5000 
     56 O           4.1392  -14.3364  -45.6430 O.2       3 UNK        -0.5000 
     57 CA          3.5708  -12.1809  -46.5874 C.3       3 UNK         0.1400 
     58 CB          4.0405  -12.7165  -47.9570 C.3       3 UNK        -0.1800 
     59 N           2.3133  -11.4253  -46.7074 N.am      3 UNK        -0.5000 
     60 C           1.1271  -11.9146  -47.0933 C.2       2 UNK         0.5000 
     61 O           0.9434  -13.0826  -47.4411 O.2       2 UNK        -0.5000 
     62 CA         -0.0631  -10.9444  -47.0945 C.3       2 UNK         0.1400 
     63 CB         -0.1169  -10.1207  -48.3926 C.3       2 UNK        -0.1800 
     64 N          -1.2586  -11.7633  -46.9686 N.am      2 UNK        -0.5000 
     65 C          -2.4659  -11.3980  -46.5292 C.2       1 UNK         0.5000 
     66 O          -2.7746  -10.2379  -46.2524 O.2       1 UNK        -0.5000 
     67 C          -2.7455  -23.0454  -45.2341 C.2       11 UNK         0.5000 
     68 O          -3.9395  -23.3410  -45.2756 O.2       11 UNK        -0.5000 
     69 N          -1.8233  -23.8529  -44.6870 N.am      12 UNK        -0.5000 
     70 CA         -2.0887  -25.2323  -44.2750 C.3       12 UNK         0.1400 
     71 CB         -0.9390  -25.7246  -43.3837 C.3       12 UNK        -0.1800 
     72 C          -2.2867  -26.1855  -45.4731 C.2       12 UNK         0.5000 
     73 O          -2.9488  -27.2122  -45.3154 O.2       12 UNK        -0.5000 
     74 N          -1.7140  -25.8390  -46.6349 N.am      13 UNK        -0.5000 
     75 CA         -1.8124  -26.5974  -47.8812 C.3       13 UNK         0.1400 
     76 CB         -0.3971  -26.8749  -48.4133 C.3       13 UNK        -0.1800 
     77 C          -2.6431  -25.8394  -48.9293 C.2       13 UNK         0.5000 
     78 O          -3.4920  -26.4467  -49.5829 O.2       13 UNK        -0.5000 
     79 N          -2.3865  -24.5335  -49.0770 N.am      14 UNK        -0.5000 
     80 CA         -3.0840  -23.6473  -50.0040 C.3       14 UNK         0.1400 
     81 CB         -2.2746  -22.3536  -50.1525 C.3       14 UNK        -0.1800 
     82 C          -4.4964  -23.3190  -49.5024 C.2       14 UNK         0.5000 
     83 O          -4.6686  -23.0355  -48.3164 O.2       14 UNK        -0.5000 
     84 N          -5.4733  -23.2740  -50.4143 N.am      15 UNK        -0.5000 
     85 CA         -6.8470  -22.8611  -50.1212 C.3       15 UNK         0.1400 
     86 CB         -7.7999  -23.5699  -51.0974 C.3       15 UNK        -0.1800 
     87 C          -6.9615  -21.3261  -50.1900 C.2       15 UNK         0.5000 
     88 O          -7.6848  -20.7978  -51.0340 O.2       15 UNK        -0.5000 
     89 N          -6.1783  -20.6352  -49.3486 N.am      16 UNK        -0.5000 
     90 CA         -6.0217  -19.1759  -49.2777 C.3       16 UNK         0.1400 
     91 CB         -7.2656  -18.5322  -48.6342 C.3       16 UNK        -0.1800 
     92 C          -5.6409  -18.5375  -50.6329 C.2       16 UNK         0.5000 
     93 O          -6.1582  -17.4794  -50.9929 O.2       16 UNK        -0.5000 
     94 N          -4.7749  -19.2441  -51.3749 N.am      17 UNK        -0.5000 
     95 CA         -4.2921  -18.9617  -52.7314 C.3       17 UNK         0.1400 
     96 CB         -3.5804  -17.5945  -52.7999 C.3       17 UNK        -0.1800 
     97 C          -5.3492  -19.1109  -53.8500 C.2       17 UNK         0.5000 
     98 O          -5.0051  -18.9000  -55.0138 O.2       17 UNK        -0.5000 
     99 N          -6.5938  -19.4918  -53.5209 N.am      18 UNK        -0.5000 
    100 CA        -7.6722  -19.6937  -54.4951 C.3       18 UNK         0.1400 
    101 CB        -9.0328  -19.5723  -53.7921 C.3       18 UNK        -0.1800 
    102 C         -7.5623  -21.0426  -55.2310 C.2       18 UNK         0.5000 
    103 O         -8.0469  -21.1597  -56.3574 O.2       18 UNK        -0.5000 
    104 N         -6.9170  -22.0256  -54.5944 N.am      19 UNK        -0.5000 
    105 CA        -6.5952  -23.3375  -55.1421 C.3       19 UNK         0.1400 
    106 CB        -7.8006  -24.2876  -55.0227 C.3       19 UNK        -0.1800 
    107 C         -5.3648  -23.8820  -54.4039 C.2       19 UNK         0.5000 
    108 O         -5.0300  -23.3944  -53.3173 O.2       19 UNK        -0.5000 
    109 N         -4.6911  -24.8554  -55.0309 N.am      20 UNK        -0.5000 
    110 CA        -3.4453  -25.5305  -54.6289 C.3       20 UNK         0.1400 
    111 CB        -3.6092  -26.2688  -53.2866 C.3       20 UNK        -0.1800 
    112 C         -2.1805  -24.6412  -54.6530 C.2       20 UNK         0.5000 
    113 O         -1.1057  -25.1520  -54.9701 O.2       20 UNK        -0.5000 
    114 N         -2.3498  -23.3392  -54.3838 N.am      21 UNK        -0.5000 
    115 CA        -1.3779  -22.2412  -54.4004 C.3       21 UNK         0.1400 
    116 CB        -0.6699  -22.1306  -55.7652 C.3       21 UNK        -0.1800 
    117 C         -0.3642  -22.2844  -53.2417 C.2       21 UNK         0.5000 
    118 O         -0.0351  -23.3503  -52.7187 O.2       21 UNK        -0.5000 
    119 N          0.1065  -21.0930  -52.8579 N.am      22 UNK        -0.5000 
    120 CA         1.0360  -20.8716  -51.7364 C.3       22 UNK         0.1400 
    121 C          2.5344  -21.1250  -52.0784 C.2       22 UNK         0.5000 
    122 N          2.8985  -21.4092  -53.3230 N.am      22 UNK        -0.7600 
    123 O          3.3845  -21.0702  -51.1948 O.2       22 UNK        -0.5000 
    124 C124        0.8380  -19.4680  -51.1065 C.3       23 UNK        -0.0398 
    125 S125       -0.8759  -19.1789  -50.5470 S.3       23 UNK        -0.2404 
    126 C126       -0.6001  -17.9227  -49.2679 C.3       23 UNK        -0.0205 
    127 H127       -2.0525  -16.0764  -44.0417 H         1 UNK         0.0600 
    128 H128       -0.5039  -15.3087  -44.3959 H         1 UNK         0.0600 
    129 H129       -1.4775  -15.9664  -45.7117 H         1 UNK         0.0600 
    130 H130       -2.8605  -14.5114  -46.7694 H         1 UNK         0.3000 
    131 H131       -4.0797  -12.2668  -45.4528 H         1 UNK         0.0600 
    132 H132       -5.2673  -13.3725  -47.2547 H         1 UNK         0.0800 
    133 H133       -5.0134  -11.7028  -47.6410 H         1 UNK         0.0800 
    134 H134       -4.4712  -14.8983  -50.5461 H         1 UNK         0.0800 
    135 H135       -5.5596  -14.7151  -49.2017 H         1 UNK         0.0800 
    136 H136       -2.1708  -15.9031  -50.2015 H         1 UNK         0.1150 
    137 H137       -1.9314  -18.8094  -47.0778 H         1 UNK         0.1150 
    138 H138       -5.2052  -16.0380  -47.1807 H         1 UNK         0.1150 
    139 H139       -3.5511  -17.8084  -44.8489 H         1 UNK         0.0800 
    140 H140       -5.1667  -17.6307  -45.4688 H         1 UNK         0.0800 
    141 H141       -2.1432  -19.6711  -45.0314 H         1 UNK         0.0800 
    142 H142       -3.0068  -20.7406  -43.9927 H         1 UNK         0.0800 
    143 H143       -2.6734  -21.6689  -46.8549 H         1 UNK         0.0600 
    144 H144       -0.3729  -20.8095  -45.5254 H         1 UNK         0.3000 
    145 H145        1.9834  -23.0970  -46.8071 H         1 UNK         0.0600 
    146 H146        3.0301  -20.9980  -47.7125 H         1 UNK         0.0600 
    147 H147        1.7602  -21.6231  -48.7511 H         1 UNK         0.0600 
    148 H148        1.4427  -20.2300  -47.7322 H         1 UNK         0.0600 
    149 H149        2.3535  -20.7031  -45.3390 H         1 UNK         0.3000 
    150 H150        1.7481  -22.0765  -42.0651 H         1 UNK         0.0600 
    151 H151        4.0984  -22.6289  -42.6817 H         1 UNK         0.0600 
    152 H152        4.0220  -21.1303  -41.7657 H         1 UNK         0.0600 
    153 H153        4.2646  -21.0854  -43.5093 H         1 UNK         0.0600 
    154 H154        2.4706  -19.4524  -42.9495 H         1 UNK         0.3000 
    155 H155       -0.8446  -18.2055  -43.4066 H         1 UNK         0.0600 
    156 H156        0.1030  -16.4451  -41.8978 H         1 UNK         0.0600 
    157 H157        1.2861  -17.6047  -41.2895 H         1 UNK         0.0600 
    158 H158       -0.4262  -17.8657  -41.0109 H         1 UNK         0.0600 
    159 H159        1.7753  -17.0759  -43.7558 H         1 UNK         0.3000 
    160 H160        2.1839  -18.0201  -47.1650 H         1 UNK         0.0600 
    161 H161        1.3622  -15.3140  -46.0050 H         1 UNK         0.0600 
    162 H162        0.5050  -16.1542  -47.2851 H         1 UNK         0.0600 
    163 H163        2.1450  -15.5906  -47.5595 H         1 UNK         0.0600 
    164 H164        3.6178  -16.1755  -45.5305 H         1 UNK         0.3000 
    165 H165        5.8294  -18.6052  -44.0578 H         1 UNK         0.0600 
    166 H166        7.4020  -16.8984  -44.9062 H         1 UNK         0.0600 
    167 H167        6.7258  -17.8035  -46.2510 H         1 UNK         0.0600 
    168 H168        6.1417  -16.1802  -45.9079 H         1 UNK         0.0600 
    169 H169        5.5714  -15.8580  -43.4783 H         1 UNK         0.3000 
    170 H170        2.9935  -15.7741  -41.2490 H         1 UNK         0.0600 
    171 H171        4.1273  -17.3116  -39.6781 H         1 UNK         0.0600 
    172 H172        5.6790  -16.5540  -40.0150 H         1 UNK         0.0600 
    173 H173        4.4000  -15.6417  -39.2131 H         1 UNK         0.0600 
    174 H174        5.6001  -14.4860  -41.2469 H         1 UNK         0.3000 
    175 H175        2.6851  -14.8235  -43.4395 H         1 UNK         0.0600 
    176 H176        0.7440  -13.4337  -42.7498 H         1 UNK         0.0600 
    177 H177        1.6695  -13.8834  -41.3284 H         1 UNK         0.0600 
    178 H178        1.8168  -12.2620  -41.9856 H         1 UNK         0.0600 
    179 H179        2.3827  -12.0841  -44.3306 H         1 UNK         0.3000 
    180 H180        4.3194  -11.4613  -46.2531 H         1 UNK         0.0600 
    181 H181        4.0714  -11.9217  -48.7020 H         1 UNK         0.0600 
    182 H182        3.3883  -13.5047  -48.3333 H         1 UNK         0.0600 
    183 H183        5.0455  -13.1345  -47.8878 H         1 UNK         0.0600 
    184 H184        2.3681  -10.4498  -46.4480 H         1 UNK         0.3000 
    185 H185        0.0145  -10.2816  -46.2303 H         1 UNK         0.0600 
    186 H186       -0.2009  -10.7630  -49.2702 H         1 UNK         0.0600 
    187 H187       -0.9677   -9.4393  -48.3947 H         1 UNK         0.0600 
    188 H188        0.7833   -9.5167  -48.5107 H         1 UNK         0.0600 
    189 H189       -1.0820  -12.7444  -47.1517 H         1 UNK         0.3000 
    190 H190       -0.8593  -23.5451  -44.6454 H         1 UNK         0.3000 
    191 H191       -3.0058  -25.2454  -43.6824 H         1 UNK         0.0600 
    192 H192        0.0004  -25.7816  -43.9348 H         1 UNK         0.0600 
    193 H193       -1.1490  -26.7208  -42.9924 H         1 UNK         0.0600 
    194 H194       -0.7882  -25.0640  -42.5297 H         1 UNK         0.0600 
    195 H195       -1.2169  -24.9563  -46.6887 H         1 UNK         0.3000 
    196 H196       -2.2994  -27.5595  -47.7091 H         1 UNK         0.0600 
    197 H197       -0.4341  -27.4308  -49.3510 H         1 UNK         0.0600 
    198 H198        0.1783  -27.4704  -47.7044 H         1 UNK         0.0600 
    199 H199        0.1542  -25.9520  -48.5989 H         1 UNK         0.0600 
    200 H200       -1.6791  -24.0972  -48.4907 H         1 UNK         0.3000 
    201 H201       -3.1382  -24.1321  -50.9785 H         1 UNK         0.0600 
    202 H202       -1.2346  -22.5712  -50.3868 H         1 UNK         0.0600 
    203 H203       -2.2839  -21.7568  -49.2397 H         1 UNK         0.0600 
    204 H204       -2.6713  -21.7345  -50.9576 H         1 UNK         0.0600 
    205 H205       -5.2583  -23.4497  -51.3922 H         1 UNK         0.3000 
    206 H206       -7.1203  -23.1703  -49.1100 H         1 UNK         0.0600 
    207 H207       -7.6830  -24.6527  -51.0520 H         1 UNK         0.0600 
    208 H208       -8.8402  -23.3421  -50.8621 H         1 UNK         0.0600 
    209 H209       -7.6207  -23.2540  -52.1232 H         1 UNK         0.0600 
    210 H210       -5.6047  -21.1741  -48.7078 H         1 UNK         0.3000 
    211 H211       -5.1748  -19.0008  -48.6175 H         1 UNK         0.0600 
    212 H212       -8.1526  -18.6597  -49.2556 H         1 UNK         0.0600 
    213 H213       -7.1194  -17.4619  -48.4841 H         1 UNK         0.0600 
    214 H214       -7.4719  -18.9694  -47.6573 H         1 UNK         0.0600 
    215 H215       -4.4327  -20.1035  -50.9722 H         1 UNK         0.3000 
    216 H216       -3.5403  -19.7258  -52.9329 H         1 UNK         0.0600 
    217 H217       -3.0686  -17.4671  -53.7543 H         1 UNK         0.0600 
    218 H218       -2.8290  -17.4995  -52.0179 H         1 UNK         0.0600 
    219 H219       -4.2791  -16.7646  -52.6942 H         1 UNK         0.0600 
    220 H220       -6.8247  -19.6719  -52.5496 H         1 UNK         0.3000 
    221 H221       -7.6150  -18.9014  -55.2446 H         1 UNK         0.0600 
    222 H222       -9.2071  -20.3968  -53.1007 H         1 UNK         0.0600 
    223 H223       -9.1088  -18.6403  -53.2318 H         1 UNK         0.0600 
    224 H224       -9.8457  -19.5833  -54.5191 H         1 UNK         0.0600 
    225 H225       -6.5115  -21.8412  -53.6862 H         1 UNK         0.3000 
    226 H226       -6.3304  -23.2221  -56.1954 H         1 UNK         0.0600 
    227 H227       -8.6743  -23.8855  -55.5358 H         1 UNK         0.0600 
    228 H228       -7.5806  -25.2555  -55.4743 H         1 UNK         0.0600 
    229 H229       -8.0785  -24.4703  -53.9857 H         1 UNK         0.0600 
    230 H230       -5.0461  -25.1537  -55.9291 H         1 UNK         0.3000 
    231 H231       -3.2775  -26.2951  -55.3892 H         1 UNK         0.0600 
    232 H232       -4.3747  -27.0412  -53.3582 H         1 UNK         0.0600 
    233 H233       -3.8943  -25.6006  -52.4773 H         1 UNK         0.0600 
    234 H234       -2.6807  -26.7593  -52.9916 H         1 UNK         0.0600 
    235 H235       -3.2797  -23.0842  -54.0685 H         1 UNK         0.3000 
    236 H236       -1.9758  -21.3379  -54.2688 H         1 UNK         0.0600 
    237 H237       -0.0769  -21.2174  -55.8245 H         1 UNK         0.0600 
    238 H238        0.0070  -22.9664  -55.9436 H         1 UNK         0.0600 
    239 H239       -1.3905  -22.1012  -56.5826 H         1 UNK         0.0600 
    240 H240       -0.2026  -20.2602  -53.3370 H         1 UNK         0.3000 
    241 H241        0.7981  -21.6020  -50.9621 H         1 UNK         0.0600 
    242 H242        3.8711  -21.5756  -53.5291 H         1 UNK         0.3800 
    243 H243        2.2124  -21.4692  -54.0575 H         1 UNK         0.3800 
    244 H244        1.5047  -19.3421  -50.2516 H         1 UNK         0.0800 
    245 H245        1.1040  -18.6866  -51.8201 H         1 UNK         0.0800 
    246 H246        0.0124  -18.3523  -48.4758 H         1 UNK         0.0800 
    247 H247       -0.0300  -17.0928  -49.6884 H         1 UNK         0.0800 
@<TRIPOS>BOND
     1    1    2 1    
     2    1  127 1    
     3    1  128 1    
     4    1  129 1    
     5    2    3 2    
     6    2    4 am   BACKBONE|DICT|INTERRES
     7    4    5 1    
     8    4  130 1    
     9    5    6 1    
    10    5   65 1    
    11    5  131 1    
    12    6    7 1    
    13    6  132 1    
    14    6  133 1    
    15    7    8 1    
    16    8    9 1    
    17    8  134 1    
    18    8  135 1    
    19    9   10 ar   
    20    9   14 ar   
    21   10   11 ar   
    22   10  136 1    
    23   11   12 ar   
    24   11  126 1    
    25   12   13 ar   
    26   12  137 1    
    27   13   14 ar   
    28   13   15 1    
    29   14  138 1    
    30   15   16 1    
    31   15  139 1    
    32   15  140 1    
    33   16   17 1    
    34   17   18 1    
    35   17  141 1    
    36   17  142 1    
    37   18   19 1    
    38   18   67 1    
    39   18  143 1    
    40   19   20 am   BACKBONE|DICT|INTERRES
    41   19  144 1    
    42   20   21 2    
    43   20   22 1    
    44   22   23 1    
    45   22   24 1    
    46   22  145 1    
    47   23  146 1    
    48   23  147 1    
    49   23  148 1    
    50   24   25 am   BACKBONE|DICT|INTERRES
    51   24  149 1    
    52   25   26 2    
    53   25   27 1    
    54   27   28 1    
    55   27   29 1    
    56   27  150 1    
    57   28  151 1    
    58   28  152 1    
    59   28  153 1    
    60   29   30 am   BACKBONE|DICT|INTERRES
    61   29  154 1    
    62   30   31 2    
    63   30   32 1    
    64   32   33 1    
    65   32   34 1    
    66   32  155 1    
    67   33  156 1    
    68   33  157 1    
    69   33  158 1    
    70   34   35 am   BACKBONE|DICT|INTERRES
    71   34  159 1    
    72   35   36 2    
    73   35   37 1    
    74   37   38 1    
    75   37   39 1    
    76   37  160 1    
    77   38  161 1    
    78   38  162 1    
    79   38  163 1    
    80   39   40 am   BACKBONE|DICT|INTERRES
    81   39  164 1    
    82   40   41 2    
    83   40   42 1    
    84   42   43 1    
    85   42   44 1    
    86   42  165 1    
    87   43  166 1    
    88   43  167 1    
    89   43  168 1    
    90   44   45 am   BACKBONE|DICT|INTERRES
    91   44  169 1    
    92   45   46 2    
    93   45   47 1    
    94   47   48 1    
    95   47   49 1    
    96   47  170 1    
    97   48  171 1    
    98   48  172 1    
    99   48  173 1    
   100   49   50 am   BACKBONE|DICT|INTERRES
   101   49  174 1    
   102   50   51 2    
   103   50   52 1    
   104   52   53 1    
   105   52   54 1    
   106   52  175 1    
   107   53  176 1    
   108   53  177 1    
   109   53  178 1    
   110   54   55 am   BACKBONE|DICT|INTERRES
   111   54  179 1    
   112   55   56 2    
   113   55   57 1    
   114   57   58 1    
   115   57   59 1    
   116   57  180 1    
   117   58  181 1    
   118   58  182 1    
   119   58  183 1    
   120   59   60 am   BACKBONE|DICT|INTERRES
   121   59  184 1    
   122   60   61 2    
   123   60   62 1    
   124   62   63 1    
   125   62   64 1    
   126   62  185 1    
   127   63  186 1    
   128   63  187 1    
   129   63  188 1    
   130   64   65 am   BACKBONE|DICT|INTERRES
   131   64  189 1    
   132   65   66 2    
   133   67   68 2    
   134   67   69 am   BACKBONE|DICT|INTERRES
   135   69   70 1    
   136   69  190 1    
   137   70   71 1    
   138   70   72 1    
   139   70  191 1    
   140   71  192 1    
   141   71  193 1    
   142   71  194 1    
   143   72   73 2    
   144   72   74 am   BACKBONE|DICT|INTERRES
   145   74   75 1    
   146   74  195 1    
   147   75   76 1    
   148   75   77 1    
   149   75  196 1    
   150   76  197 1    
   151   76  198 1    
   152   76  199 1    
   153   77   78 2    
   154   77   79 am   BACKBONE|DICT|INTERRES
   155   79   80 1    
   156   79  200 1    
   157   80   81 1    
   158   80   82 1    
   159   80  201 1    
   160   81  202 1    
   161   81  203 1    
   162   81  204 1    
   163   82   83 2    
   164   82   84 am   BACKBONE|DICT|INTERRES
   165   84   85 1    
   166   84  205 1    
   167   85   86 1    
   168   85   87 1    
   169   85  206 1    
   170   86  207 1    
   171   86  208 1    
   172   86  209 1    
   173   87   88 2    
   174   87   89 am   BACKBONE|DICT|INTERRES
   175   89   90 1    
   176   89  210 1    
   177   90   91 1    
   178   90   92 1    
   179   90  211 1    
   180   91  212 1    
   181   91  213 1    
   182   91  214 1    
   183   92   93 2    
   184   92   94 am   BACKBONE|DICT|INTERRES
   185   94   95 1    
   186   94  215 1    
   187   95   96 1    
   188   95   97 1    
   189   95  216 1    
   190   96  217 1    
   191   96  218 1    
   192   96  219 1    
   193   97   98 2    
   194   97   99 am   BACKBONE|DICT|INTERRES
   195   99  100 1    
   196   99  220 1    
   197  100  101 1    
   198  100  102 1    
   199  100  221 1    
   200  101  222 1    
   201  101  223 1    
   202  101  224 1    
   203  102  103 2    
   204  102  104 am   BACKBONE|DICT|INTERRES
   205  104  105 1    
   206  104  225 1    
   207  105  106 1    
   208  105  107 1    
   209  105  226 1    
   210  106  227 1    
   211  106  228 1    
   212  106  229 1    
   213  107  108 2    
   214  107  109 am   BACKBONE|DICT|INTERRES
   215  109  110 1    
   216  109  230 1    
   217  110  111 1    
   218  110  112 1    
   219  110  231 1    
   220  111  232 1    
   221  111  233 1    
   222  111  234 1    
   223  112  113 2    
   224  112  114 am   BACKBONE|DICT|INTERRES
   225  114  115 1    
   226  114  235 1    
   227  115  116 1    
   228  115  117 1    
   229  115  236 1    
   230  116  237 1    
   231  116  238 1    
   232  116  239 1    
   233  117  118 2    
   234  117  119 am   BACKBONE|DICT|INTERRES
   235  119  120 1    
   236  119  240 1    
   237  120  121 1    
   238  120  124 1    
   239  120  241 1    
   240  121  122 am   BACKBONE|DICT|INTERRES
   241  121  123 2    
   242  122  242 1    
   243  122  243 1    
   244  124  125 1    
   245  124  244 1    
   246  124  245 1    
   247  125  126 1    
   248  126  246 1    
   249  126  247 1    
@<TRIPOS>SUBSTRUCTURE
     1 UNK         1 GROUP             0       ****    0 ROOT    
