@<TRIPOS>MOLECULE
3R540
247   249    1
SMALL
USER_CHARGES


@<TRIPOS>ATOM
      1 CA         -4.8440  -15.5917  -46.6121 C.3       0 UNK        -0.1800 
      2 C          -3.4461  -15.1502  -46.2053 C.2       0 UNK         0.5000 
      3 O          -3.2992  -14.3441  -45.2868 O.2       0 UNK        -0.5000 
      4 N          -2.4154  -15.6895  -46.8700 N.am      1 UNK        -0.5000 
      5 CA         -0.9989  -15.3634  -46.6546 C.3       1 UNK         0.1400 
      6 C6         -0.0769  -16.0371  -47.6972 C.3       23 UNK        -0.0398 
      7 S7         -0.4337  -15.4612  -49.3884 S.3       23 UNK        -0.2404 
      8 C8          1.0897  -15.9408  -50.2590 C.3       23 UNK        -0.0205 
      9 C9          0.9934  -17.3470  -50.8310 C.ar      23 UNK        -0.0193 
     10 C10         0.4823  -17.5369  -52.1164 C.ar      23 UNK        -0.1150 
     11 C11         0.4266  -18.8119  -52.6846 C.ar      23 UNK        -0.0193 
     12 C12         0.8647  -19.9082  -51.9317 C.ar      23 UNK        -0.1150 
     13 C13         1.3813  -19.7411  -50.6417 C.ar      23 UNK        -0.0193 
     14 C14         1.4436  -18.4500  -50.1010 C.ar      23 UNK        -0.1150 
     15 C15         1.9130  -20.9723  -49.9010 C.3       23 UNK        -0.0205 
     16 S16         2.0230  -20.8399  -48.0806 S.3       23 UNK        -0.2404 
     17 C17         0.2674  -20.7143  -47.6073 C.3       23 UNK        -0.0398 
     18 CA         -0.3424  -22.0606  -47.1469 C.3       11 UNK         0.1400 
     19 N           0.3870  -22.6430  -46.0124 N.am      11 UNK        -0.5000 
     20 C           0.3322  -23.9307  -45.6369 C.2       10 UNK         0.5000 
     21 O          -0.3750  -24.7780  -46.1778 O.2       10 UNK        -0.5000 
     22 CA          1.1625  -24.3370  -44.4040 C.3       10 UNK         0.1400 
     23 CB          2.5906  -24.7159  -44.8236 C.3       10 UNK        -0.1800 
     24 N           1.2285  -23.3063  -43.3682 N.am      10 UNK        -0.5000 
     25 C           0.1827  -22.6903  -42.7990 C.2       9 UNK         0.5000 
     26 O          -0.9912  -22.9603  -43.0551 O.2       9 UNK        -0.5000 
     27 CA          0.4999  -21.5413  -41.8234 C.3       9 UNK         0.1400 
     28 CB          0.4153  -22.0350  -40.3721 C.3       9 UNK        -0.1800 
     29 N           1.8049  -20.9044  -42.0408 N.am      9 UNK        -0.5000 
     30 C           2.2144  -20.3164  -43.1746 C.2       8 UNK         0.5000 
     31 O           1.5274  -20.2410  -44.1975 O.2       8 UNK        -0.5000 
     32 CA          3.6697  -19.8103  -43.1691 C.3       8 UNK         0.1400 
     33 CB          4.6431  -20.9958  -43.2820 C.3       8 UNK        -0.1800 
     34 N           3.9452  -18.8868  -44.2669 N.am      8 UNK        -0.5000 
     35 C           3.5017  -17.6279  -44.3408 C.2       7 UNK         0.5000 
     36 O           2.8590  -17.0686  -43.4477 O.2       7 UNK        -0.5000 
     37 CA          3.8512  -16.8734  -45.6325 C.3       7 UNK         0.1400 
     38 CB          3.2538  -17.5628  -46.8707 C.3       7 UNK        -0.1800 
     39 N           3.3518  -15.5079  -45.5405 N.am      7 UNK        -0.5000 
     40 C           3.8740  -14.4390  -46.1530 C.2       6 UNK         0.5000 
     41 O           4.8294  -14.4946  -46.9280 O.2       6 UNK        -0.5000 
     42 CA          3.2265  -13.0754  -45.8502 C.3       6 UNK         0.1400 
     43 CB          2.2795  -12.6644  -46.9890 C.3       6 UNK        -0.1800 
     44 N           2.4689  -13.1017  -44.6019 N.am      6 UNK        -0.5000 
     45 C           2.9656  -12.8768  -43.3798 C.2       5 UNK         0.5000 
     46 O           4.1338  -12.5471  -43.1672 O.2       5 UNK        -0.5000 
     47 CA          1.9783  -13.0686  -42.2073 C.3       5 UNK         0.1400 
     48 CB          2.3930  -12.3095  -40.9300 C.3       5 UNK        -0.1800 
     49 N           0.5920  -12.7649  -42.5823 N.am      5 UNK        -0.5000 
     50 C           0.0858  -11.5844  -42.9732 C.2       4 UNK         0.5000 
     51 O           0.7225  -10.5304  -42.9827 O.2       4 UNK        -0.5000 
     52 CA         -1.3736  -11.5810  -43.4745 C.3       4 UNK         0.1400 
     53 CB         -1.4045  -11.4451  -45.0050 C.3       4 UNK        -0.1800 
     54 N          -2.1231  -12.7813  -43.0991 N.am      4 UNK        -0.5000 
     55 C          -2.5493  -13.0650  -41.8610 C.2       3 UNK         0.5000 
     56 O          -2.4131  -12.3102  -40.8977 O.2       3 UNK        -0.5000 
     57 CA         -3.2040  -14.4427  -41.6643 C.3       3 UNK         0.1400 
     58 CB         -4.7019  -14.3902  -42.0020 C.3       3 UNK        -0.1800 
     59 N          -2.5584  -15.4774  -42.4745 N.am      3 UNK        -0.5000 
     60 C          -1.3614  -16.0188  -42.2064 C.2       2 UNK         0.5000 
     61 O          -0.6696  -15.7063  -41.2378 O.2       2 UNK        -0.5000 
     62 CA         -0.8469  -17.0742  -43.2025 C.3       2 UNK         0.1400 
     63 CB         -1.5025  -18.4314  -42.9180 C.3       2 UNK        -0.1800 
     64 N          -1.1031  -16.7036  -44.5936 N.am      2 UNK        -0.5000 
     65 C          -0.5133  -15.6803  -45.2260 C.2       1 UNK         0.5000 
     66 O           0.3577  -14.9736  -44.7200 O.2       1 UNK        -0.5000 
     67 C          -1.8536  -21.8822  -46.8769 C.2       11 UNK         0.5000 
     68 O          -2.5952  -21.6063  -47.8230 O.2       11 UNK        -0.5000 
     69 N          -2.2811  -22.0189  -45.6139 N.am      12 UNK        -0.5000 
     70 CA         -3.6834  -22.0198  -45.2030 C.3       12 UNK         0.1400 
     71 CB         -3.8696  -21.0624  -44.0176 C.3       12 UNK        -0.1800 
     72 C          -4.1516  -23.4391  -44.8414 C.2       12 UNK         0.5000 
     73 O          -5.2890  -23.7888  -45.1563 O.2       12 UNK        -0.5000 
     74 N          -3.2752  -24.2357  -44.2073 N.am      13 UNK        -0.5000 
     75 CA         -3.5173  -25.6359  -43.8437 C.3       13 UNK         0.1400 
     76 CB         -2.3457  -26.1569  -42.9981 C.3       13 UNK        -0.1800 
     77 C          -3.7503  -26.5305  -45.0755 C.2       13 UNK         0.5000 
     78 O          -4.7110  -27.3009  -45.0998 O.2       13 UNK        -0.5000 
     79 N          -2.9044  -26.3555  -46.0961 N.am      14 UNK        -0.5000 
     80 CA         -3.1675  -26.7491  -47.4724 C.3       14 UNK         0.1400 
     81 CB         -1.9520  -27.5082  -48.0301 C.3       14 UNK        -0.1800 
     82 C          -3.4036  -25.4212  -48.1978 C.2       14 UNK         0.5000 
     83 O          -2.4436  -24.6803  -48.4040 O.2       14 UNK        -0.5000 
     84 N          -4.6770  -25.1013  -48.4652 N.am      15 UNK        -0.5000 
     85 CA         -5.2146  -23.7772  -48.8140 C.3       15 UNK         0.1400 
     86 CB         -6.7466  -23.8361  -48.6886 C.3       15 UNK        -0.1800 
     87 C          -4.7518  -23.1740  -50.1634 C.2       15 UNK         0.5000 
     88 O          -5.5605  -22.6402  -50.9249 O.2       15 UNK        -0.5000 
     89 N          -3.4447  -23.2305  -50.4201 N.am      16 UNK        -0.5000 
     90 CA         -2.7364  -22.6740  -51.5650 C.3       16 UNK         0.1400 
     91 CB         -1.2607  -23.0787  -51.4514 C.3       16 UNK        -0.1800 
     92 C          -2.8796  -21.1467  -51.6798 C.2       16 UNK         0.5000 
     93 O          -3.0053  -20.6397  -52.7939 O.2       16 UNK        -0.5000 
     94 N          -2.9099  -20.4432  -50.5379 N.am      17 UNK        -0.5000 
     95 CA         -3.1277  -18.9959  -50.4872 C.3       17 UNK         0.1400 
     96 CB         -2.7960  -18.4667  -49.0854 C.3       17 UNK        -0.1800 
     97 C          -4.5588  -18.5901  -50.8880 C.2       17 UNK         0.5000 
     98 O          -4.7403  -17.5217  -51.4714 O.2       17 UNK        -0.5000 
     99 N          -5.5427  -19.4502  -50.5853 N.am      18 UNK        -0.5000 
    100 CA        -6.9417  -19.2661  -50.9759 C.3       18 UNK         0.1400 
    101 CB        -7.8511  -20.1166  -50.0777 C.3       18 UNK        -0.1800 
    102 C         -7.1647  -19.6090  -52.4589 C.2       18 UNK         0.5000 
    103 O         -7.9399  -18.9245  -53.1277 O.2       18 UNK        -0.5000 
    104 N         -6.4621  -20.6413  -52.9516 N.am      19 UNK        -0.5000 
    105 CA        -6.4162  -21.0179  -54.3667 C.3       19 UNK         0.1400 
    106 CB        -5.6926  -22.3648  -54.5151 C.3       19 UNK        -0.1800 
    107 C         -5.7435  -19.9416  -55.2410 C.2       19 UNK         0.5000 
    108 O         -6.1416  -19.7576  -56.3913 O.2       19 UNK        -0.5000 
    109 N         -4.7437  -19.2527  -54.6713 N.am      20 UNK        -0.5000 
    110 CA        -4.0162  -18.0740  -55.1585 C.3       20 UNK         0.1400 
    111 CB        -4.9757  -16.8969  -55.4138 C.3       20 UNK        -0.1800 
    112 C         -3.0966  -18.3168  -56.3706 C.2       20 UNK         0.5000 
    113 O         -2.0682  -17.6491  -56.4794 O.2       20 UNK        -0.5000 
    114 N         -3.4551  -19.2614  -57.2475 N.am      21 UNK        -0.5000 
    115 CA        -2.6405  -19.7019  -58.3796 C.3       21 UNK         0.1400 
    116 CB        -3.5157  -20.5144  -59.3465 C.3       21 UNK        -0.1800 
    117 C         -1.4155  -20.5208  -57.9305 C.2       21 UNK         0.5000 
    118 O         -0.3388  -20.3481  -58.5028 O.2       21 UNK        -0.5000 
    119 N         -1.6226  -21.3686  -56.9091 N.am      22 UNK        -0.5000 
    120 CA        -0.6566  -22.2691  -56.2529 C.3       22 UNK         0.1400 
    121 C          0.3385  -23.0035  -57.2055 C.2       22 UNK         0.5000 
    122 N          1.6398  -22.9857  -56.9463 N.am      22 UNK        -0.7600 
    123 O         -0.0828  -23.6517  -58.1609 O.2       22 UNK        -0.5000 
    124 C124       -0.0475  -21.6711  -54.9512 C.3       23 UNK        -0.0398 
    125 S125        0.8680  -20.1023  -55.1538 S.3       23 UNK        -0.2404 
    126 C126       -0.1082  -18.9664  -54.1075 C.3       23 UNK        -0.0205 
    127 H127       -4.8210  -16.3239  -47.4196 H         1 UNK         0.0600 
    128 H128       -5.4237  -14.7321  -46.9480 H         1 UNK         0.0600 
    129 H129       -5.3576  -16.0386  -45.7610 H         1 UNK         0.0600 
    130 H130       -2.6002  -16.3252  -47.6312 H         1 UNK         0.3000 
    131 H131       -0.9044  -14.2829  -46.7776 H         1 UNK         0.0600 
    132 H132        0.9657  -15.8025  -47.4779 H         1 UNK         0.0800 
    133 H133       -0.1671  -17.1239  -47.6616 H         1 UNK         0.0800 
    134 H134        1.2612  -15.2302  -51.0689 H         1 UNK         0.0800 
    135 H135        1.9547  -15.8518  -49.6004 H         1 UNK         0.0800 
    136 H136        0.1408  -16.6815  -52.6824 H         1 UNK         0.1150 
    137 H137        0.8314  -20.8974  -52.3616 H         1 UNK         0.1150 
    138 H138        1.8559  -18.2936  -49.1174 H         1 UNK         0.1150 
    139 H139        1.3058  -21.8442  -50.1428 H         1 UNK         0.0800 
    140 H140        2.9124  -21.1847  -50.2823 H         1 UNK         0.0800 
    141 H141       -0.2877  -20.3177  -48.4574 H         1 UNK         0.0800 
    142 H142        0.1878  -19.9683  -46.8142 H         1 UNK         0.0800 
    143 H143       -0.2649  -22.7617  -47.9808 H         1 UNK         0.0600 
    144 H144        0.9677  -22.0015  -45.4851 H         1 UNK         0.3000 
    145 H145        0.6932  -25.2163  -43.9609 H         1 UNK         0.0600 
    146 H146        3.1650  -25.0926  -43.9771 H         1 UNK         0.0600 
    147 H147        2.5795  -25.5002  -45.5818 H         1 UNK         0.0600 
    148 H148        3.1267  -23.8627  -45.2415 H         1 UNK         0.0600 
    149 H149        2.1519  -23.0096  -43.0919 H         1 UNK         0.3000 
    150 H150       -0.2686  -20.7842  -41.9675 H         1 UNK         0.0600 
    151 H151        1.1825  -22.7791  -40.1546 H         1 UNK         0.0600 
    152 H152       -0.5538  -22.4940  -40.1709 H         1 UNK         0.0600 
    153 H153        0.5346  -21.2118  -39.6673 H         1 UNK         0.0600 
    154 H154        2.4420  -20.9337  -41.2577 H         1 UNK         0.3000 
    155 H155        3.8516  -19.2915  -42.2255 H         1 UNK         0.0600 
    156 H156        4.4892  -21.5564  -44.2053 H         1 UNK         0.0600 
    157 H157        4.5209  -21.6918  -42.4513 H         1 UNK         0.0600 
    158 H158        5.6794  -20.6575  -43.2652 H         1 UNK         0.0600 
    159 H159        4.4320  -19.2765  -45.0602 H         1 UNK         0.3000 
    160 H160        4.9396  -16.8509  -45.7185 H         1 UNK         0.0600 
    161 H161        2.1879  -17.7549  -46.7450 H         1 UNK         0.0600 
    162 H162        3.7375  -18.5218  -47.0561 H         1 UNK         0.0600 
    163 H163        3.3897  -16.9598  -47.7683 H         1 UNK         0.0600 
    164 H164        2.5935  -15.3816  -44.8789 H         1 UNK         0.3000 
    165 H165        4.0231  -12.3320  -45.7780 H         1 UNK         0.0600 
    166 H166        1.8473  -11.6806  -46.8050 H         1 UNK         0.0600 
    167 H167        2.8103  -12.6140  -47.9406 H         1 UNK         0.0600 
    168 H168        1.4593  -13.3721  -47.1079 H         1 UNK         0.0600 
    169 H169        1.5204  -13.4602  -44.6604 H         1 UNK         0.3000 
    170 H170        1.9958  -14.1347  -41.9750 H         1 UNK         0.0600 
    171 H171        3.3597  -12.6589  -40.5658 H         1 UNK         0.0600 
    172 H172        2.4793  -11.2367  -41.1033 H         1 UNK         0.0600 
    173 H173        1.6704  -12.4639  -40.1287 H         1 UNK         0.0600 
    174 H174       -0.0192  -13.5679  -42.6413 H         1 UNK         0.3000 
    175 H175       -1.8723  -10.7122  -43.0402 H         1 UNK         0.0600 
    176 H176       -0.9162  -10.5244  -45.3267 H         1 UNK         0.0600 
    177 H177       -0.8901  -12.2746  -45.4901 H         1 UNK         0.0600 
    178 H178       -2.4278  -11.4193  -45.3802 H         1 UNK         0.0600 
    179 H179       -2.3502  -13.4302  -43.8476 H         1 UNK         0.3000 
    180 H180       -3.1030  -14.7143  -40.6112 H         1 UNK         0.0600 
    181 H181       -4.8733  -14.1286  -43.0467 H         1 UNK         0.0600 
    182 H182       -5.2129  -13.6459  -41.3900 H         1 UNK         0.0600 
    183 H183       -5.1822  -15.3505  -41.8136 H         1 UNK         0.0600 
    184 H184       -3.0332  -15.7427  -43.3252 H         1 UNK         0.3000 
    185 H185        0.2309  -17.1764  -43.0644 H         1 UNK         0.0600 
    186 H186       -1.3099  -18.7429  -41.8912 H         1 UNK         0.0600 
    187 H187       -2.5843  -18.3874  -43.0439 H         1 UNK         0.0600 
    188 H188       -1.1147  -19.2054  -43.5810 H         1 UNK         0.0600 
    189 H189       -1.8148  -17.2255  -45.0821 H         1 UNK         0.3000 
    190 H190       -1.6047  -22.2487  -44.8961 H         1 UNK         0.3000 
    191 H191       -4.3198  -21.6649  -46.0162 H         1 UNK         0.0600 
    192 H192       -3.6607  -20.0367  -44.3184 H         1 UNK         0.0600 
    193 H193       -4.8961  -21.0883  -43.6497 H         1 UNK         0.0600 
    194 H194       -3.2131  -21.3120  -43.1833 H         1 UNK         0.0600 
    195 H195       -2.3860  -23.8436  -43.9112 H         1 UNK         0.3000 
    196 H196       -4.4204  -25.6673  -43.2309 H         1 UNK         0.0600 
    197 H197       -2.5307  -27.1786  -42.6642 H         1 UNK         0.0600 
    198 H198       -2.1965  -25.5445  -42.1086 H         1 UNK         0.0600 
    199 H199       -1.4139  -26.1606  -43.5629 H         1 UNK         0.0600 
    200 H200       -2.1447  -25.6866  -45.9953 H         1 UNK         0.3000 
    201 H201       -4.0528  -27.3830  -47.5552 H         1 UNK         0.0600 
    202 H202       -2.1043  -27.7688  -49.0780 H         1 UNK         0.0600 
    203 H203       -1.7862  -28.4358  -47.4824 H         1 UNK         0.0600 
    204 H204       -1.0369  -26.9176  -47.9665 H         1 UNK         0.0600 
    205 H205       -5.3795  -25.7979  -48.2637 H         1 UNK         0.3000 
    206 H206       -4.8608  -23.0867  -48.0470 H         1 UNK         0.0600 
    207 H207       -7.0488  -24.2182  -47.7131 H         1 UNK         0.0600 
    208 H208       -7.1877  -22.8451  -48.7869 H         1 UNK         0.0600 
    209 H209       -7.1884  -24.4751  -49.4541 H         1 UNK         0.0600 
    210 H210       -2.8701  -23.6815  -49.7069 H         1 UNK         0.3000 
    211 H211       -3.1534  -23.1220  -52.4683 H         1 UNK         0.0600 
    212 H212       -0.8161  -22.6909  -50.5350 H         1 UNK         0.0600 
    213 H213       -0.6767  -22.7047  -52.2892 H         1 UNK         0.0600 
    214 H214       -1.1505  -24.1633  -51.4398 H         1 UNK         0.0600 
    215 H215       -2.8174  -20.9304  -49.6503 H         1 UNK         0.3000 
    216 H216       -2.4418  -18.5240  -51.1948 H         1 UNK         0.0600 
    217 H217       -2.9962  -17.3973  -49.0277 H         1 UNK         0.0600 
    218 H218       -1.7424  -18.6095  -48.8532 H         1 UNK         0.0600 
    219 H219       -3.3879  -18.9594  -48.3131 H         1 UNK         0.0600 
    220 H220       -5.3039  -20.3259  -50.1433 H         1 UNK         0.3000 
    221 H221       -7.2083  -18.2175  -50.8263 H         1 UNK         0.0600 
    222 H222       -7.7194  -21.1811  -50.2667 H         1 UNK         0.0600 
    223 H223       -7.6568  -19.9310  -49.0213 H         1 UNK         0.0600 
    224 H224       -8.9006  -19.8843  -50.2624 H         1 UNK         0.0600 
    225 H225       -5.9128  -21.2034  -52.3098 H         1 UNK         0.3000 
    226 H226       -7.4434  -21.1395  -54.7163 H         1 UNK         0.0600 
    227 H227       -5.7117  -22.7045  -55.5513 H         1 UNK         0.0600 
    228 H228       -4.6480  -22.2974  -54.2126 H         1 UNK         0.0600 
    229 H229       -6.1673  -23.1373  -53.9097 H         1 UNK         0.0600 
    230 H230       -4.4186  -19.5940  -53.7725 H         1 UNK         0.3000 
    231 H231       -3.3620  -17.7854  -54.3340 H         1 UNK         0.0600 
    232 H232       -5.6574  -17.0982  -56.2405 H         1 UNK         0.0600 
    233 H233       -4.4219  -15.9906  -55.6617 H         1 UNK         0.0600 
    234 H234       -5.5744  -16.6806  -54.5286 H         1 UNK         0.0600 
    235 H235       -4.3615  -19.7000  -57.1179 H         1 UNK         0.3000 
    236 H236       -2.2790  -18.8175  -58.9087 H         1 UNK         0.0600 
    237 H237       -4.3461  -19.9165  -59.7226 H         1 UNK         0.0600 
    238 H238       -2.9375  -20.8472  -60.2095 H         1 UNK         0.0600 
    239 H239       -3.9316  -21.4015  -58.8672 H         1 UNK         0.0600 
    240 H240       -2.5597  -21.4080  -56.5387 H         1 UNK         0.3000 
    241 H241       -1.2839  -23.0911  -55.9051 H         1 UNK         0.0600 
    242 H242        2.0119  -22.4309  -56.1912 H         1 UNK         0.3800 
    243 H243        2.2700  -23.4812  -57.5576 H         1 UNK         0.3800 
    244 H244       -0.8604  -21.5083  -54.2452 H         1 UNK         0.0800 
    245 H245        0.6064  -22.3958  -54.4642 H         1 UNK         0.0800 
    246 H246       -0.1012  -17.9961  -54.6059 H         1 UNK         0.0800 
    247 H247       -1.1532  -19.2723  -54.0743 H         1 UNK         0.0800 
@<TRIPOS>BOND
     1    1    2 1    
     2    1  127 1    
     3    1  128 1    
     4    1  129 1    
     5    2    3 2    
     6    2    4 am   BACKBONE|DICT|INTERRES
     7    4    5 1    
     8    4  130 1    
     9    5    6 1    
    10    5   65 1    
    11    5  131 1    
    12    6    7 1    
    13    6  132 1    
    14    6  133 1    
    15    7    8 1    
    16    8    9 1    
    17    8  134 1    
    18    8  135 1    
    19    9   10 ar   
    20    9   14 ar   
    21   10   11 ar   
    22   10  136 1    
    23   11   12 ar   
    24   11  126 1    
    25   12   13 ar   
    26   12  137 1    
    27   13   14 ar   
    28   13   15 1    
    29   14  138 1    
    30   15   16 1    
    31   15  139 1    
    32   15  140 1    
    33   16   17 1    
    34   17   18 1    
    35   17  141 1    
    36   17  142 1    
    37   18   19 1    
    38   18   67 1    
    39   18  143 1    
    40   19   20 am   BACKBONE|DICT|INTERRES
    41   19  144 1    
    42   20   21 2    
    43   20   22 1    
    44   22   23 1    
    45   22   24 1    
    46   22  145 1    
    47   23  146 1    
    48   23  147 1    
    49   23  148 1    
    50   24   25 am   BACKBONE|DICT|INTERRES
    51   24  149 1    
    52   25   26 2    
    53   25   27 1    
    54   27   28 1    
    55   27   29 1    
    56   27  150 1    
    57   28  151 1    
    58   28  152 1    
    59   28  153 1    
    60   29   30 am   BACKBONE|DICT|INTERRES
    61   29  154 1    
    62   30   31 2    
    63   30   32 1    
    64   32   33 1    
    65   32   34 1    
    66   32  155 1    
    67   33  156 1    
    68   33  157 1    
    69   33  158 1    
    70   34   35 am   BACKBONE|DICT|INTERRES
    71   34  159 1    
    72   35   36 2    
    73   35   37 1    
    74   37   38 1    
    75   37   39 1    
    76   37  160 1    
    77   38  161 1    
    78   38  162 1    
    79   38  163 1    
    80   39   40 am   BACKBONE|DICT|INTERRES
    81   39  164 1    
    82   40   41 2    
    83   40   42 1    
    84   42   43 1    
    85   42   44 1    
    86   42  165 1    
    87   43  166 1    
    88   43  167 1    
    89   43  168 1    
    90   44   45 am   BACKBONE|DICT|INTERRES
    91   44  169 1    
    92   45   46 2    
    93   45   47 1    
    94   47   48 1    
    95   47   49 1    
    96   47  170 1    
    97   48  171 1    
    98   48  172 1    
    99   48  173 1    
   100   49   50 am   BACKBONE|DICT|INTERRES
   101   49  174 1    
   102   50   51 2    
   103   50   52 1    
   104   52   53 1    
   105   52   54 1    
   106   52  175 1    
   107   53  176 1    
   108   53  177 1    
   109   53  178 1    
   110   54   55 am   BACKBONE|DICT|INTERRES
   111   54  179 1    
   112   55   56 2    
   113   55   57 1    
   114   57   58 1    
   115   57   59 1    
   116   57  180 1    
   117   58  181 1    
   118   58  182 1    
   119   58  183 1    
   120   59   60 am   BACKBONE|DICT|INTERRES
   121   59  184 1    
   122   60   61 2    
   123   60   62 1    
   124   62   63 1    
   125   62   64 1    
   126   62  185 1    
   127   63  186 1    
   128   63  187 1    
   129   63  188 1    
   130   64   65 am   BACKBONE|DICT|INTERRES
   131   64  189 1    
   132   65   66 2    
   133   67   68 2    
   134   67   69 am   BACKBONE|DICT|INTERRES
   135   69   70 1    
   136   69  190 1    
   137   70   71 1    
   138   70   72 1    
   139   70  191 1    
   140   71  192 1    
   141   71  193 1    
   142   71  194 1    
   143   72   73 2    
   144   72   74 am   BACKBONE|DICT|INTERRES
   145   74   75 1    
   146   74  195 1    
   147   75   76 1    
   148   75   77 1    
   149   75  196 1    
   150   76  197 1    
   151   76  198 1    
   152   76  199 1    
   153   77   78 2    
   154   77   79 am   BACKBONE|DICT|INTERRES
   155   79   80 1    
   156   79  200 1    
   157   80   81 1    
   158   80   82 1    
   159   80  201 1    
   160   81  202 1    
   161   81  203 1    
   162   81  204 1    
   163   82   83 2    
   164   82   84 am   BACKBONE|DICT|INTERRES
   165   84   85 1    
   166   84  205 1    
   167   85   86 1    
   168   85   87 1    
   169   85  206 1    
   170   86  207 1    
   171   86  208 1    
   172   86  209 1    
   173   87   88 2    
   174   87   89 am   BACKBONE|DICT|INTERRES
   175   89   90 1    
   176   89  210 1    
   177   90   91 1    
   178   90   92 1    
   179   90  211 1    
   180   91  212 1    
   181   91  213 1    
   182   91  214 1    
   183   92   93 2    
   184   92   94 am   BACKBONE|DICT|INTERRES
   185   94   95 1    
   186   94  215 1    
   187   95   96 1    
   188   95   97 1    
   189   95  216 1    
   190   96  217 1    
   191   96  218 1    
   192   96  219 1    
   193   97   98 2    
   194   97   99 am   BACKBONE|DICT|INTERRES
   195   99  100 1    
   196   99  220 1    
   197  100  101 1    
   198  100  102 1    
   199  100  221 1    
   200  101  222 1    
   201  101  223 1    
   202  101  224 1    
   203  102  103 2    
   204  102  104 am   BACKBONE|DICT|INTERRES
   205  104  105 1    
   206  104  225 1    
   207  105  106 1    
   208  105  107 1    
   209  105  226 1    
   210  106  227 1    
   211  106  228 1    
   212  106  229 1    
   213  107  108 2    
   214  107  109 am   BACKBONE|DICT|INTERRES
   215  109  110 1    
   216  109  230 1    
   217  110  111 1    
   218  110  112 1    
   219  110  231 1    
   220  111  232 1    
   221  111  233 1    
   222  111  234 1    
   223  112  113 2    
   224  112  114 am   BACKBONE|DICT|INTERRES
   225  114  115 1    
   226  114  235 1    
   227  115  116 1    
   228  115  117 1    
   229  115  236 1    
   230  116  237 1    
   231  116  238 1    
   232  116  239 1    
   233  117  118 2    
   234  117  119 am   BACKBONE|DICT|INTERRES
   235  119  120 1    
   236  119  240 1    
   237  120  121 1    
   238  120  124 1    
   239  120  241 1    
   240  121  122 am   BACKBONE|DICT|INTERRES
   241  121  123 2    
   242  122  242 1    
   243  122  243 1    
   244  124  125 1    
   245  124  244 1    
   246  124  245 1    
   247  125  126 1    
   248  126  246 1    
   249  126  247 1    
@<TRIPOS>SUBSTRUCTURE
     1 UNK         1 GROUP             0       ****    0 ROOT    
