@<TRIPOS>MOLECULE
3R540
247   249    1
SMALL
USER_CHARGES


@<TRIPOS>ATOM
      1 CA         -5.5934  -20.1029  -46.3044 C.3       0 UNK        -0.1800 
      2 C          -5.3089  -18.7337  -46.9044 C.2       0 UNK         0.5000 
      3 O          -6.1796  -18.1534  -47.5510 O.2       0 UNK        -0.5000 
      4 N          -4.0899  -18.2194  -46.6993 N.am      1 UNK        -0.5000 
      5 CA         -3.6266  -16.9286  -47.2254 C.3       1 UNK         0.1400 
      6 C6         -2.0889  -16.7970  -47.1468 C.3       23 UNK        -0.0398 
      7 S7         -1.2235  -18.0819  -48.1044 S.3       23 UNK        -0.2404 
      8 C8         -0.0297  -17.0739  -49.0373 C.3       23 UNK        -0.0205 
      9 C9          0.7944  -17.9371  -49.9777 C.ar      23 UNK        -0.0193 
     10 C10         0.5027  -17.9881  -51.3417 C.ar      23 UNK        -0.1150 
     11 C11         1.2302  -18.8081  -52.2081 C.ar      23 UNK        -0.0193 
     12 C12         2.2709  -19.5895  -51.6839 C.ar      23 UNK        -0.1150 
     13 C13         2.5589  -19.5635  -50.3159 C.ar      23 UNK        -0.0193 
     14 C14         1.8366  -18.7141  -49.4756 C.ar      23 UNK        -0.1150 
     15 C15         3.6117  -20.4895  -49.7260 C.3       23 UNK        -0.0205 
     16 S16         2.9529  -22.1637  -49.4142 S.3       23 UNK        -0.2404 
     17 C17         1.4090  -21.8158  -48.5013 C.3       23 UNK        -0.0398 
     18 CA          0.8562  -23.0649  -47.7801 C.3       11 UNK         0.1400 
     19 N           1.7005  -23.4837  -46.6601 N.am      11 UNK        -0.5000 
     20 C           1.6498  -24.6923  -46.0855 C.2       10 UNK         0.5000 
     21 O           0.9129  -25.6021  -46.4648 O.2       10 UNK        -0.5000 
     22 CA          2.5488  -24.9046  -44.8536 C.3       10 UNK         0.1400 
     23 CB          3.9883  -25.2293  -45.2805 C.3       10 UNK        -0.1800 
     24 N           2.5571  -23.7517  -43.9507 N.am      10 UNK        -0.5000 
     25 C           1.4845  -23.3137  -43.2772 C.2       9 UNK         0.5000 
     26 O           0.3750  -23.8385  -43.3420 O.2       9 UNK        -0.5000 
     27 CA          1.6656  -22.0571  -42.4113 C.3       9 UNK         0.1400 
     28 CB          2.1765  -22.4341  -41.0131 C.3       9 UNK        -0.1800 
     29 N           2.5467  -21.0409  -42.9860 N.am      9 UNK        -0.5000 
     30 C           2.4050  -20.4497  -44.1794 C.2       8 UNK         0.5000 
     31 O           1.5894  -20.8089  -45.0323 O.2       8 UNK        -0.5000 
     32 CA          3.3036  -19.2179  -44.4189 C.3       8 UNK         0.1400 
     33 CB          3.2235  -18.7078  -45.8657 C.3       8 UNK        -0.1800 
     34 N           2.9232  -18.1332  -43.5126 N.am      8 UNK        -0.5000 
     35 C           3.2216  -18.0766  -42.2047 C.2       7 UNK         0.5000 
     36 O           4.0040  -18.8557  -41.6574 O.2       7 UNK        -0.5000 
     37 CA          2.4880  -17.0226  -41.3481 C.3       7 UNK         0.1400 
     38 CB          3.3810  -15.7929  -41.1299 C.3       7 UNK        -0.1800 
     39 N           1.2099  -16.5936  -41.9207 N.am      7 UNK        -0.5000 
     40 C           0.1556  -17.3924  -42.1542 C.2       6 UNK         0.5000 
     41 O           0.0921  -18.5598  -41.7681 O.2       6 UNK        -0.5000 
     42 CA         -1.0082  -16.8167  -42.9908 C.3       6 UNK         0.1400 
     43 CB         -2.2607  -16.6371  -42.1212 C.3       6 UNK        -0.1800 
     44 N          -0.7055  -15.5491  -43.6637 N.am      6 UNK        -0.5000 
     45 C           0.2384  -15.3610  -44.5985 C.2       5 UNK         0.5000 
     46 O           0.9346  -16.2700  -45.0493 O.2       5 UNK        -0.5000 
     47 CA          0.4929  -13.9134  -45.0614 C.3       5 UNK         0.1400 
     48 CB         -0.1564  -13.6428  -46.4266 C.3       5 UNK        -0.1800 
     49 N           0.0397  -12.9068  -44.0971 N.am      5 UNK        -0.5000 
     50 C           0.6001  -12.6927  -42.8967 C.2       4 UNK         0.5000 
     51 O           1.5567  -13.3410  -42.4724 O.2       4 UNK        -0.5000 
     52 CA         -0.0143  -11.5873  -42.0153 C.3       4 UNK         0.1400 
     53 CB          0.7851  -10.2832  -42.1574 C.3       4 UNK        -0.1800 
     54 N          -1.4200  -11.3210  -42.3274 N.am      4 UNK        -0.5000 
     55 C          -2.4356  -12.1344  -42.0092 C.2       3 UNK         0.5000 
     56 O          -2.2927  -13.1664  -41.3504 O.2       3 UNK        -0.5000 
     57 CA         -3.8444  -11.7472  -42.5179 C.3       3 UNK         0.1400 
     58 CB         -3.8424  -10.6182  -43.5739 C.3       3 UNK        -0.1800 
     59 N          -4.5967  -12.9015  -43.0262 N.am      3 UNK        -0.5000 
     60 C          -4.2016  -13.7617  -43.9766 C.2       2 UNK         0.5000 
     61 O          -3.1012  -13.7033  -44.5302 O.2       2 UNK        -0.5000 
     62 CA         -5.2036  -14.8854  -44.3267 C.3       2 UNK         0.1400 
     63 CB         -6.5405  -14.3213  -44.8530 C.3       2 UNK        -0.1800 
     64 N          -4.6582  -15.8892  -45.2511 N.am      2 UNK        -0.5000 
     65 C          -4.2924  -15.7210  -46.5328 C.2       1 UNK         0.5000 
     66 O          -4.4496  -14.6823  -47.1754 O.2       1 UNK        -0.5000 
     67 C          -0.5912  -22.8306  -47.3115 C.2       11 UNK         0.5000 
     68 O          -1.5228  -23.2809  -47.9791 O.2       11 UNK        -0.5000 
     69 N          -0.7573  -22.1710  -46.1557 N.am      12 UNK        -0.5000 
     70 CA         -2.0579  -21.8850  -45.5514 C.3       12 UNK         0.1400 
     71 CB         -1.8726  -20.9685  -44.3331 C.3       12 UNK        -0.1800 
     72 C          -2.8439  -23.1587  -45.1839 C.2       12 UNK         0.5000 
     73 O          -4.0293  -23.2457  -45.5031 O.2       12 UNK        -0.5000 
     74 N          -2.1653  -24.1444  -44.5780 N.am      13 UNK        -0.5000 
     75 CA         -2.7276  -25.4521  -44.2246 C.3       13 UNK         0.1400 
     76 CB         -1.7371  -26.2127  -43.3306 C.3       13 UNK        -0.1800 
     77 C          -3.1041  -26.3068  -45.4495 C.2       13 UNK         0.5000 
     78 O          -4.0645  -27.0743  -45.3810 O.2       13 UNK        -0.5000 
     79 N          -2.3640  -26.1399  -46.5537 N.am      14 UNK        -0.5000 
     80 CA         -2.6402  -26.7672  -47.8478 C.3       14 UNK         0.1400 
     81 CB         -1.3419  -26.7936  -48.6711 C.3       14 UNK        -0.1800 
     82 C          -3.7667  -26.0659  -48.6365 C.2       14 UNK         0.5000 
     83 O          -4.1665  -26.5757  -49.6839 O.2       14 UNK        -0.5000 
     84 N          -4.2373  -24.9096  -48.1418 N.am      15 UNK        -0.5000 
     85 CA         -5.2039  -23.9960  -48.7591 C.3       15 UNK         0.1400 
     86 CB         -6.5857  -24.6623  -48.9202 C.3       15 UNK        -0.1800 
     87 C          -4.6821  -23.3580  -50.0644 C.2       15 UNK         0.5000 
     88 O          -5.4736  -22.9624  -50.9225 O.2       15 UNK        -0.5000 
     89 N          -3.3543  -23.2315  -50.1814 N.am      16 UNK        -0.5000 
     90 CA         -2.6542  -22.5812  -51.2834 C.3       16 UNK         0.1400 
     91 CB         -1.2698  -23.2327  -51.4350 C.3       16 UNK        -0.1800 
     92 C          -2.5921  -21.0675  -51.0113 C.2       16 UNK         0.5000 
     93 O          -1.5312  -20.5318  -50.6997 O.2       16 UNK        -0.5000 
     94 N          -3.7721  -20.4397  -51.0667 N.am      17 UNK        -0.5000 
     95 CA         -4.0471  -19.0406  -50.7557 C.3       17 UNK         0.1400 
     96 CB         -5.5685  -18.8341  -50.8408 C.3       17 UNK        -0.1800 
     97 C          -3.3190  -18.0125  -51.6463 C.2       17 UNK         0.5000 
     98 O          -2.8124  -18.3408  -52.7231 O.2       17 UNK        -0.5000 
     99 N          -3.3552  -16.7550  -51.1802 N.am      18 UNK        -0.5000 
    100 CA        -2.7343  -15.5608  -51.7625 C.3       18 UNK         0.1400 
    101 CB        -3.0036  -14.3710  -50.8285 C.3       18 UNK        -0.1800 
    102 C         -3.1595  -15.2220  -53.2044 C.2       18 UNK         0.5000 
    103 O         -2.4162  -14.5303  -53.9001 O.2       18 UNK        -0.5000 
    104 N         -4.3109  -15.7380  -53.6533 N.am      19 UNK        -0.5000 
    105 CA        -4.8535  -15.5964  -55.0092 C.3       19 UNK         0.1400 
    106 CB        -6.3703  -15.8539  -54.9513 C.3       19 UNK        -0.1800 
    107 C         -4.1450  -16.4910  -56.0577 C.2       19 UNK         0.5000 
    108 O         -4.7981  -16.9963  -56.9720 O.2       19 UNK        -0.5000 
    109 N         -2.8266  -16.6833  -55.8989 N.am      20 UNK        -0.5000 
    110 CA        -1.9176  -17.4926  -56.7204 C.3       20 UNK         0.1400 
    111 CB        -1.7635  -16.8772  -58.1263 C.3       20 UNK        -0.1800 
    112 C         -2.2792  -18.9935  -56.7677 C.2       20 UNK         0.5000 
    113 O         -1.8979  -19.6898  -57.7111 O.2       20 UNK        -0.5000 
    114 N         -2.9811  -19.4859  -55.7366 N.am      21 UNK        -0.5000 
    115 CA        -3.4767  -20.8634  -55.6483 C.3       21 UNK         0.1400 
    116 CB        -4.5661  -20.9353  -54.5707 C.3       21 UNK        -0.1800 
    117 C         -2.3700  -21.9121  -55.4135 C.2       21 UNK         0.5000 
    118 O         -2.6269  -23.1068  -55.5640 O.2       21 UNK        -0.5000 
    119 N         -1.1576  -21.4502  -55.0853 N.am      22 UNK        -0.5000 
    120 CA         0.0796  -22.2416  -55.0949 C.3       22 UNK         0.1400 
    121 C          0.6041  -22.6089  -56.5174 C.2       22 UNK         0.5000 
    122 N          0.0984  -22.0178  -57.5957 N.am      22 UNK        -0.7600 
    123 O          1.4799  -23.4601  -56.6447 O.2       22 UNK        -0.5000 
    124 C124        1.1782  -21.5850  -54.2190 C.3       23 UNK        -0.0398 
    125 S125        1.7295  -19.9378  -54.7947 S.3       23 UNK        -0.2404 
    126 C126        0.8143  -18.8153  -53.6814 C.3       23 UNK        -0.0205 
    127 H127       -4.8603  -20.3722  -45.5445 H         1 UNK         0.0600 
    128 H128       -5.5758  -20.8643  -47.0838 H         1 UNK         0.0600 
    129 H129       -6.5785  -20.1134  -45.8380 H         1 UNK         0.0600 
    130 H130       -3.4027  -18.7538  -46.1890 H         1 UNK         0.3000 
    131 H131       -3.9131  -16.8782  -48.2770 H         1 UNK         0.0600 
    132 H132       -1.7517  -16.8613  -46.1126 H         1 UNK         0.0800 
    133 H133       -1.7785  -15.8177  -47.5126 H         1 UNK         0.0800 
    134 H134        0.6322  -16.5602  -48.3382 H         1 UNK         0.0800 
    135 H135       -0.5589  -16.3014  -49.5959 H         1 UNK         0.0800 
    136 H136       -0.3155  -17.4086  -51.7352 H         1 UNK         0.1150 
    137 H137        2.8433  -20.2476  -52.3199 H         1 UNK         0.1150 
    138 H138        2.0492  -18.6922  -48.4182 H         1 UNK         0.1150 
    139 H139        4.0046  -20.0776  -48.7963 H         1 UNK         0.0800 
    140 H140        4.4608  -20.5633  -50.4069 H         1 UNK         0.0800 
    141 H141        1.5827  -21.0113  -47.7852 H         1 UNK         0.0800 
    142 H142        0.6821  -21.4351  -49.2223 H         1 UNK         0.0800 
    143 H143        0.8248  -23.8819  -48.5047 H         1 UNK         0.0600 
    144 H144        2.2880  -22.7725  -46.2491 H         1 UNK         0.3000 
    145 H145        2.1555  -25.7607  -44.3011 H         1 UNK         0.0600 
    146 H146        4.0123  -26.0965  -45.9419 H         1 UNK         0.0600 
    147 H147        4.6123  -25.4628  -44.4177 H         1 UNK         0.0600 
    148 H148        4.4492  -24.3970  -45.8138 H         1 UNK         0.0600 
    149 H149        3.4284  -23.2532  -43.8458 H         1 UNK         0.3000 
    150 H150        0.6837  -21.5957  -42.2948 H         1 UNK         0.0600 
    151 H151        3.1813  -22.8564  -41.0519 H         1 UNK         0.0600 
    152 H152        1.5257  -23.1740  -40.5449 H         1 UNK         0.0600 
    153 H153        2.2027  -21.5643  -40.3562 H         1 UNK         0.0600 
    154 H154        3.2210  -20.6276  -42.3513 H         1 UNK         0.3000 
    155 H155        4.3370  -19.5099  -44.2209 H         1 UNK         0.0600 
    156 H156        3.5213  -19.4880  -46.5656 H         1 UNK         0.0600 
    157 H157        3.8844  -17.8555  -46.0235 H         1 UNK         0.0600 
    158 H158        2.2101  -18.3985  -46.1240 H         1 UNK         0.0600 
    159 H159        2.2520  -17.4696  -43.8838 H         1 UNK         0.3000 
    160 H160        2.2819  -17.4757  -40.3764 H         1 UNK         0.0600 
    161 H161        2.9015  -15.0681  -40.4717 H         1 UNK         0.0600 
    162 H162        3.6090  -15.2909  -42.0712 H         1 UNK         0.0600 
    163 H163        4.3287  -16.0738  -40.6686 H         1 UNK         0.0600 
    164 H164        1.1706  -15.6385  -42.2529 H         1 UNK         0.3000 
    165 H165       -1.2338  -17.5535  -43.7639 H         1 UNK         0.0600 
    166 H166       -3.1125  -16.3144  -42.7169 H         1 UNK         0.0600 
    167 H167       -2.5417  -17.5741  -41.6385 H         1 UNK         0.0600 
    168 H168       -2.0998  -15.8986  -41.3353 H         1 UNK         0.0600 
    169 H169       -1.2465  -14.7440  -43.3751 H         1 UNK         0.3000 
    170 H170        1.5729  -13.8013  -45.1775 H         1 UNK         0.0600 
    171 H171        0.0887  -12.6438  -46.7874 H         1 UNK         0.0600 
    172 H172       -1.2423  -13.7245  -46.3834 H         1 UNK         0.0600 
    173 H173        0.2001  -14.3514  -47.1746 H         1 UNK         0.0600 
    174 H174       -0.7799  -12.3748  -44.3525 H         1 UNK         0.3000 
    175 H175        0.0548  -11.9177  -40.9766 H         1 UNK         0.0600 
    176 H176        1.8350  -10.4396  -41.9058 H         1 UNK         0.0600 
    177 H177        0.7460   -9.8952  -43.1761 H         1 UNK         0.0600 
    178 H178        0.4037   -9.5116  -41.4883 H         1 UNK         0.0600 
    179 H179       -1.6156  -10.4891  -42.8655 H         1 UNK         0.3000 
    180 H180       -4.3897  -11.3845  -41.6456 H         1 UNK         0.0600 
    181 H181       -3.2662  -10.8888  -44.4597 H         1 UNK         0.0600 
    182 H182       -3.4280   -9.6935  -43.1707 H         1 UNK         0.0600 
    183 H183       -4.8573  -10.3910  -43.9008 H         1 UNK         0.0600 
    184 H184       -5.4937  -13.0544  -42.5878 H         1 UNK         0.3000 
    185 H185       -5.4102  -15.4197  -43.3983 H         1 UNK         0.0600 
    186 H186       -7.0531  -13.7382  -44.0875 H         1 UNK         0.0600 
    187 H187       -6.3969  -13.6677  -45.7138 H         1 UNK         0.0600 
    188 H188       -7.2164  -15.1231  -45.1508 H         1 UNK         0.0600 
    189 H189       -4.4826  -16.7951  -44.8426 H         1 UNK         0.3000 
    190 H190        0.0624  -21.8091  -45.6754 H         1 UNK         0.3000 
    191 H191       -2.6433  -21.3409  -46.2954 H         1 UNK         0.0600 
    192 H192       -1.3468  -20.0522  -44.6032 H         1 UNK         0.0600 
    193 H193       -2.8350  -20.6818  -43.9079 H         1 UNK         0.0600 
    194 H194       -1.3017  -21.4601  -43.5460 H         1 UNK         0.0600 
    195 H195       -1.1959  -23.9868  -44.3094 H         1 UNK         0.3000 
    196 H196       -3.6405  -25.2795  -43.6509 H         1 UNK         0.0600 
    197 H197       -0.7871  -26.3824  -43.8394 H         1 UNK         0.0600 
    198 H198       -2.1355  -27.1864  -43.0425 H         1 UNK         0.0600 
    199 H199       -1.5320  -25.6618  -42.4126 H         1 UNK         0.0600 
    200 H200       -1.5783  -25.5035  -46.5212 H         1 UNK         0.3000 
    201 H201       -2.9549  -27.7990  -47.6790 H         1 UNK         0.0600 
    202 H202       -1.4928  -27.2938  -49.6284 H         1 UNK         0.0600 
    203 H203       -0.5534  -27.3328  -48.1459 H         1 UNK         0.0600 
    204 H204       -0.9767  -25.7881  -48.8816 H         1 UNK         0.0600 
    205 H205       -3.8336  -24.5754  -47.2755 H         1 UNK         0.3000 
    206 H206       -5.3217  -23.1724  -48.0542 H         1 UNK         0.0600 
    207 H207       -6.9209  -25.1056  -47.9825 H         1 UNK         0.0600 
    208 H208       -7.3380  -23.9317  -49.2195 H         1 UNK         0.0600 
    209 H209       -6.5745  -25.4455  -49.6783 H         1 UNK         0.0600 
    210 H210       -2.7738  -23.4839  -49.3850 H         1 UNK         0.3000 
    211 H211       -3.2015  -22.7399  -52.2151 H         1 UNK         0.0600 
    212 H212       -0.7450  -22.8156  -52.2903 H         1 UNK         0.0600 
    213 H213       -1.3555  -24.3069  -51.5994 H         1 UNK         0.0600 
    214 H214       -0.6445  -23.0781  -50.5564 H         1 UNK         0.0600 
    215 H215       -4.5792  -21.0076  -51.2927 H         1 UNK         0.3000 
    216 H216       -3.7264  -18.8771  -49.7258 H         1 UNK         0.0600 
    217 H217       -5.8550  -17.8269  -50.5361 H         1 UNK         0.0600 
    218 H218       -6.0970  -19.5249  -50.1831 H         1 UNK         0.0600 
    219 H219       -5.9381  -18.9898  -51.8554 H         1 UNK         0.0600 
    220 H220       -3.8498  -16.5923  -50.3171 H         1 UNK         0.3000 
    221 H221       -1.6577  -15.7210  -51.7876 H         1 UNK         0.0600 
    222 H222       -2.6040  -14.5513  -49.8301 H         1 UNK         0.0600 
    223 H223       -2.5320  -13.4619  -51.2042 H         1 UNK         0.0600 
    224 H224       -4.0713  -14.1702  -50.7307 H         1 UNK         0.0600 
    225 H225       -4.8365  -16.3253  -53.0237 H         1 UNK         0.3000 
    226 H226       -4.7056  -14.5635  -55.3306 H         1 UNK         0.0600 
    227 H227       -6.8556  -15.1947  -54.2313 H         1 UNK         0.0600 
    228 H228       -6.5913  -16.8835  -54.6667 H         1 UNK         0.0600 
    229 H229       -6.8395  -15.6710  -55.9188 H         1 UNK         0.0600 
    230 H230       -2.3935  -16.1867  -55.1290 H         1 UNK         0.3000 
    231 H231       -0.9440  -17.4386  -56.2314 H         1 UNK         0.0600 
    232 H232       -2.6841  -16.9554  -58.7053 H         1 UNK         0.0600 
    233 H233       -0.9785  -17.3808  -58.6917 H         1 UNK         0.0600 
    234 H234       -1.4921  -15.8232  -58.0677 H         1 UNK         0.0600 
    235 H235       -3.2024  -18.8724  -54.9619 H         1 UNK         0.3000 
    236 H236       -3.9421  -21.1137  -56.6040 H         1 UNK         0.0600 
    237 H237       -4.1894  -20.5913  -53.6125 H         1 UNK         0.0600 
    238 H238       -5.4208  -20.3121  -54.8343 H         1 UNK         0.0600 
    239 H239       -4.9328  -21.9541  -54.4390 H         1 UNK         0.0600 
    240 H240       -1.0429  -20.4532  -54.9916 H         1 UNK         0.3000 
    241 H241       -0.1570  -23.1994  -54.6280 H         1 UNK         0.0600 
    242 H242       -0.6108  -21.2976  -57.5217 H         1 UNK         0.3800 
    243 H243        0.4481  -22.2742  -58.5052 H         1 UNK         0.3800 
    244 H244        2.0535  -22.2344  -54.1656 H         1 UNK         0.0800 
    245 H245        0.8246  -21.4974  -53.1925 H         1 UNK         0.0800 
    246 H246        0.9250  -17.8019  -54.0697 H         1 UNK         0.0800 
    247 H247       -0.2495  -19.0492  -53.7404 H         1 UNK         0.0800 
@<TRIPOS>BOND
     1    1    2 1    
     2    1  127 1    
     3    1  128 1    
     4    1  129 1    
     5    2    3 2    
     6    2    4 am   BACKBONE|DICT|INTERRES
     7    4    5 1    
     8    4  130 1    
     9    5    6 1    
    10    5   65 1    
    11    5  131 1    
    12    6    7 1    
    13    6  132 1    
    14    6  133 1    
    15    7    8 1    
    16    8    9 1    
    17    8  134 1    
    18    8  135 1    
    19    9   10 ar   
    20    9   14 ar   
    21   10   11 ar   
    22   10  136 1    
    23   11   12 ar   
    24   11  126 1    
    25   12   13 ar   
    26   12  137 1    
    27   13   14 ar   
    28   13   15 1    
    29   14  138 1    
    30   15   16 1    
    31   15  139 1    
    32   15  140 1    
    33   16   17 1    
    34   17   18 1    
    35   17  141 1    
    36   17  142 1    
    37   18   19 1    
    38   18   67 1    
    39   18  143 1    
    40   19   20 am   BACKBONE|DICT|INTERRES
    41   19  144 1    
    42   20   21 2    
    43   20   22 1    
    44   22   23 1    
    45   22   24 1    
    46   22  145 1    
    47   23  146 1    
    48   23  147 1    
    49   23  148 1    
    50   24   25 am   BACKBONE|DICT|INTERRES
    51   24  149 1    
    52   25   26 2    
    53   25   27 1    
    54   27   28 1    
    55   27   29 1    
    56   27  150 1    
    57   28  151 1    
    58   28  152 1    
    59   28  153 1    
    60   29   30 am   BACKBONE|DICT|INTERRES
    61   29  154 1    
    62   30   31 2    
    63   30   32 1    
    64   32   33 1    
    65   32   34 1    
    66   32  155 1    
    67   33  156 1    
    68   33  157 1    
    69   33  158 1    
    70   34   35 am   BACKBONE|DICT|INTERRES
    71   34  159 1    
    72   35   36 2    
    73   35   37 1    
    74   37   38 1    
    75   37   39 1    
    76   37  160 1    
    77   38  161 1    
    78   38  162 1    
    79   38  163 1    
    80   39   40 am   BACKBONE|DICT|INTERRES
    81   39  164 1    
    82   40   41 2    
    83   40   42 1    
    84   42   43 1    
    85   42   44 1    
    86   42  165 1    
    87   43  166 1    
    88   43  167 1    
    89   43  168 1    
    90   44   45 am   BACKBONE|DICT|INTERRES
    91   44  169 1    
    92   45   46 2    
    93   45   47 1    
    94   47   48 1    
    95   47   49 1    
    96   47  170 1    
    97   48  171 1    
    98   48  172 1    
    99   48  173 1    
   100   49   50 am   BACKBONE|DICT|INTERRES
   101   49  174 1    
   102   50   51 2    
   103   50   52 1    
   104   52   53 1    
   105   52   54 1    
   106   52  175 1    
   107   53  176 1    
   108   53  177 1    
   109   53  178 1    
   110   54   55 am   BACKBONE|DICT|INTERRES
   111   54  179 1    
   112   55   56 2    
   113   55   57 1    
   114   57   58 1    
   115   57   59 1    
   116   57  180 1    
   117   58  181 1    
   118   58  182 1    
   119   58  183 1    
   120   59   60 am   BACKBONE|DICT|INTERRES
   121   59  184 1    
   122   60   61 2    
   123   60   62 1    
   124   62   63 1    
   125   62   64 1    
   126   62  185 1    
   127   63  186 1    
   128   63  187 1    
   129   63  188 1    
   130   64   65 am   BACKBONE|DICT|INTERRES
   131   64  189 1    
   132   65   66 2    
   133   67   68 2    
   134   67   69 am   BACKBONE|DICT|INTERRES
   135   69   70 1    
   136   69  190 1    
   137   70   71 1    
   138   70   72 1    
   139   70  191 1    
   140   71  192 1    
   141   71  193 1    
   142   71  194 1    
   143   72   73 2    
   144   72   74 am   BACKBONE|DICT|INTERRES
   145   74   75 1    
   146   74  195 1    
   147   75   76 1    
   148   75   77 1    
   149   75  196 1    
   150   76  197 1    
   151   76  198 1    
   152   76  199 1    
   153   77   78 2    
   154   77   79 am   BACKBONE|DICT|INTERRES
   155   79   80 1    
   156   79  200 1    
   157   80   81 1    
   158   80   82 1    
   159   80  201 1    
   160   81  202 1    
   161   81  203 1    
   162   81  204 1    
   163   82   83 2    
   164   82   84 am   BACKBONE|DICT|INTERRES
   165   84   85 1    
   166   84  205 1    
   167   85   86 1    
   168   85   87 1    
   169   85  206 1    
   170   86  207 1    
   171   86  208 1    
   172   86  209 1    
   173   87   88 2    
   174   87   89 am   BACKBONE|DICT|INTERRES
   175   89   90 1    
   176   89  210 1    
   177   90   91 1    
   178   90   92 1    
   179   90  211 1    
   180   91  212 1    
   181   91  213 1    
   182   91  214 1    
   183   92   93 2    
   184   92   94 am   BACKBONE|DICT|INTERRES
   185   94   95 1    
   186   94  215 1    
   187   95   96 1    
   188   95   97 1    
   189   95  216 1    
   190   96  217 1    
   191   96  218 1    
   192   96  219 1    
   193   97   98 2    
   194   97   99 am   BACKBONE|DICT|INTERRES
   195   99  100 1    
   196   99  220 1    
   197  100  101 1    
   198  100  102 1    
   199  100  221 1    
   200  101  222 1    
   201  101  223 1    
   202  101  224 1    
   203  102  103 2    
   204  102  104 am   BACKBONE|DICT|INTERRES
   205  104  105 1    
   206  104  225 1    
   207  105  106 1    
   208  105  107 1    
   209  105  226 1    
   210  106  227 1    
   211  106  228 1    
   212  106  229 1    
   213  107  108 2    
   214  107  109 am   BACKBONE|DICT|INTERRES
   215  109  110 1    
   216  109  230 1    
   217  110  111 1    
   218  110  112 1    
   219  110  231 1    
   220  111  232 1    
   221  111  233 1    
   222  111  234 1    
   223  112  113 2    
   224  112  114 am   BACKBONE|DICT|INTERRES
   225  114  115 1    
   226  114  235 1    
   227  115  116 1    
   228  115  117 1    
   229  115  236 1    
   230  116  237 1    
   231  116  238 1    
   232  116  239 1    
   233  117  118 2    
   234  117  119 am   BACKBONE|DICT|INTERRES
   235  119  120 1    
   236  119  240 1    
   237  120  121 1    
   238  120  124 1    
   239  120  241 1    
   240  121  122 am   BACKBONE|DICT|INTERRES
   241  121  123 2    
   242  122  242 1    
   243  122  243 1    
   244  124  125 1    
   245  124  244 1    
   246  124  245 1    
   247  125  126 1    
   248  126  246 1    
   249  126  247 1    
@<TRIPOS>SUBSTRUCTURE
     1 UNK         1 GROUP             0       ****    0 ROOT    
