@<TRIPOS>MOLECULE
3R540
247   249    1
SMALL
USER_CHARGES


@<TRIPOS>ATOM
      1 CA          2.8437  -12.0394  -50.6950 C.3       0 UNK        -0.1800 
      2 C           2.4409  -12.0560  -49.2272 C.2       0 UNK         0.5000 
      3 O           1.7041  -11.1730  -48.7890 O.2       0 UNK        -0.5000 
      4 N           2.9196  -13.0593  -48.4788 N.am      1 UNK        -0.5000 
      5 CA          2.6602  -13.2912  -47.0508 C.3       1 UNK         0.1400 
      6 C6          1.1803  -13.6249  -46.7220 C.3       23 UNK        -0.0398 
      7 S7          0.6379  -15.1427  -47.5694 S.3       23 UNK        -0.2404 
      8 C8         -0.7497  -14.5295  -48.5830 C.3       23 UNK        -0.0205 
      9 C9         -1.2923  -15.6142  -49.5060 C.ar      23 UNK        -0.0193 
     10 C10        -1.4227  -15.3858  -50.8818 C.ar      23 UNK        -0.1150 
     11 C11        -1.8714  -16.4040  -51.7321 C.ar      23 UNK        -0.0193 
     12 C12        -2.1790  -17.6559  -51.1941 C.ar      23 UNK        -0.1150 
     13 C13        -2.0620  -17.8932  -49.8235 C.ar      23 UNK        -0.0193 
     14 C14        -1.6428  -16.8628  -48.9844 C.ar      23 UNK        -0.1150 
     15 C15        -2.3378  -19.2745  -49.2606 C.3       23 UNK        -0.0205 
     16 S16        -0.9211  -20.3754  -49.5724 S.3       23 UNK        -0.2404 
     17 C17        -0.1333  -20.4097  -47.9215 C.3       23 UNK        -0.0398 
     18 CA         -0.2599  -21.7625  -47.1734 C.3       11 UNK         0.1400 
     19 N           0.2296  -21.6585  -45.7968 N.am      11 UNK        -0.5000 
     20 C           0.4049  -22.6966  -44.9668 C.2       10 UNK         0.5000 
     21 O           0.2135  -23.8693  -45.2853 O.2       10 UNK        -0.5000 
     22 CA          0.8019  -22.3652  -43.5189 C.3       10 UNK         0.1400 
     23 CB          2.2925  -22.0065  -43.4275 C.3       10 UNK        -0.1800 
     24 N          -0.0074  -21.2837  -42.9571 N.am      10 UNK        -0.5000 
     25 C          -1.3360  -21.3431  -42.7823 C.2       9 UNK         0.5000 
     26 O          -2.0154  -22.3402  -43.0288 O.2       9 UNK        -0.5000 
     27 CA         -2.0295  -20.0584  -42.2962 C.3       9 UNK         0.1400 
     28 CB         -1.8698  -19.8911  -40.7778 C.3       9 UNK        -0.1800 
     29 N          -1.5356  -18.8599  -42.9732 N.am      9 UNK        -0.5000 
     30 C          -1.6419  -18.6182  -44.2869 C.2       8 UNK         0.5000 
     31 O          -2.1964  -19.3738  -45.0836 O.2       8 UNK        -0.5000 
     32 CA         -0.9639  -17.3428  -44.8098 C.3       8 UNK         0.1400 
     33 CB         -1.8206  -16.0959  -44.5445 C.3       8 UNK        -0.1800 
     34 N           0.3691  -17.1610  -44.2439 N.am      8 UNK        -0.5000 
     35 C           1.4203  -17.9393  -44.5331 C.2       7 UNK         0.5000 
     36 O           1.3774  -18.8946  -45.3103 O.2       7 UNK        -0.5000 
     37 CA          2.7310  -17.6063  -43.7989 C.3       7 UNK         0.1400 
     38 CB          3.4526  -16.4475  -44.5043 C.3       7 UNK        -0.1800 
     39 N           2.5260  -17.2703  -42.3865 N.am      7 UNK        -0.5000 
     40 C           2.0203  -18.1124  -41.4740 C.2       6 UNK         0.5000 
     41 O           1.6882  -19.2714  -41.7213 O.2       6 UNK        -0.5000 
     42 CA          1.7953  -17.5517  -40.0583 C.3       6 UNK         0.1400 
     43 CB          3.1173  -17.4827  -39.2790 C.3       6 UNK        -0.1800 
     44 N           1.1398  -16.2403  -40.0337 N.am      6 UNK        -0.5000 
     45 C          -0.0529  -15.9596  -40.5789 C.2       5 UNK         0.5000 
     46 O          -0.7031  -16.7651  -41.2423 O.2       5 UNK        -0.5000 
     47 CA         -0.6302  -14.5474  -40.3630 C.3       5 UNK         0.1400 
     48 CB         -1.8607  -14.6184  -39.4460 C.3       5 UNK        -0.1800 
     49 N           0.3282  -13.6025  -39.7807 N.am      5 UNK        -0.5000 
     50 C           1.2838  -12.9052  -40.4111 C.2       4 UNK         0.5000 
     51 O           2.0205  -12.1385  -39.7893 O.2       4 UNK        -0.5000 
     52 CA          1.4512  -13.0279  -41.9454 C.3       4 UNK         0.1400 
     53 CB          0.5576  -12.0056  -42.6654 C.3       4 UNK        -0.1800 
     54 N           2.8422  -12.8155  -42.3471 N.am      4 UNK        -0.5000 
     55 C           3.8475  -13.6485  -42.0488 C.2       3 UNK         0.5000 
     56 O           3.6662  -14.7621  -41.5528 O.2       3 UNK        -0.5000 
     57 CA          5.2728  -13.1646  -42.3826 C.3       3 UNK         0.1400 
     58 CB          6.3243  -14.2841  -42.2748 C.3       3 UNK        -0.1800 
     59 N           5.3196  -12.5952  -43.7287 N.am      3 UNK        -0.5000 
     60 C           5.3568  -11.2893  -44.0260 C.2       2 UNK         0.5000 
     61 O           5.4119  -10.3946  -43.1822 O.2       2 UNK        -0.5000 
     62 CA          5.2823  -10.9207  -45.5229 C.3       2 UNK         0.1400 
     63 CB          6.6927  -10.7629  -46.1107 C.3       2 UNK        -0.1800 
     64 N           4.5350  -11.8980  -46.3220 N.am      2 UNK        -0.5000 
     65 C           3.2258  -12.1508  -46.1795 C.2       1 UNK         0.5000 
     66 O           2.4979  -11.5340  -45.4011 O.2       1 UNK        -0.5000 
     67 C          -1.6827  -22.3645  -47.2268 C.2       11 UNK         0.5000 
     68 O          -1.9186  -23.2854  -48.0113 O.2       11 UNK        -0.5000 
     69 N          -2.5952  -21.8607  -46.3842 N.am      12 UNK        -0.5000 
     70 CA         -3.9777  -22.3307  -46.2821 C.3       12 UNK         0.1400 
     71 CB         -4.7536  -21.4488  -45.2933 C.3       12 UNK        -0.1800 
     72 C          -4.0869  -23.8169  -45.8934 C.2       12 UNK         0.5000 
     73 O          -4.9452  -24.5190  -46.4276 O.2       12 UNK        -0.5000 
     74 N          -3.1990  -24.2718  -45.0008 N.am      13 UNK        -0.5000 
     75 CA         -3.0833  -25.6693  -44.5965 C.3       13 UNK         0.1400 
     76 CB         -2.2766  -25.7549  -43.2911 C.3       13 UNK        -0.1800 
     77 C          -2.4537  -26.5543  -45.6889 C.2       13 UNK         0.5000 
     78 O          -2.9894  -27.6240  -45.9820 O.2       13 UNK        -0.5000 
     79 N          -1.3156  -26.1161  -46.2443 N.am      14 UNK        -0.5000 
     80 CA         -0.4866  -26.9196  -47.1428 C.3       14 UNK         0.1400 
     81 CB          0.9568  -26.3922  -47.1132 C.3       14 UNK        -0.1800 
     82 C          -1.0006  -26.9726  -48.5907 C.2       14 UNK         0.5000 
     83 O          -1.0173  -28.0539  -49.1811 O.2       14 UNK        -0.5000 
     84 N          -1.3624  -25.8118  -49.1500 N.am      15 UNK        -0.5000 
     85 CA         -1.6561  -25.6386  -50.5750 C.3       15 UNK         0.1400 
     86 CB         -0.6996  -24.5759  -51.1422 C.3       15 UNK        -0.1800 
     87 C          -3.1087  -25.2213  -50.8450 C.2       15 UNK         0.5000 
     88 O          -3.5718  -25.3824  -51.9758 O.2       15 UNK        -0.5000 
     89 N          -3.7860  -24.6492  -49.8377 N.am      16 UNK        -0.5000 
     90 CA         -5.1423  -24.0893  -49.9052 C.3       16 UNK         0.1400 
     91 CB         -6.1866  -25.2108  -50.0829 C.3       16 UNK        -0.1800 
     92 C          -5.2602  -22.9809  -50.9729 C.2       16 UNK         0.5000 
     93 O          -6.2237  -22.9560  -51.7398 O.2       16 UNK        -0.5000 
     94 N          -4.2326  -22.1193  -51.0376 N.am      17 UNK        -0.5000 
     95 CA         -4.0329  -21.0665  -52.0411 C.3       17 UNK         0.1400 
     96 CB         -5.0980  -19.9563  -51.9005 C.3       17 UNK        -0.1800 
     97 C          -3.9392  -21.6220  -53.4746 C.2       17 UNK         0.5000 
     98 O          -4.5274  -21.0526  -54.3942 O.2       17 UNK        -0.5000 
     99 N          -3.2260  -22.7469  -53.6298 N.am      18 UNK        -0.5000 
    100 CA        -3.0829  -23.5311  -54.8626 C.3       18 UNK         0.1400 
    101 CB        -2.2760  -22.7447  -55.9179 C.3       18 UNK        -0.1800 
    102 C         -4.4479  -24.0269  -55.3865 C.2       18 UNK         0.5000 
    103 O         -4.7299  -23.9210  -56.5807 O.2       18 UNK        -0.5000 
    104 N         -5.2770  -24.5220  -54.4550 N.am      19 UNK        -0.5000 
    105 CA        -6.6880  -24.8819  -54.6256 C.3       19 UNK         0.1400 
    106 CB        -6.8388  -26.1082  -55.5502 C.3       19 UNK        -0.1800 
    107 C         -7.5469  -23.6728  -55.0603 C.2       19 UNK         0.5000 
    108 O         -8.2711  -23.7483  -56.0550 O.2       19 UNK        -0.5000 
    109 N         -7.4403  -22.5830  -54.2854 N.am      20 UNK        -0.5000 
    110 CA        -8.1502  -21.3069  -54.4230 C.3       20 UNK         0.1400 
    111 CB        -9.6451  -21.4904  -54.0869 C.3       20 UNK        -0.1800 
    112 C         -7.9142  -20.6136  -55.7819 C.2       20 UNK         0.5000 
    113 O         -8.8755  -20.2509  -56.4643 O.2       20 UNK        -0.5000 
    114 N         -6.6386  -20.4467  -56.1525 N.am      21 UNK        -0.5000 
    115 CA        -6.2201  -19.8522  -57.4241 C.3       21 UNK         0.1400 
    116 CB        -5.8751  -20.9780  -58.4128 C.3       21 UNK        -0.1800 
    117 C         -5.0386  -18.8742  -57.2921 C.2       21 UNK         0.5000 
    118 O         -4.9191  -17.9809  -58.1315 O.2       21 UNK        -0.5000 
    119 N         -4.1753  -19.0580  -56.2821 N.am      22 UNK        -0.5000 
    120 CA        -2.9098  -18.3247  -56.0703 C.3       22 UNK         0.1400 
    121 C         -1.8320  -18.5329  -57.1834 C.2       22 UNK         0.5000 
    122 N         -1.9593  -19.5228  -58.0589 N.am      22 UNK        -0.7600 
    123 O         -0.8365  -17.8155  -57.2336 O.2       22 UNK        -0.5000 
    124 C124       -3.1241  -16.8252  -55.6956 C.3       23 UNK        -0.0398 
    125 S125       -3.5795  -16.6224  -53.9401 S.3       23 UNK        -0.2404 
    126 C126       -1.9493  -16.1883  -53.2384 C.3       23 UNK        -0.0205 
    127 H127        3.4980  -12.8745  -50.9465 H         1 UNK         0.0600 
    128 H128        3.3688  -11.1135  -50.9297 H         1 UNK         0.0600 
    129 H129        1.9577  -12.1003  -51.3270 H         1 UNK         0.0600 
    130 H130        3.5119  -13.7484  -48.9207 H         1 UNK         0.3000 
    131 H131        3.2479  -14.1712  -46.7839 H         1 UNK         0.0600 
    132 H132        1.0563  -13.7955  -45.6513 H         1 UNK         0.0800 
    133 H133        0.5231  -12.7917  -46.9749 H         1 UNK         0.0800 
    134 H134       -1.5505  -14.1810  -47.9296 H         1 UNK         0.0800 
    135 H135       -0.4128  -13.6676  -49.1612 H         1 UNK         0.0800 
    136 H136       -1.1524  -14.4236  -51.2937 H         1 UNK         0.1150 
    137 H137       -2.4870  -18.4522  -51.8537 H         1 UNK         0.1150 
    138 H138       -1.5474  -17.0456  -47.9261 H         1 UNK         0.1150 
    139 H139       -2.5694  -19.2224  -48.1955 H         1 UNK         0.0800 
    140 H140       -3.2276  -19.6916  -49.7219 H         1 UNK         0.0800 
    141 H141       -0.5347  -19.6013  -47.3098 H         1 UNK         0.0800 
    142 H142        0.9224  -20.1686  -48.0520 H         1 UNK         0.0800 
    143 H143        0.3911  -22.4735  -47.6867 H         1 UNK         0.0600 
    144 H144        0.4348  -20.7238  -45.4591 H         1 UNK         0.3000 
    145 H145        0.6298  -23.2585  -42.9150 H         1 UNK         0.0600 
    146 H146        2.5992  -21.8646  -42.3911 H         1 UNK         0.0600 
    147 H147        2.9124  -22.8013  -43.8441 H         1 UNK         0.0600 
    148 H148        2.5218  -21.0897  -43.9714 H         1 UNK         0.0600 
    149 H149        0.4890  -20.4409  -42.6805 H         1 UNK         0.3000 
    150 H150       -3.0943  -20.1503  -42.5186 H         1 UNK         0.0600 
    151 H151       -2.4228  -19.0235  -40.4174 H         1 UNK         0.0600 
    152 H152       -2.2492  -20.7643  -40.2459 H         1 UNK         0.0600 
    153 H153       -0.8248  -19.7605  -40.4949 H         1 UNK         0.0600 
    154 H154       -1.0883  -18.1603  -42.3848 H         1 UNK         0.3000 
    155 H155       -0.8497  -17.4516  -45.8879 H         1 UNK         0.0600 
    156 H156       -1.9659  -15.9200  -43.4786 H         1 UNK         0.0600 
    157 H157       -2.8075  -16.2011  -44.9969 H         1 UNK         0.0600 
    158 H158       -1.3616  -15.2047  -44.9731 H         1 UNK         0.0600 
    159 H159        0.4756  -16.4458  -43.5416 H         1 UNK         0.3000 
    160 H160        3.3709  -18.4899  -43.8453 H         1 UNK         0.0600 
    161 H161        2.8877  -15.5172  -44.4340 H         1 UNK         0.0600 
    162 H162        3.5995  -16.6639  -45.5634 H         1 UNK         0.0600 
    163 H163        4.4364  -16.2787  -44.0694 H         1 UNK         0.0600 
    164 H164        2.8242  -16.3467  -42.0806 H         1 UNK         0.3000 
    165 H165        1.1362  -18.2489  -39.5371 H         1 UNK         0.0600 
    166 H166        2.9490  -17.1930  -38.2417 H         1 UNK         0.0600 
    167 H167        3.6146  -18.4535  -39.2675 H         1 UNK         0.0600 
    168 H168        3.8101  -16.7649  -39.7193 H         1 UNK         0.0600 
    169 H169        1.6195  -15.5092  -39.5292 H         1 UNK         0.3000 
    170 H170       -0.9691  -14.1800  -41.3324 H         1 UNK         0.0600 
    171 H171       -2.6199  -15.2852  -39.8577 H         1 UNK         0.0600 
    172 H172       -1.6033  -14.9888  -38.4528 H         1 UNK         0.0600 
    173 H173       -2.3230  -13.6379  -39.3294 H         1 UNK         0.0600 
    174 H174        0.2462  -13.4790  -38.7821 H         1 UNK         0.3000 
    175 H175        1.1714  -14.0279  -42.2760 H         1 UNK         0.0600 
    176 H176        0.8891  -10.9828  -42.4824 H         1 UNK         0.0600 
    177 H177        0.5579  -12.1713  -43.7418 H         1 UNK         0.0600 
    178 H178       -0.4786  -12.0754  -42.3335 H         1 UNK         0.0600 
    179 H179        3.0603  -11.9222  -42.7650 H         1 UNK         0.3000 
    180 H180        5.5249  -12.4053  -41.6398 H         1 UNK         0.0600 
    181 H181        6.1345  -15.0901  -42.9828 H         1 UNK         0.0600 
    182 H182        6.3346  -14.7190  -41.2745 H         1 UNK         0.0600 
    183 H183        7.3257  -13.8996  -42.4688 H         1 UNK         0.0600 
    184 H184        5.2529  -13.2518  -44.4921 H         1 UNK         0.3000 
    185 H185        4.7698   -9.9595  -45.6004 H         1 UNK         0.0600 
    186 H186        7.2672  -10.0219  -45.5532 H         1 UNK         0.0600 
    187 H187        7.2495  -11.7004  -46.0804 H         1 UNK         0.0600 
    188 H188        6.6531  -10.4281  -47.1475 H         1 UNK         0.0600 
    189 H189        5.0616  -12.4215  -47.0065 H         1 UNK         0.3000 
    190 H190       -2.3422  -21.0711  -45.7938 H         1 UNK         0.3000 
    191 H191       -4.4334  -22.2100  -47.2660 H         1 UNK         0.0600 
    192 H192       -4.7545  -20.4063  -45.6118 H         1 UNK         0.0600 
    193 H193       -5.7942  -21.7669  -45.2188 H         1 UNK         0.0600 
    194 H194       -4.3239  -21.4928  -44.2926 H         1 UNK         0.0600 
    195 H195       -2.5591  -23.6136  -44.5686 H         1 UNK         0.3000 
    196 H196       -4.0861  -26.0518  -44.3943 H         1 UNK         0.0600 
    197 H197       -2.1791  -26.7889  -42.9580 H         1 UNK         0.0600 
    198 H198       -2.7653  -25.1992  -42.4906 H         1 UNK         0.0600 
    199 H199       -1.2708  -25.3502  -43.4094 H         1 UNK         0.0600 
    200 H200       -0.9194  -25.2321  -45.9336 H         1 UNK         0.3000 
    201 H201       -0.4661  -27.9440  -46.7640 H         1 UNK         0.0600 
    202 H202        1.3659  -26.4204  -46.1031 H         1 UNK         0.0600 
    203 H203        1.0177  -25.3631  -47.4696 H         1 UNK         0.0600 
    204 H204        1.6081  -26.9975  -47.7449 H         1 UNK         0.0600 
    205 H205       -1.3670  -24.9665  -48.5844 H         1 UNK         0.3000 
    206 H206       -1.4872  -26.5681  -51.1222 H         1 UNK         0.0600 
    207 H207        0.3405  -24.8734  -51.0077 H         1 UNK         0.0600 
    208 H208       -0.8580  -24.4330  -52.2119 H         1 UNK         0.0600 
    209 H209       -0.8347  -23.6090  -50.6552 H         1 UNK         0.0600 
    210 H210       -3.2911  -24.5004  -48.9658 H         1 UNK         0.3000 
    211 H211       -5.3364  -23.6093  -48.9471 H         1 UNK         0.0600 
    212 H212       -6.0891  -25.7113  -51.0467 H         1 UNK         0.0600 
    213 H213       -7.2004  -24.8133  -50.0225 H         1 UNK         0.0600 
    214 H214       -6.0878  -25.9643  -49.3014 H         1 UNK         0.0600 
    215 H215       -3.4788  -22.2436  -50.3758 H         1 UNK         0.3000 
    216 H216       -3.0552  -20.6317  -51.8408 H         1 UNK         0.0600 
    217 H217       -4.8892  -19.1238  -52.5733 H         1 UNK         0.0600 
    218 H218       -5.1347  -19.5524  -50.8903 H         1 UNK         0.0600 
    219 H219       -6.0954  -20.3219  -52.1359 H         1 UNK         0.0600 
    220 H220       -2.8303  -23.1699  -52.8034 H         1 UNK         0.3000 
    221 H221       -2.5102  -24.4222  -54.6012 H         1 UNK         0.0600 
    222 H222       -2.8180  -21.8698  -56.2764 H         1 UNK         0.0600 
    223 H223       -1.3225  -22.4051  -55.5136 H         1 UNK         0.0600 
    224 H224       -2.0569  -23.3689  -56.7849 H         1 UNK         0.0600 
    225 H225       -4.9238  -24.5839  -53.5067 H         1 UNK         0.3000 
    226 H226       -7.0485  -25.1724  -53.6376 H         1 UNK         0.0600 
    227 H227       -6.2373  -26.9449  -55.1950 H         1 UNK         0.0600 
    228 H228       -7.8757  -26.4445  -55.5824 H         1 UNK         0.0600 
    229 H229       -6.5363  -25.8883  -56.5743 H         1 UNK         0.0600 
    230 H230       -6.8400  -22.6527  -53.4662 H         1 UNK         0.3000 
    231 H231       -7.7325  -20.6389  -53.6711 H         1 UNK         0.0600 
    232 H232      -10.1480  -22.1329  -54.8103 H         1 UNK         0.0600 
    233 H233      -10.1654  -20.5319  -54.0823 H         1 UNK         0.0600 
    234 H234       -9.7740  -21.9328  -53.0991 H         1 UNK         0.0600 
    235 H235       -5.9030  -20.7670  -55.5260 H         1 UNK         0.3000 
    236 H236       -7.0412  -19.2706  -57.8482 H         1 UNK         0.0600 
    237 H237       -6.7325  -21.6298  -58.5817 H         1 UNK         0.0600 
    238 H238       -5.5764  -20.5746  -59.3811 H         1 UNK         0.0600 
    239 H239       -5.0554  -21.5958  -58.0444 H         1 UNK         0.0600 
    240 H240       -4.3419  -19.8135  -55.6211 H         1 UNK         0.3000 
    241 H241       -2.4529  -18.8111  -55.2075 H         1 UNK         0.0600 
    242 H242       -2.7603  -20.1311  -58.0348 H         1 UNK         0.3800 
    243 H243       -1.2491  -19.6542  -58.7620 H         1 UNK         0.3800 
    244 H244       -3.8994  -16.3720  -56.3131 H         1 UNK         0.0800 
    245 H245       -2.2321  -16.2243  -55.8771 H         1 UNK         0.0800 
    246 H246       -1.1778  -16.8023  -53.7056 H         1 UNK         0.0800 
    247 H247       -1.7205  -15.1528  -53.4950 H         1 UNK         0.0800 
@<TRIPOS>BOND
     1    1    2 1    
     2    1  127 1    
     3    1  128 1    
     4    1  129 1    
     5    2    3 2    
     6    2    4 am   BACKBONE|DICT|INTERRES
     7    4    5 1    
     8    4  130 1    
     9    5    6 1    
    10    5   65 1    
    11    5  131 1    
    12    6    7 1    
    13    6  132 1    
    14    6  133 1    
    15    7    8 1    
    16    8    9 1    
    17    8  134 1    
    18    8  135 1    
    19    9   10 ar   
    20    9   14 ar   
    21   10   11 ar   
    22   10  136 1    
    23   11   12 ar   
    24   11  126 1    
    25   12   13 ar   
    26   12  137 1    
    27   13   14 ar   
    28   13   15 1    
    29   14  138 1    
    30   15   16 1    
    31   15  139 1    
    32   15  140 1    
    33   16   17 1    
    34   17   18 1    
    35   17  141 1    
    36   17  142 1    
    37   18   19 1    
    38   18   67 1    
    39   18  143 1    
    40   19   20 am   BACKBONE|DICT|INTERRES
    41   19  144 1    
    42   20   21 2    
    43   20   22 1    
    44   22   23 1    
    45   22   24 1    
    46   22  145 1    
    47   23  146 1    
    48   23  147 1    
    49   23  148 1    
    50   24   25 am   BACKBONE|DICT|INTERRES
    51   24  149 1    
    52   25   26 2    
    53   25   27 1    
    54   27   28 1    
    55   27   29 1    
    56   27  150 1    
    57   28  151 1    
    58   28  152 1    
    59   28  153 1    
    60   29   30 am   BACKBONE|DICT|INTERRES
    61   29  154 1    
    62   30   31 2    
    63   30   32 1    
    64   32   33 1    
    65   32   34 1    
    66   32  155 1    
    67   33  156 1    
    68   33  157 1    
    69   33  158 1    
    70   34   35 am   BACKBONE|DICT|INTERRES
    71   34  159 1    
    72   35   36 2    
    73   35   37 1    
    74   37   38 1    
    75   37   39 1    
    76   37  160 1    
    77   38  161 1    
    78   38  162 1    
    79   38  163 1    
    80   39   40 am   BACKBONE|DICT|INTERRES
    81   39  164 1    
    82   40   41 2    
    83   40   42 1    
    84   42   43 1    
    85   42   44 1    
    86   42  165 1    
    87   43  166 1    
    88   43  167 1    
    89   43  168 1    
    90   44   45 am   BACKBONE|DICT|INTERRES
    91   44  169 1    
    92   45   46 2    
    93   45   47 1    
    94   47   48 1    
    95   47   49 1    
    96   47  170 1    
    97   48  171 1    
    98   48  172 1    
    99   48  173 1    
   100   49   50 am   BACKBONE|DICT|INTERRES
   101   49  174 1    
   102   50   51 2    
   103   50   52 1    
   104   52   53 1    
   105   52   54 1    
   106   52  175 1    
   107   53  176 1    
   108   53  177 1    
   109   53  178 1    
   110   54   55 am   BACKBONE|DICT|INTERRES
   111   54  179 1    
   112   55   56 2    
   113   55   57 1    
   114   57   58 1    
   115   57   59 1    
   116   57  180 1    
   117   58  181 1    
   118   58  182 1    
   119   58  183 1    
   120   59   60 am   BACKBONE|DICT|INTERRES
   121   59  184 1    
   122   60   61 2    
   123   60   62 1    
   124   62   63 1    
   125   62   64 1    
   126   62  185 1    
   127   63  186 1    
   128   63  187 1    
   129   63  188 1    
   130   64   65 am   BACKBONE|DICT|INTERRES
   131   64  189 1    
   132   65   66 2    
   133   67   68 2    
   134   67   69 am   BACKBONE|DICT|INTERRES
   135   69   70 1    
   136   69  190 1    
   137   70   71 1    
   138   70   72 1    
   139   70  191 1    
   140   71  192 1    
   141   71  193 1    
   142   71  194 1    
   143   72   73 2    
   144   72   74 am   BACKBONE|DICT|INTERRES
   145   74   75 1    
   146   74  195 1    
   147   75   76 1    
   148   75   77 1    
   149   75  196 1    
   150   76  197 1    
   151   76  198 1    
   152   76  199 1    
   153   77   78 2    
   154   77   79 am   BACKBONE|DICT|INTERRES
   155   79   80 1    
   156   79  200 1    
   157   80   81 1    
   158   80   82 1    
   159   80  201 1    
   160   81  202 1    
   161   81  203 1    
   162   81  204 1    
   163   82   83 2    
   164   82   84 am   BACKBONE|DICT|INTERRES
   165   84   85 1    
   166   84  205 1    
   167   85   86 1    
   168   85   87 1    
   169   85  206 1    
   170   86  207 1    
   171   86  208 1    
   172   86  209 1    
   173   87   88 2    
   174   87   89 am   BACKBONE|DICT|INTERRES
   175   89   90 1    
   176   89  210 1    
   177   90   91 1    
   178   90   92 1    
   179   90  211 1    
   180   91  212 1    
   181   91  213 1    
   182   91  214 1    
   183   92   93 2    
   184   92   94 am   BACKBONE|DICT|INTERRES
   185   94   95 1    
   186   94  215 1    
   187   95   96 1    
   188   95   97 1    
   189   95  216 1    
   190   96  217 1    
   191   96  218 1    
   192   96  219 1    
   193   97   98 2    
   194   97   99 am   BACKBONE|DICT|INTERRES
   195   99  100 1    
   196   99  220 1    
   197  100  101 1    
   198  100  102 1    
   199  100  221 1    
   200  101  222 1    
   201  101  223 1    
   202  101  224 1    
   203  102  103 2    
   204  102  104 am   BACKBONE|DICT|INTERRES
   205  104  105 1    
   206  104  225 1    
   207  105  106 1    
   208  105  107 1    
   209  105  226 1    
   210  106  227 1    
   211  106  228 1    
   212  106  229 1    
   213  107  108 2    
   214  107  109 am   BACKBONE|DICT|INTERRES
   215  109  110 1    
   216  109  230 1    
   217  110  111 1    
   218  110  112 1    
   219  110  231 1    
   220  111  232 1    
   221  111  233 1    
   222  111  234 1    
   223  112  113 2    
   224  112  114 am   BACKBONE|DICT|INTERRES
   225  114  115 1    
   226  114  235 1    
   227  115  116 1    
   228  115  117 1    
   229  115  236 1    
   230  116  237 1    
   231  116  238 1    
   232  116  239 1    
   233  117  118 2    
   234  117  119 am   BACKBONE|DICT|INTERRES
   235  119  120 1    
   236  119  240 1    
   237  120  121 1    
   238  120  124 1    
   239  120  241 1    
   240  121  122 am   BACKBONE|DICT|INTERRES
   241  121  123 2    
   242  122  242 1    
   243  122  243 1    
   244  124  125 1    
   245  124  244 1    
   246  124  245 1    
   247  125  126 1    
   248  126  246 1    
   249  126  247 1    
@<TRIPOS>SUBSTRUCTURE
     1 UNK         1 GROUP             0       ****    0 ROOT    
