@<TRIPOS>MOLECULE
3R540
247   249    1
SMALL
USER_CHARGES


@<TRIPOS>ATOM
      1 CA          8.0333  -15.2368  -49.4437 C.3       0 UNK        -0.1800 
      2 C           7.3467  -15.2366  -48.0849 C.2       0 UNK         0.5000 
      3 O           7.9346  -15.6874  -47.1010 O.2       0 UNK        -0.5000 
      4 N           6.1047  -14.7419  -48.0297 N.am      1 UNK        -0.5000 
      5 CA          5.3086  -14.6137  -46.8057 C.3       1 UNK         0.1400 
      6 C6          3.8151  -14.3493  -47.1163 C.3       23 UNK        -0.0398 
      7 S7          2.9843  -15.8353  -47.7553 S.3       23 UNK        -0.2404 
      8 C8          2.4696  -15.3092  -49.4188 C.3       23 UNK        -0.0205 
      9 C9          1.4521  -16.2838  -49.9901 C.ar      23 UNK        -0.0193 
     10 C10         0.1189  -15.9018  -50.1611 C.ar      23 UNK        -0.1150 
     11 C11        -0.8245  -16.8143  -50.6425 C.ar      23 UNK        -0.0193 
     12 C12        -0.4296  -18.1242  -50.9318 C.ar      23 UNK        -0.1150 
     13 C13         0.8998  -18.5225  -50.7582 C.ar      23 UNK        -0.0193 
     14 C14         1.8400  -17.5845  -50.3179 C.ar      23 UNK        -0.1150 
     15 C15         1.2973  -19.9727  -51.0248 C.3       23 UNK        -0.0205 
     16 S16         2.4833  -20.6571  -49.8110 S.3       23 UNK        -0.2404 
     17 C17         1.6403  -20.3330  -48.2215 C.3       23 UNK        -0.0398 
     18 CA          1.0270  -21.5944  -47.5763 C.3       11 UNK         0.1400 
     19 N           0.6687  -21.3570  -46.1766 N.am      11 UNK        -0.5000 
     20 C           0.2662  -22.3035  -45.3180 C.2       10 UNK         0.5000 
     21 O           0.2061  -23.5005  -45.5973 O.2       10 UNK        -0.5000 
     22 CA         -0.1878  -21.8289  -43.9267 C.3       10 UNK         0.1400 
     23 CB          1.0225  -21.5995  -43.0097 C.3       10 UNK        -0.1800 
     24 N          -1.0056  -20.6159  -43.9847 N.am      10 UNK        -0.5000 
     25 C          -2.2080  -20.5414  -44.5746 C.2       9 UNK         0.5000 
     26 O          -2.7732  -21.5036  -45.0930 O.2       9 UNK        -0.5000 
     27 CA         -2.8723  -19.1536  -44.6413 C.3       9 UNK         0.1400 
     28 CB         -3.5215  -18.7909  -43.2981 C.3       9 UNK        -0.1800 
     29 N          -1.9418  -18.0977  -45.0400 N.am      9 UNK        -0.5000 
     30 C          -1.2927  -18.0590  -46.2129 C.2       8 UNK         0.5000 
     31 O          -1.4281  -18.9014  -47.0988 O.2       8 UNK        -0.5000 
     32 CA         -0.2680  -16.9285  -46.3949 C.3       8 UNK         0.1400 
     33 CB         -0.9483  -15.6057  -46.7776 C.3       8 UNK        -0.1800 
     34 N           0.5392  -16.7306  -45.1922 N.am      8 UNK        -0.5000 
     35 C           1.4292  -17.6152  -44.7227 C.2       7 UNK         0.5000 
     36 O           1.6820  -18.6916  -45.2647 O.2       7 UNK        -0.5000 
     37 CA          2.1123  -17.2500  -43.3930 C.3       7 UNK         0.1400 
     38 CB          3.2338  -16.2236  -43.6181 C.3       7 UNK        -0.1800 
     39 N           1.1618  -16.7301  -42.4080 N.am      7 UNK        -0.5000 
     40 C           0.1789  -17.4585  -41.8552 C.2       6 UNK         0.5000 
     41 O           0.0014  -18.6526  -42.0902 O.2       6 UNK        -0.5000 
     42 CA         -0.8001  -16.7287  -40.9153 C.3       6 UNK         0.1400 
     43 CB         -0.2875  -16.7732  -39.4683 C.3       6 UNK        -0.1800 
     44 N          -1.0444  -15.3373  -41.2928 N.am      6 UNK        -0.5000 
     45 C          -1.5228  -14.9193  -42.4734 C.2       5 UNK         0.5000 
     46 O          -1.8816  -15.6824  -43.3706 O.2       5 UNK        -0.5000 
     47 CA         -1.5729  -13.3959  -42.7075 C.3       5 UNK         0.1400 
     48 CB         -3.0173  -12.8852  -42.5990 C.3       5 UNK        -0.1800 
     49 N          -0.7211  -12.6202  -41.7967 N.am      5 UNK        -0.5000 
     50 C           0.6166  -12.6812  -41.7515 C.2       4 UNK         0.5000 
     51 O           1.2932  -13.4356  -42.4550 O.2       4 UNK        -0.5000 
     52 CA          1.3059  -11.8053  -40.6914 C.3       4 UNK         0.1400 
     53 CB          1.7889  -12.6712  -39.5170 C.3       4 UNK        -0.1800 
     54 N           2.4477  -11.0990  -41.2635 N.am      4 UNK        -0.5000 
     55 C           2.3606  -10.0281  -42.0645 C.2       3 UNK         0.5000 
     56 O           1.3017   -9.4550  -42.3249 O.2       3 UNK        -0.5000 
     57 CA          3.6769   -9.5092  -42.6820 C.3       3 UNK         0.1400 
     58 CB          4.2431   -8.3504  -41.8469 C.3       3 UNK        -0.1800 
     59 N           4.7048  -10.5465  -42.8198 N.am      3 UNK        -0.5000 
     60 C           4.6108  -11.5947  -43.6484 C.2       2 UNK         0.5000 
     61 O           3.6668  -11.7612  -44.4253 O.2       2 UNK        -0.5000 
     62 CA          5.7443  -12.6388  -43.5571 C.3       2 UNK         0.1400 
     63 CB          5.7383  -13.3268  -42.1802 C.3       2 UNK        -0.1800 
     64 N           5.5989  -13.6711  -44.5811 N.am      2 UNK        -0.5000 
     65 C           5.8503  -13.5028  -45.8845 C.2       1 UNK         0.5000 
     66 O           6.4159  -12.5131  -46.3583 O.2       1 UNK        -0.5000 
     67 C          -0.1699  -22.1365  -48.3851 C.2       11 UNK         0.5000 
     68 O          -0.0223  -23.1407  -49.0813 O.2       11 UNK        -0.5000 
     69 N          -1.3423  -21.5010  -48.2430 N.am      12 UNK        -0.5000 
     70 CA         -2.5946  -21.9370  -48.8598 C.3       12 UNK         0.1400 
     71 CB         -3.6944  -20.8960  -48.6124 C.3       12 UNK        -0.1800 
     72 C          -3.0369  -23.3306  -48.3823 C.2       12 UNK         0.5000 
     73 O          -3.4403  -24.1447  -49.2104 O.2       12 UNK        -0.5000 
     74 N          -2.9114  -23.6038  -47.0759 N.am      13 UNK        -0.5000 
     75 CA         -3.1832  -24.9112  -46.4762 C.3       13 UNK         0.1400 
     76 CB         -3.1074  -24.8125  -44.9454 C.3       13 UNK        -0.1800 
     77 C          -2.2479  -26.0134  -47.0066 C.2       13 UNK         0.5000 
     78 O          -2.7284  -27.0862  -47.3732 O.2       13 UNK        -0.5000 
     79 N          -0.9428  -25.7162  -47.0916 N.am      14 UNK        -0.5000 
     80 CA          0.0800  -26.6011  -47.6579 C.3       14 UNK         0.1400 
     81 CB          1.4721  -26.0009  -47.4099 C.3       14 UNK        -0.1800 
     82 C          -0.1314  -26.8877  -49.1577 C.2       14 UNK         0.5000 
     83 O           0.1110  -28.0094  -49.6040 O.2       14 UNK        -0.5000 
     84 N          -0.6190  -25.8829  -49.8964 N.am      15 UNK        -0.5000 
     85 CA         -1.0015  -25.9737  -51.3061 C.3       15 UNK         0.1400 
     86 CB         -0.9823  -24.5601  -51.9121 C.3       15 UNK        -0.1800 
     87 C          -2.3755  -26.6393  -51.5368 C.2       15 UNK         0.5000 
     88 O          -2.7823  -26.7689  -52.6921 O.2       15 UNK        -0.5000 
     89 N          -3.0860  -27.0122  -50.4597 N.am      16 UNK        -0.5000 
     90 CA         -4.4387  -27.5840  -50.4410 C.3       16 UNK         0.1400 
     91 CB         -4.4365  -29.0074  -51.0359 C.3       16 UNK        -0.1800 
     92 C          -5.4819  -26.6516  -51.0953 C.2       16 UNK         0.5000 
     93 O          -6.3408  -27.1072  -51.8513 O.2       16 UNK        -0.5000 
     94 N          -5.3445  -25.3497  -50.8085 N.am      17 UNK        -0.5000 
     95 CA         -6.0764  -24.2006  -51.3481 C.3       17 UNK         0.1400 
     96 CB         -7.5954  -24.3260  -51.1127 C.3       17 UNK        -0.1800 
     97 C          -5.7388  -23.8651  -52.8147 C.2       17 UNK         0.5000 
     98 O          -6.3484  -22.9469  -53.3603 O.2       17 UNK        -0.5000 
     99 N          -4.7698  -24.5669  -53.4256 N.am      18 UNK        -0.5000 
    100 CA        -4.3174  -24.4162  -54.8129 C.3       18 UNK         0.1400 
    101 CB        -3.4889  -23.1198  -54.9601 C.3       18 UNK        -0.1800 
    102 C         -5.4965  -24.5321  -55.8063 C.2       18 UNK         0.5000 
    103 O         -6.2229  -25.5271  -55.7592 O.2       18 UNK        -0.5000 
    104 N         -5.6860  -23.5189  -56.6626 N.am      19 UNK        -0.5000 
    105 CA        -6.8872  -23.3537  -57.4799 C.3       19 UNK         0.1400 
    106 CB        -6.5836  -22.4201  -58.6634 C.3       19 UNK        -0.1800 
    107 C         -8.0574  -22.8224  -56.6301 C.2       19 UNK         0.5000 
    108 O         -9.1166  -23.4499  -56.5936 O.2       19 UNK        -0.5000 
    109 N         -7.8277  -21.6906  -55.9505 N.am      20 UNK        -0.5000 
    110 CA        -8.7596  -21.0144  -55.0460 C.3       20 UNK         0.1400 
    111 CB        -9.9811  -20.4642  -55.8173 C.3       20 UNK        -0.1800 
    112 C         -8.0077  -19.9128  -54.2730 C.2       20 UNK         0.5000 
    113 O         -8.4662  -18.7704  -54.2160 O.2       20 UNK        -0.5000 
    114 N         -6.8354  -20.2597  -53.7293 N.am      21 UNK        -0.5000 
    115 CA        -5.9788  -19.3644  -52.9539 C.3       21 UNK         0.1400 
    116 CB        -4.5185  -19.8243  -53.1011 C.3       21 UNK        -0.1800 
    117 C         -6.3813  -19.3663  -51.4624 C.2       21 UNK         0.5000 
    118 O         -6.8530  -20.3934  -50.9731 O.2       21 UNK        -0.5000 
    119 N         -6.1656  -18.2792  -50.7077 N.am      22 UNK        -0.5000 
    120 CA        -5.7204  -16.9433  -51.1527 C.3       22 UNK         0.1400 
    121 C         -6.8684  -16.0480  -51.7078 C.2       22 UNK         0.5000 
    122 N         -8.1300  -16.4509  -51.6244 N.am      22 UNK        -0.7600 
    123 O         -6.6057  -14.9746  -52.2421 O.2       22 UNK        -0.5000 
    124 C124       -4.9337  -16.1990  -50.0438 C.3       23 UNK        -0.0398 
    125 S125       -3.3830  -17.0458  -49.5935 S.3       23 UNK        -0.2404 
    126 C126       -2.2647  -16.3802  -50.8652 C.3       23 UNK        -0.0205 
    127 H127        8.9461  -14.6423  -49.4027 H         1 UNK         0.0600 
    128 H128        7.3922  -14.8224  -50.2224 H         1 UNK         0.0600 
    129 H129        8.3000  -16.2544  -49.7292 H         1 UNK         0.0600 
    130 H130        5.6843  -14.3675  -48.8672 H         1 UNK         0.3000 
    131 H131        5.3864  -15.5572  -46.2602 H         1 UNK         0.0600 
    132 H132        3.2697  -14.0588  -46.2160 H         1 UNK         0.0800 
    133 H133        3.7045  -13.5156  -47.8117 H         1 UNK         0.0800 
    134 H134        2.0467  -14.3046  -49.3710 H         1 UNK         0.0800 
    135 H135        3.3406  -15.2562  -50.0733 H         1 UNK         0.0800 
    136 H136       -0.1865  -14.8947  -49.9144 H         1 UNK         0.1150 
    137 H137       -1.1653  -18.8351  -51.2814 H         1 UNK         0.1150 
    138 H138        2.8715  -17.8765  -50.1802 H         1 UNK         0.1150 
    139 H139        0.4131  -20.6121  -51.0359 H         1 UNK         0.0800 
    140 H140        1.7375  -20.0366  -52.0204 H         1 UNK         0.0800 
    141 H141        0.8886  -19.5508  -48.3264 H         1 UNK         0.0800 
    142 H142        2.3971  -19.9168  -47.5555 H         1 UNK         0.0800 
    143 H143        1.7935  -22.3723  -47.5725 H         1 UNK         0.0600 
    144 H144        0.7268  -20.3973  -45.8518 H         1 UNK         0.3000 
    145 H145       -0.7978  -22.6216  -43.4891 H         1 UNK         0.0600 
    146 H146        0.7063  -21.3629  -41.9936 H         1 UNK         0.0600 
    147 H147        1.6477  -22.4916  -42.9558 H         1 UNK         0.0600 
    148 H148        1.6476  -20.7794  -43.3645 H         1 UNK         0.0600 
    149 H149       -0.6233  -19.7905  -43.5320 H         1 UNK         0.3000 
    150 H150       -3.6590  -19.1982  -45.3972 H         1 UNK         0.0600 
    151 H151       -4.2728  -19.5299  -43.0174 H         1 UNK         0.0600 
    152 H152       -4.0185  -17.8218  -43.3474 H         1 UNK         0.0600 
    153 H153       -2.7866  -18.7505  -42.4947 H         1 UNK         0.0600 
    154 H154       -1.7952  -17.3397  -44.3794 H         1 UNK         0.3000 
    155 H155        0.3964  -17.2172  -47.2116 H         1 UNK         0.0600 
    156 H156       -1.6155  -15.2470  -45.9940 H         1 UNK         0.0600 
    157 H157       -1.5429  -15.7232  -47.6828 H         1 UNK         0.0600 
    158 H158       -0.2098  -14.8285  -46.9750 H         1 UNK         0.0600 
    159 H159        0.3555  -15.8967  -44.6545 H         1 UNK         0.3000 
    160 H160        2.5594  -18.1602  -42.9873 H         1 UNK         0.0600 
    161 H161        2.8426  -15.2720  -43.9807 H         1 UNK         0.0600 
    162 H162        3.9515  -16.5894  -44.3534 H         1 UNK         0.0600 
    163 H163        3.7799  -16.0320  -42.6945 H         1 UNK         0.0600 
    164 H164        1.2214  -15.7428  -42.1923 H         1 UNK         0.3000 
    165 H165       -1.7555  -17.2542  -40.9563 H         1 UNK         0.0600 
    166 H166       -1.0113  -16.3378  -38.7791 H         1 UNK         0.0600 
    167 H167       -0.1133  -17.8012  -39.1474 H         1 UNK         0.0600 
    168 H168        0.6521  -16.2304  -39.3569 H         1 UNK         0.0600 
    169 H169       -0.7848  -14.6351  -40.6170 H         1 UNK         0.3000 
    170 H170       -1.2220  -13.2169  -43.7260 H         1 UNK         0.0600 
    171 H171       -3.6740  -13.4202  -43.2866 H         1 UNK         0.0600 
    172 H172       -3.4168  -13.0187  -41.5929 H         1 UNK         0.0600 
    173 H173       -3.0818  -11.8262  -42.8497 H         1 UNK         0.0600 
    174 H174       -1.2006  -11.9844  -41.1752 H         1 UNK         0.3000 
    175 H175        0.5940  -11.0707  -40.3085 H         1 UNK         0.0600 
    176 H176        2.5122  -13.4219  -39.8389 H         1 UNK         0.0600 
    177 H177        2.2598  -12.0616  -38.7456 H         1 UNK         0.0600 
    178 H178        0.9556  -13.1976  -39.0499 H         1 UNK         0.0600 
    179 H179        3.3521  -11.5262  -41.1357 H         1 UNK         0.3000 
    180 H180        3.4432   -9.1287  -43.6787 H         1 UNK         0.0600 
    181 H181        4.5140   -8.6736  -40.8410 H         1 UNK         0.0600 
    182 H182        3.5119   -7.5469  -41.7475 H         1 UNK         0.0600 
    183 H183        5.1307   -7.9235  -42.3141 H         1 UNK         0.0600 
    184 H184        5.5096  -10.4658  -42.2150 H         1 UNK         0.3000 
    185 H185        6.6994  -12.1288  -43.6985 H         1 UNK         0.0600 
    186 H186        6.5032  -14.1015  -42.1228 H         1 UNK         0.0600 
    187 H187        5.9444  -12.6162  -41.3793 H         1 UNK         0.0600 
    188 H188        4.7745  -13.7913  -41.9663 H         1 UNK         0.0600 
    189 H189        5.1097  -14.5030  -44.2885 H         1 UNK         0.3000 
    190 H190       -1.3824  -20.6507  -47.6839 H         1 UNK         0.3000 
    191 H191       -2.4267  -21.9959  -49.9370 H         1 UNK         0.0600 
    192 H192       -3.8817  -20.7502  -47.5483 H         1 UNK         0.0600 
    193 H193       -4.6339  -21.1990  -49.0767 H         1 UNK         0.0600 
    194 H194       -3.4191  -19.9321  -49.0379 H         1 UNK         0.0600 
    195 H195       -2.6242  -22.8616  -46.4432 H         1 UNK         0.3000 
    196 H196       -4.2046  -25.1892  -46.7440 H         1 UNK         0.0600 
    197 H197       -3.3294  -25.7739  -44.4807 H         1 UNK         0.0600 
    198 H198       -3.8292  -24.0914  -44.5615 H         1 UNK         0.0600 
    199 H199       -2.1176  -24.5055  -44.6081 H         1 UNK         0.0600 
    200 H200       -0.6193  -24.8209  -46.7341 H         1 UNK         0.3000 
    201 H201        0.0227  -27.5547  -47.1292 H         1 UNK         0.0600 
    202 H202        1.6609  -25.8717  -46.3441 H         1 UNK         0.0600 
    203 H203        1.5820  -25.0274  -47.8885 H         1 UNK         0.0600 
    204 H204        2.2545  -26.6512  -47.8028 H         1 UNK         0.0600 
    205 H205       -0.7195  -24.9700  -49.4622 H         1 UNK         0.3000 
    206 H206       -0.2576  -26.5770  -51.8302 H         1 UNK         0.0600 
    207 H207       -0.0123  -24.0827  -51.7722 H         1 UNK         0.0600 
    208 H208       -1.1748  -24.5907  -52.9849 H         1 UNK         0.0600 
    209 H209       -1.7394  -23.9190  -51.4598 H         1 UNK         0.0600 
    210 H210       -2.6826  -26.8392  -49.5470 H         1 UNK         0.3000 
    211 H211       -4.7210  -27.6662  -49.3906 H         1 UNK         0.0600 
    212 H212       -4.2103  -29.0019  -52.1025 H         1 UNK         0.0600 
    213 H213       -5.4091  -29.4844  -50.9105 H         1 UNK         0.0600 
    214 H214       -3.6996  -29.6393  -50.5401 H         1 UNK         0.0600 
    215 H215       -4.5788  -25.0847  -50.1881 H         1 UNK         0.3000 
    216 H216       -5.7326  -23.3424  -50.7687 H         1 UNK         0.0600 
    217 H217       -8.1011  -23.3874  -51.3432 H         1 UNK         0.0600 
    218 H218       -7.8162  -24.5646  -50.0725 H         1 UNK         0.0600 
    219 H219       -8.0431  -25.0966  -51.7403 H         1 UNK         0.0600 
    220 H220       -4.3400  -25.3316  -52.9193 H         1 UNK         0.3000 
    221 H221       -3.6571  -25.2603  -55.0162 H         1 UNK         0.0600 
    222 H222       -4.0950  -22.2265  -54.8111 H         1 UNK         0.0600 
    223 H223       -2.6794  -23.0891  -54.2313 H         1 UNK         0.0600 
    224 H224       -3.0303  -23.0541  -55.9474 H         1 UNK         0.0600 
    225 H225       -5.0364  -22.7471  -56.6432 H         1 UNK         0.3000 
    226 H226       -7.1780  -24.3246  -57.8874 H         1 UNK         0.0600 
    227 H227       -5.8086  -22.8402  -59.3047 H         1 UNK         0.0600 
    228 H228       -7.4709  -22.2739  -59.2806 H         1 UNK         0.0600 
    229 H229       -6.2470  -21.4364  -58.3342 H         1 UNK         0.0600 
    230 H230       -6.9172  -21.2593  -56.0202 H         1 UNK         0.3000 
    231 H231       -9.1083  -21.7390  -54.3075 H         1 UNK         0.0600 
    232 H232      -10.6633  -19.9385  -55.1482 H         1 UNK         0.0600 
    233 H233      -10.5568  -21.2597  -56.2888 H         1 UNK         0.0600 
    234 H234       -9.6779  -19.7640  -56.5964 H         1 UNK         0.0600 
    235 H235       -6.5948  -21.2512  -53.6941 H         1 UNK         0.3000 
    236 H236       -6.0735  -18.3650  -53.3782 H         1 UNK         0.0600 
    237 H237       -3.8416  -19.1716  -52.5484 H         1 UNK         0.0600 
    238 H238       -4.3763  -20.8366  -52.7204 H         1 UNK         0.0600 
    239 H239       -4.2037  -19.8090  -54.1444 H         1 UNK         0.0600 
    240 H240       -6.3966  -18.3375  -49.7277 H         1 UNK         0.3000 
    241 H241       -5.0223  -17.0617  -51.9804 H         1 UNK         0.0600 
    242 H242       -8.8613  -15.8694  -52.0028 H         1 UNK         0.3800 
    243 H243       -8.3649  -17.3344  -51.2007 H         1 UNK         0.3800 
    244 H244       -4.6891  -15.1797  -50.3485 H         1 UNK         0.0800 
    245 H245       -5.5455  -16.1025  -49.1456 H         1 UNK         0.0800 
    246 H246       -2.3319  -15.2912  -50.8725 H         1 UNK         0.0800 
    247 H247       -2.5925  -16.7162  -51.8497 H         1 UNK         0.0800 
@<TRIPOS>BOND
     1    1    2 1    
     2    1  127 1    
     3    1  128 1    
     4    1  129 1    
     5    2    3 2    
     6    2    4 am   BACKBONE|DICT|INTERRES
     7    4    5 1    
     8    4  130 1    
     9    5    6 1    
    10    5   65 1    
    11    5  131 1    
    12    6    7 1    
    13    6  132 1    
    14    6  133 1    
    15    7    8 1    
    16    8    9 1    
    17    8  134 1    
    18    8  135 1    
    19    9   10 ar   
    20    9   14 ar   
    21   10   11 ar   
    22   10  136 1    
    23   11   12 ar   
    24   11  126 1    
    25   12   13 ar   
    26   12  137 1    
    27   13   14 ar   
    28   13   15 1    
    29   14  138 1    
    30   15   16 1    
    31   15  139 1    
    32   15  140 1    
    33   16   17 1    
    34   17   18 1    
    35   17  141 1    
    36   17  142 1    
    37   18   19 1    
    38   18   67 1    
    39   18  143 1    
    40   19   20 am   BACKBONE|DICT|INTERRES
    41   19  144 1    
    42   20   21 2    
    43   20   22 1    
    44   22   23 1    
    45   22   24 1    
    46   22  145 1    
    47   23  146 1    
    48   23  147 1    
    49   23  148 1    
    50   24   25 am   BACKBONE|DICT|INTERRES
    51   24  149 1    
    52   25   26 2    
    53   25   27 1    
    54   27   28 1    
    55   27   29 1    
    56   27  150 1    
    57   28  151 1    
    58   28  152 1    
    59   28  153 1    
    60   29   30 am   BACKBONE|DICT|INTERRES
    61   29  154 1    
    62   30   31 2    
    63   30   32 1    
    64   32   33 1    
    65   32   34 1    
    66   32  155 1    
    67   33  156 1    
    68   33  157 1    
    69   33  158 1    
    70   34   35 am   BACKBONE|DICT|INTERRES
    71   34  159 1    
    72   35   36 2    
    73   35   37 1    
    74   37   38 1    
    75   37   39 1    
    76   37  160 1    
    77   38  161 1    
    78   38  162 1    
    79   38  163 1    
    80   39   40 am   BACKBONE|DICT|INTERRES
    81   39  164 1    
    82   40   41 2    
    83   40   42 1    
    84   42   43 1    
    85   42   44 1    
    86   42  165 1    
    87   43  166 1    
    88   43  167 1    
    89   43  168 1    
    90   44   45 am   BACKBONE|DICT|INTERRES
    91   44  169 1    
    92   45   46 2    
    93   45   47 1    
    94   47   48 1    
    95   47   49 1    
    96   47  170 1    
    97   48  171 1    
    98   48  172 1    
    99   48  173 1    
   100   49   50 am   BACKBONE|DICT|INTERRES
   101   49  174 1    
   102   50   51 2    
   103   50   52 1    
   104   52   53 1    
   105   52   54 1    
   106   52  175 1    
   107   53  176 1    
   108   53  177 1    
   109   53  178 1    
   110   54   55 am   BACKBONE|DICT|INTERRES
   111   54  179 1    
   112   55   56 2    
   113   55   57 1    
   114   57   58 1    
   115   57   59 1    
   116   57  180 1    
   117   58  181 1    
   118   58  182 1    
   119   58  183 1    
   120   59   60 am   BACKBONE|DICT|INTERRES
   121   59  184 1    
   122   60   61 2    
   123   60   62 1    
   124   62   63 1    
   125   62   64 1    
   126   62  185 1    
   127   63  186 1    
   128   63  187 1    
   129   63  188 1    
   130   64   65 am   BACKBONE|DICT|INTERRES
   131   64  189 1    
   132   65   66 2    
   133   67   68 2    
   134   67   69 am   BACKBONE|DICT|INTERRES
   135   69   70 1    
   136   69  190 1    
   137   70   71 1    
   138   70   72 1    
   139   70  191 1    
   140   71  192 1    
   141   71  193 1    
   142   71  194 1    
   143   72   73 2    
   144   72   74 am   BACKBONE|DICT|INTERRES
   145   74   75 1    
   146   74  195 1    
   147   75   76 1    
   148   75   77 1    
   149   75  196 1    
   150   76  197 1    
   151   76  198 1    
   152   76  199 1    
   153   77   78 2    
   154   77   79 am   BACKBONE|DICT|INTERRES
   155   79   80 1    
   156   79  200 1    
   157   80   81 1    
   158   80   82 1    
   159   80  201 1    
   160   81  202 1    
   161   81  203 1    
   162   81  204 1    
   163   82   83 2    
   164   82   84 am   BACKBONE|DICT|INTERRES
   165   84   85 1    
   166   84  205 1    
   167   85   86 1    
   168   85   87 1    
   169   85  206 1    
   170   86  207 1    
   171   86  208 1    
   172   86  209 1    
   173   87   88 2    
   174   87   89 am   BACKBONE|DICT|INTERRES
   175   89   90 1    
   176   89  210 1    
   177   90   91 1    
   178   90   92 1    
   179   90  211 1    
   180   91  212 1    
   181   91  213 1    
   182   91  214 1    
   183   92   93 2    
   184   92   94 am   BACKBONE|DICT|INTERRES
   185   94   95 1    
   186   94  215 1    
   187   95   96 1    
   188   95   97 1    
   189   95  216 1    
   190   96  217 1    
   191   96  218 1    
   192   96  219 1    
   193   97   98 2    
   194   97   99 am   BACKBONE|DICT|INTERRES
   195   99  100 1    
   196   99  220 1    
   197  100  101 1    
   198  100  102 1    
   199  100  221 1    
   200  101  222 1    
   201  101  223 1    
   202  101  224 1    
   203  102  103 2    
   204  102  104 am   BACKBONE|DICT|INTERRES
   205  104  105 1    
   206  104  225 1    
   207  105  106 1    
   208  105  107 1    
   209  105  226 1    
   210  106  227 1    
   211  106  228 1    
   212  106  229 1    
   213  107  108 2    
   214  107  109 am   BACKBONE|DICT|INTERRES
   215  109  110 1    
   216  109  230 1    
   217  110  111 1    
   218  110  112 1    
   219  110  231 1    
   220  111  232 1    
   221  111  233 1    
   222  111  234 1    
   223  112  113 2    
   224  112  114 am   BACKBONE|DICT|INTERRES
   225  114  115 1    
   226  114  235 1    
   227  115  116 1    
   228  115  117 1    
   229  115  236 1    
   230  116  237 1    
   231  116  238 1    
   232  116  239 1    
   233  117  118 2    
   234  117  119 am   BACKBONE|DICT|INTERRES
   235  119  120 1    
   236  119  240 1    
   237  120  121 1    
   238  120  124 1    
   239  120  241 1    
   240  121  122 am   BACKBONE|DICT|INTERRES
   241  121  123 2    
   242  122  242 1    
   243  122  243 1    
   244  124  125 1    
   245  124  244 1    
   246  124  245 1    
   247  125  126 1    
   248  126  246 1    
   249  126  247 1    
@<TRIPOS>SUBSTRUCTURE
     1 UNK         1 GROUP             0       ****    0 ROOT    
