@<TRIPOS>MOLECULE
3R540
247   249    1
SMALL
USER_CHARGES


@<TRIPOS>ATOM
      1 CA         -6.2688  -20.2449  -44.0157 C.3       0 UNK        -0.1800 
      2 C          -6.4834  -19.0855  -44.9775 C.2       0 UNK         0.5000 
      3 O          -7.6179  -18.6449  -45.1652 O.2       0 UNK        -0.5000 
      4 N          -5.3992  -18.5954  -45.5884 N.am      1 UNK        -0.5000 
      5 CA         -5.3973  -17.4461  -46.4963 C.3       1 UNK         0.1400 
      6 C6         -4.0716  -17.3383  -47.2792 C.3       23 UNK        -0.0398 
      7 S7         -3.7051  -18.7565  -48.3588 S.3       23 UNK        -0.2404 
      8 C8         -2.0705  -19.2467  -47.7370 C.3       23 UNK        -0.0205 
      9 C9         -1.2769  -20.0275  -48.7693 C.ar      23 UNK        -0.0193 
     10 C10        -0.7266  -19.3542  -49.8616 C.ar      23 UNK        -0.1150 
     11 C11         0.0653  -20.0269  -50.7990 C.ar      23 UNK        -0.0193 
     12 C12         0.2885  -21.3963  -50.6309 C.ar      23 UNK        -0.1150 
     13 C13        -0.2609  -22.0864  -49.5460 C.ar      23 UNK        -0.0193 
     14 C14        -1.0496  -21.3982  -48.6191 C.ar      23 UNK        -0.1150 
     15 C15         0.0032  -23.5757  -49.3870 C.3       23 UNK        -0.0205 
     16 S16         1.4351  -23.8968  -48.3073 S.3       23 UNK        -0.2404 
     17 C17         0.5940  -24.1381  -46.7089 C.3       23 UNK        -0.0398 
     18 CA          1.5322  -24.6794  -45.6062 C.3       11 UNK         0.1400 
     19 N           2.5418  -23.6887  -45.2169 N.am      11 UNK        -0.5000 
     20 C           3.7085  -23.9805  -44.6285 C.2       10 UNK         0.5000 
     21 O           4.0776  -25.1271  -44.3721 O.2       10 UNK        -0.5000 
     22 CA          4.6018  -22.7895  -44.2341 C.3       10 UNK         0.1400 
     23 CB          5.3701  -22.2577  -45.4535 C.3       10 UNK        -0.1800 
     24 N           3.8573  -21.6964  -43.6033 N.am      10 UNK        -0.5000 
     25 C           3.2353  -21.7838  -42.4180 C.2       9 UNK         0.5000 
     26 O           3.2215  -22.8014  -41.7255 O.2       9 UNK        -0.5000 
     27 CA          2.4744  -20.5366  -41.9329 C.3       9 UNK         0.1400 
     28 CB          3.4401  -19.5102  -41.3217 C.3       9 UNK        -0.1800 
     29 N           1.6925  -19.9057  -42.9947 N.am      9 UNK        -0.5000 
     30 C           0.6375  -20.4699  -43.5978 C.2       8 UNK         0.5000 
     31 O           0.1714  -21.5630  -43.2804 O.2       8 UNK        -0.5000 
     32 CA          0.0252  -19.7124  -44.7882 C.3       8 UNK         0.1400 
     33 CB         -0.9287  -18.6109  -44.3004 C.3       8 UNK        -0.1800 
     34 N           1.0394  -19.1438  -45.6768 N.am      8 UNK        -0.5000 
     35 C           1.9617  -19.8667  -46.3307 C.2       7 UNK         0.5000 
     36 O           2.0264  -21.0940  -46.2861 O.2       7 UNK        -0.5000 
     37 CA          3.0388  -19.0840  -47.0971 C.3       7 UNK         0.1400 
     38 CB          2.5362  -18.6582  -48.4828 C.3       7 UNK        -0.1800 
     39 N           3.4815  -17.9123  -46.3425 N.am      7 UNK        -0.5000 
     40 C           4.2505  -17.9733  -45.2461 C.2       6 UNK         0.5000 
     41 O           4.7013  -19.0224  -44.7862 O.2       6 UNK        -0.5000 
     42 CA          4.5284  -16.6441  -44.5187 C.3       6 UNK         0.1400 
     43 CB          5.6991  -15.8995  -45.1773 C.3       6 UNK        -0.1800 
     44 N           3.3567  -15.7675  -44.4767 N.am      6 UNK        -0.5000 
     45 C           2.2344  -16.0427  -43.7978 C.2       5 UNK         0.5000 
     46 O           2.0930  -17.0424  -43.0953 O.2       5 UNK        -0.5000 
     47 CA          1.0557  -15.0635  -43.9615 C.3       5 UNK         0.1400 
     48 CB          1.1188  -13.9641  -42.8912 C.3       5 UNK        -0.1800 
     49 N           0.9565  -14.4422  -45.2861 N.am      5 UNK        -0.5000 
     50 C           0.8566  -15.1009  -46.4497 C.2       4 UNK         0.5000 
     51 O           0.9130  -16.3284  -46.5449 O.2       4 UNK        -0.5000 
     52 CA          0.6376  -14.2190  -47.6970 C.3       4 UNK         0.1400 
     53 CB          0.5781  -15.0353  -49.0064 C.3       4 UNK        -0.1800 
     54 N          -0.5456  -13.3571  -47.5546 N.am      4 UNK        -0.5000 
     55 C          -1.8076  -13.7736  -47.3759 C.2       3 UNK         0.5000 
     56 O          -2.1353  -14.9596  -47.3339 O.2       3 UNK        -0.5000 
     57 CA         -2.8892  -12.6910  -47.2254 C.3       3 UNK         0.1400 
     58 CB         -3.0499  -11.8684  -48.5166 C.3       3 UNK        -0.1800 
     59 N          -4.1561  -13.3468  -46.9134 N.am      3 UNK        -0.5000 
     60 C          -5.1464  -12.8637  -46.1560 C.2       2 UNK         0.5000 
     61 O          -5.1153  -11.7509  -45.6289 O.2       2 UNK        -0.5000 
     62 CA         -6.3909  -13.7596  -45.9617 C.3       2 UNK         0.1400 
     63 CB         -7.6045  -13.1530  -46.6851 C.3       2 UNK        -0.1800 
     64 N          -6.2000  -15.1318  -46.4462 N.am      2 UNK        -0.5000 
     65 C          -5.6359  -16.1199  -45.7390 C.2       1 UNK         0.5000 
     66 O          -5.2565  -15.9945  -44.5719 O.2       1 UNK        -0.5000 
     67 C           0.7045  -25.1943  -44.4056 C.2       11 UNK         0.5000 
     68 O           0.0191  -26.2077  -44.5473 O.2       11 UNK        -0.5000 
     69 N           0.7738  -24.4977  -43.2607 N.am      12 UNK        -0.5000 
     70 CA          0.0190  -24.7288  -42.0252 C.3       12 UNK         0.1400 
     71 CB          0.4078  -26.0744  -41.3779 C.3       12 UNK        -0.1800 
     72 C          -1.4995  -24.5660  -42.2433 C.2       12 UNK         0.5000 
     73 O          -2.2811  -25.4564  -41.9055 O.2       12 UNK        -0.5000 
     74 N          -1.8738  -23.4277  -42.8443 N.am      13 UNK        -0.5000 
     75 CA         -3.2179  -22.9379  -43.1858 C.3       13 UNK         0.1400 
     76 CB         -4.0865  -22.7805  -41.9233 C.3       13 UNK        -0.1800 
     77 C          -3.9674  -23.7313  -44.2774 C.2       13 UNK         0.5000 
     78 O          -4.7702  -23.1384  -44.9991 O.2       13 UNK        -0.5000 
     79 N          -3.7045  -25.0372  -44.3921 N.am      14 UNK        -0.5000 
     80 CA         -4.2435  -25.9299  -45.4165 C.3       14 UNK         0.1400 
     81 CB         -3.8439  -27.3706  -45.0615 C.3       14 UNK        -0.1800 
     82 C          -3.7492  -25.5696  -46.8310 C.2       14 UNK         0.5000 
     83 O          -2.6799  -24.9758  -46.9744 O.2       14 UNK        -0.5000 
     84 N          -4.5287  -25.9667  -47.8483 N.am      15 UNK        -0.5000 
     85 CA         -4.2481  -25.8010  -49.2825 C.3       15 UNK         0.1400 
     86 CB         -3.0780  -26.7139  -49.7085 C.3       15 UNK        -0.1800 
     87 C          -4.0432  -24.3275  -49.7011 C.2       15 UNK         0.5000 
     88 O          -3.1501  -24.0308  -50.4954 O.2       15 UNK        -0.5000 
     89 N          -4.8728  -23.4400  -49.1324 N.am      16 UNK        -0.5000 
     90 CA         -4.8536  -21.9863  -49.3037 C.3       16 UNK         0.1400 
     91 CB         -6.0465  -21.3930  -48.5336 C.3       16 UNK        -0.1800 
     92 C          -4.8755  -21.5455  -50.7817 C.2       16 UNK         0.5000 
     93 O          -5.7860  -21.9414  -51.5139 O.2       16 UNK        -0.5000 
     94 N          -3.8737  -20.7559  -51.1920 N.am      17 UNK        -0.5000 
     95 CA         -3.6271  -20.4069  -52.5916 C.3       17 UNK         0.1400 
     96 CB         -2.7354  -21.4861  -53.2363 C.3       17 UNK        -0.1800 
     97 C          -3.0480  -18.9918  -52.7734 C.2       17 UNK         0.5000 
     98 O          -2.4503  -18.7218  -53.8159 O.2       17 UNK        -0.5000 
     99 N          -3.2335  -18.0914  -51.7953 N.am      18 UNK        -0.5000 
    100 CA        -2.7516  -16.7057  -51.8791 C.3       18 UNK         0.1400 
    101 CB        -2.9442  -15.9828  -50.5394 C.3       18 UNK        -0.1800 
    102 C         -3.4221  -15.9191  -53.0176 C.2       18 UNK         0.5000 
    103 O         -2.7285  -15.3205  -53.8385 O.2       18 UNK        -0.5000 
    104 N         -4.7582  -15.9870  -53.0812 N.am      19 UNK        -0.5000 
    105 CA        -5.5611  -15.3556  -54.1317 C.3       19 UNK         0.1400 
    106 CB        -7.0388  -15.3765  -53.7117 C.3       19 UNK        -0.1800 
    107 C         -5.3819  -16.0191  -55.5116 C.2       19 UNK         0.5000 
    108 O         -5.5757  -15.3589  -56.5330 O.2       19 UNK        -0.5000 
    109 N         -5.0227  -17.3094  -55.5138 N.am      20 UNK        -0.5000 
    110 CA        -4.7864  -18.1025  -56.7165 C.3       20 UNK         0.1400 
    111 CB        -4.9763  -19.5903  -56.3811 C.3       20 UNK        -0.1800 
    112 C         -3.3930  -17.8662  -57.3255 C.2       20 UNK         0.5000 
    113 O         -3.2578  -17.9555  -58.5470 O.2       20 UNK        -0.5000 
    114 N         -2.3856  -17.5999  -56.4827 N.am      21 UNK        -0.5000 
    115 CA        -0.9848  -17.5428  -56.8839 C.3       21 UNK         0.1400 
    116 CB        -0.3598  -18.9491  -56.7793 C.3       21 UNK        -0.1800 
    117 C         -0.1912  -16.4889  -56.0962 C.2       21 UNK         0.5000 
    118 O          0.1116  -15.4313  -56.6506 O.2       21 UNK        -0.5000 
    119 N          0.2142  -16.8258  -54.8641 N.am      22 UNK        -0.5000 
    120 CA         1.3264  -16.1576  -54.1612 C.3       22 UNK         0.1400 
    121 C          1.0529  -14.7514  -53.5483 C.2       22 UNK         0.5000 
    122 N         -0.1722  -14.2489  -53.5186 N.am      22 UNK        -0.7600 
    123 O          1.9872  -14.0849  -53.1103 O.2       22 UNK        -0.5000 
    124 C124        2.0489  -17.1155  -53.1785 C.3       23 UNK        -0.0398 
    125 S125        1.0852  -17.5562  -51.6939 S.3       23 UNK        -0.2404 
    126 C126        0.6898  -19.3117  -51.9976 C.3       23 UNK        -0.0205 
    127 H127       -6.6686  -19.9989  -43.0321 H         1 UNK         0.0600 
    128 H128       -5.2111  -20.4819  -43.9025 H         1 UNK         0.0600 
    129 H129       -6.7791  -21.1360  -44.3812 H         1 UNK         0.0600 
    130 H130       -4.4943  -18.9914  -45.3857 H         1 UNK         0.3000 
    131 H131       -6.2107  -17.5832  -47.2124 H         1 UNK         0.0600 
    132 H132       -4.0994  -16.4651  -47.9293 H         1 UNK         0.0800 
    133 H133       -3.2437  -17.1779  -46.5867 H         1 UNK         0.0800 
    134 H134       -1.4914  -18.3610  -47.4691 H         1 UNK         0.0800 
    135 H135       -2.2076  -19.8289  -46.8265 H         1 UNK         0.0800 
    136 H136       -0.9078  -18.2950  -49.9654 H         1 UNK         0.1150 
    137 H137        0.8983  -21.9303  -51.3460 H         1 UNK         0.1150 
    138 H138       -1.4709  -21.9288  -47.7769 H         1 UNK         0.1150 
    139 H139       -0.8863  -24.0738  -48.9994 H         1 UNK         0.0800 
    140 H140        0.1921  -24.0239  -50.3634 H         1 UNK         0.0800 
    141 H141        0.1223  -23.2042  -46.3989 H         1 UNK         0.0800 
    142 H142       -0.2078  -24.8529  -46.8874 H         1 UNK         0.0800 
    143 H143        2.0513  -25.5504  -46.0122 H         1 UNK         0.0600 
    144 H144        2.3398  -22.7210  -45.4635 H         1 UNK         0.3000 
    145 H145        5.3334  -23.1520  -43.5091 H         1 UNK         0.0600 
    146 H146        6.0639  -21.4667  -45.1684 H         1 UNK         0.0600 
    147 H147        4.6965  -21.8559  -46.2105 H         1 UNK         0.0600 
    148 H148        5.9549  -23.0500  -45.9223 H         1 UNK         0.0600 
    149 H149        3.8501  -20.8101  -44.0962 H         1 UNK         0.3000 
    150 H150        1.7808  -20.8542  -41.1514 H         1 UNK         0.0600 
    151 H151        4.0296  -19.9565  -40.5200 H         1 UNK         0.0600 
    152 H152        2.8979  -18.6659  -40.8955 H         1 UNK         0.0600 
    153 H153        4.1362  -19.1188  -42.0640 H         1 UNK         0.0600 
    154 H154        1.9697  -18.9673  -43.2679 H         1 UNK         0.3000 
    155 H155       -0.5467  -20.4357  -45.3711 H         1 UNK         0.0600 
    156 H156       -1.7856  -19.0434  -43.7827 H         1 UNK         0.0600 
    157 H157       -1.3121  -18.0112  -45.1249 H         1 UNK         0.0600 
    158 H158       -0.4369  -17.9344  -43.6023 H         1 UNK         0.0600 
    159 H159        1.0398  -18.1356  -45.8023 H         1 UNK         0.3000 
    160 H160        3.8972  -19.7430  -47.2417 H         1 UNK         0.0600 
    161 H161        1.6309  -18.0539  -48.4231 H         1 UNK         0.0600 
    162 H162        2.3021  -19.5341  -49.0880 H         1 UNK         0.0600 
    163 H163        3.2889  -18.0837  -49.0223 H         1 UNK         0.0600 
    164 H164        3.0686  -17.0278  -46.6038 H         1 UNK         0.3000 
    165 H165        4.8110  -16.8816  -43.4908 H         1 UNK         0.0600 
    166 H166        5.9543  -14.9966  -44.6223 H         1 UNK         0.0600 
    167 H167        6.5921  -16.5254  -45.2060 H         1 UNK         0.0600 
    168 H168        5.4681  -15.6098  -46.2032 H         1 UNK         0.0600 
    169 H169        3.3914  -14.9245  -45.0303 H         1 UNK         0.3000 
    170 H170        0.1376  -15.6324  -43.8062 H         1 UNK         0.0600 
    171 H171        1.9954  -13.3278  -43.0189 H         1 UNK         0.0600 
    172 H172        0.2335  -13.3287  -42.9247 H         1 UNK         0.0600 
    173 H173        1.1689  -14.3953  -41.8904 H         1 UNK         0.0600 
    174 H174        0.8904  -13.4351  -45.3013 H         1 UNK         0.3000 
    175 H175        1.5009  -13.5557  -47.7657 H         1 UNK         0.0600 
    176 H176        1.5193  -15.5581  -49.1797 H         1 UNK         0.0600 
    177 H177       -0.2073  -15.7906  -48.9835 H         1 UNK         0.0600 
    178 H178        0.4004  -14.3940  -49.8697 H         1 UNK         0.0600 
    179 H179       -0.3662  -12.3630  -47.5753 H         1 UNK         0.3000 
    180 H180       -2.5983  -12.0362  -46.4016 H         1 UNK         0.0600 
    181 H181       -2.1309  -11.3378  -48.7672 H         1 UNK         0.0600 
    182 H182       -3.8349  -11.1194  -48.4113 H         1 UNK         0.0600 
    183 H183       -3.3061  -12.5033  -49.3660 H         1 UNK         0.0600 
    184 H184       -4.2071  -14.3027  -47.2365 H         1 UNK         0.3000 
    185 H185       -6.6121  -13.7829  -44.8925 H         1 UNK         0.0600 
    186 H186       -7.8110  -12.1439  -46.3261 H         1 UNK         0.0600 
    187 H187       -7.4422  -13.0911  -47.7619 H         1 UNK         0.0600 
    188 H188       -8.5030  -13.7462  -46.5135 H         1 UNK         0.0600 
    189 H189       -6.4932  -15.3090  -47.3966 H         1 UNK         0.3000 
    190 H190        1.3453  -23.6634  -43.2623 H         1 UNK         0.3000 
    191 H191        0.3165  -23.9371  -41.3359 H         1 UNK         0.0600 
    192 H192       -0.0656  -26.1861  -40.4019 H         1 UNK         0.0600 
    193 H193        1.4852  -26.1397  -41.2258 H         1 UNK         0.0600 
    194 H194        0.1024  -26.9258  -41.9865 H         1 UNK         0.0600 
    195 H195       -1.1215  -22.7821  -43.0838 H         1 UNK         0.3000 
    196 H196       -3.0592  -21.9397  -43.5970 H         1 UNK         0.0600 
    197 H197       -4.2902  -23.7397  -41.4470 H         1 UNK         0.0600 
    198 H198       -3.6019  -22.1366  -41.1895 H         1 UNK         0.0600 
    199 H199       -5.0498  -22.3303  -42.1647 H         1 UNK         0.0600 
    200 H200       -3.0482  -25.4395  -43.7325 H         1 UNK         0.3000 
    201 H201       -5.3321  -25.8487  -45.3965 H         1 UNK         0.0600 
    202 H202       -4.2474  -28.0818  -45.7833 H         1 UNK         0.0600 
    203 H203       -4.2225  -27.6548  -44.0793 H         1 UNK         0.0600 
    204 H204       -2.7596  -27.4924  -45.0503 H         1 UNK         0.0600 
    205 H205       -5.3915  -26.4456  -47.6302 H         1 UNK         0.3000 
    206 H206       -5.1384  -26.1427  -49.8122 H         1 UNK         0.0600 
    207 H207       -3.2619  -27.7497  -49.4238 H         1 UNK         0.0600 
    208 H208       -2.9405  -26.6955  -50.7902 H         1 UNK         0.0600 
    209 H209       -2.1362  -26.4037  -49.2544 H         1 UNK         0.0600 
    210 H210       -5.5647  -23.7958  -48.4904 H         1 UNK         0.3000 
    211 H211       -3.9323  -21.6279  -48.8442 H         1 UNK         0.0600 
    212 H212       -6.9902  -21.8372  -48.8521 H         1 UNK         0.0600 
    213 H213       -6.1296  -20.3175  -48.6907 H         1 UNK         0.0600 
    214 H214       -5.9420  -21.5560  -47.4603 H         1 UNK         0.0600 
    215 H215       -3.1546  -20.4862  -50.5331 H         1 UNK         0.3000 
    216 H216       -4.5769  -20.3923  -53.1295 H         1 UNK         0.0600 
    217 H217       -3.1933  -22.4726  -53.1620 H         1 UNK         0.0600 
    218 H218       -1.7598  -21.5366  -52.7529 H         1 UNK         0.0600 
    219 H219       -2.5686  -21.2891  -54.2959 H         1 UNK         0.0600 
    220 H220       -3.7309  -18.3596  -50.9581 H         1 UNK         0.3000 
    221 H221       -1.6818  -16.7352  -52.0905 H         1 UNK         0.0600 
    222 H222       -2.3860  -16.4726  -49.7435 H         1 UNK         0.0600 
    223 H223       -2.5813  -14.9555  -50.5937 H         1 UNK         0.0600 
    224 H224       -3.9935  -15.9458  -50.2468 H         1 UNK         0.0600 
    225 H225       -5.2559  -16.5098  -52.3757 H         1 UNK         0.3000 
    226 H226       -5.2462  -14.3139  -54.2237 H         1 UNK         0.0600 
    227 H227       -7.1893  -14.8470  -52.7708 H         1 UNK         0.0600 
    228 H228       -7.6645  -14.8893  -54.4608 H         1 UNK         0.0600 
    229 H229       -7.4083  -16.3953  -53.5879 H         1 UNK         0.0600 
    230 H230       -4.8632  -17.7629  -54.6280 H         1 UNK         0.3000 
    231 H231       -5.5306  -17.8304  -57.4683 H         1 UNK         0.0600 
    232 H232       -4.8674  -20.2066  -57.2744 H         1 UNK         0.0600 
    233 H233       -5.9693  -19.7817  -55.9739 H         1 UNK         0.0600 
    234 H234       -4.2409  -19.9372  -55.6553 H         1 UNK         0.0600 
    235 H235       -2.5642  -17.5757  -55.4843 H         1 UNK         0.3000 
    236 H236       -0.9200  -17.2357  -57.9301 H         1 UNK         0.0600 
    237 H237        0.7095  -18.9221  -56.9933 H         1 UNK         0.0600 
    238 H238       -0.4895  -19.3807  -55.7861 H         1 UNK         0.0600 
    239 H239       -0.8150  -19.6326  -57.4961 H         1 UNK         0.0600 
    240 H240       -0.1371  -17.6755  -54.4468 H         1 UNK         0.3000 
    241 H241        2.0684  -15.9488  -54.9350 H         1 UNK         0.0600 
    242 H242       -0.9754  -14.7725  -53.8580 H         1 UNK         0.3800 
    243 H243       -0.3125  -13.3298  -53.1338 H         1 UNK         0.3800 
    244 H244        2.3472  -18.0234  -53.7039 H         1 UNK         0.0800 
    245 H245        2.9826  -16.6634  -52.8399 H         1 UNK         0.0800 
    246 H246        1.6102  -19.8243  -52.2811 H         1 UNK         0.0800 
    247 H247        0.0132  -19.3881  -52.8484 H         1 UNK         0.0800 
@<TRIPOS>BOND
     1    1    2 1    
     2    1  127 1    
     3    1  128 1    
     4    1  129 1    
     5    2    3 2    
     6    2    4 am   BACKBONE|DICT|INTERRES
     7    4    5 1    
     8    4  130 1    
     9    5    6 1    
    10    5   65 1    
    11    5  131 1    
    12    6    7 1    
    13    6  132 1    
    14    6  133 1    
    15    7    8 1    
    16    8    9 1    
    17    8  134 1    
    18    8  135 1    
    19    9   10 ar   
    20    9   14 ar   
    21   10   11 ar   
    22   10  136 1    
    23   11   12 ar   
    24   11  126 1    
    25   12   13 ar   
    26   12  137 1    
    27   13   14 ar   
    28   13   15 1    
    29   14  138 1    
    30   15   16 1    
    31   15  139 1    
    32   15  140 1    
    33   16   17 1    
    34   17   18 1    
    35   17  141 1    
    36   17  142 1    
    37   18   19 1    
    38   18   67 1    
    39   18  143 1    
    40   19   20 am   BACKBONE|DICT|INTERRES
    41   19  144 1    
    42   20   21 2    
    43   20   22 1    
    44   22   23 1    
    45   22   24 1    
    46   22  145 1    
    47   23  146 1    
    48   23  147 1    
    49   23  148 1    
    50   24   25 am   BACKBONE|DICT|INTERRES
    51   24  149 1    
    52   25   26 2    
    53   25   27 1    
    54   27   28 1    
    55   27   29 1    
    56   27  150 1    
    57   28  151 1    
    58   28  152 1    
    59   28  153 1    
    60   29   30 am   BACKBONE|DICT|INTERRES
    61   29  154 1    
    62   30   31 2    
    63   30   32 1    
    64   32   33 1    
    65   32   34 1    
    66   32  155 1    
    67   33  156 1    
    68   33  157 1    
    69   33  158 1    
    70   34   35 am   BACKBONE|DICT|INTERRES
    71   34  159 1    
    72   35   36 2    
    73   35   37 1    
    74   37   38 1    
    75   37   39 1    
    76   37  160 1    
    77   38  161 1    
    78   38  162 1    
    79   38  163 1    
    80   39   40 am   BACKBONE|DICT|INTERRES
    81   39  164 1    
    82   40   41 2    
    83   40   42 1    
    84   42   43 1    
    85   42   44 1    
    86   42  165 1    
    87   43  166 1    
    88   43  167 1    
    89   43  168 1    
    90   44   45 am   BACKBONE|DICT|INTERRES
    91   44  169 1    
    92   45   46 2    
    93   45   47 1    
    94   47   48 1    
    95   47   49 1    
    96   47  170 1    
    97   48  171 1    
    98   48  172 1    
    99   48  173 1    
   100   49   50 am   BACKBONE|DICT|INTERRES
   101   49  174 1    
   102   50   51 2    
   103   50   52 1    
   104   52   53 1    
   105   52   54 1    
   106   52  175 1    
   107   53  176 1    
   108   53  177 1    
   109   53  178 1    
   110   54   55 am   BACKBONE|DICT|INTERRES
   111   54  179 1    
   112   55   56 2    
   113   55   57 1    
   114   57   58 1    
   115   57   59 1    
   116   57  180 1    
   117   58  181 1    
   118   58  182 1    
   119   58  183 1    
   120   59   60 am   BACKBONE|DICT|INTERRES
   121   59  184 1    
   122   60   61 2    
   123   60   62 1    
   124   62   63 1    
   125   62   64 1    
   126   62  185 1    
   127   63  186 1    
   128   63  187 1    
   129   63  188 1    
   130   64   65 am   BACKBONE|DICT|INTERRES
   131   64  189 1    
   132   65   66 2    
   133   67   68 2    
   134   67   69 am   BACKBONE|DICT|INTERRES
   135   69   70 1    
   136   69  190 1    
   137   70   71 1    
   138   70   72 1    
   139   70  191 1    
   140   71  192 1    
   141   71  193 1    
   142   71  194 1    
   143   72   73 2    
   144   72   74 am   BACKBONE|DICT|INTERRES
   145   74   75 1    
   146   74  195 1    
   147   75   76 1    
   148   75   77 1    
   149   75  196 1    
   150   76  197 1    
   151   76  198 1    
   152   76  199 1    
   153   77   78 2    
   154   77   79 am   BACKBONE|DICT|INTERRES
   155   79   80 1    
   156   79  200 1    
   157   80   81 1    
   158   80   82 1    
   159   80  201 1    
   160   81  202 1    
   161   81  203 1    
   162   81  204 1    
   163   82   83 2    
   164   82   84 am   BACKBONE|DICT|INTERRES
   165   84   85 1    
   166   84  205 1    
   167   85   86 1    
   168   85   87 1    
   169   85  206 1    
   170   86  207 1    
   171   86  208 1    
   172   86  209 1    
   173   87   88 2    
   174   87   89 am   BACKBONE|DICT|INTERRES
   175   89   90 1    
   176   89  210 1    
   177   90   91 1    
   178   90   92 1    
   179   90  211 1    
   180   91  212 1    
   181   91  213 1    
   182   91  214 1    
   183   92   93 2    
   184   92   94 am   BACKBONE|DICT|INTERRES
   185   94   95 1    
   186   94  215 1    
   187   95   96 1    
   188   95   97 1    
   189   95  216 1    
   190   96  217 1    
   191   96  218 1    
   192   96  219 1    
   193   97   98 2    
   194   97   99 am   BACKBONE|DICT|INTERRES
   195   99  100 1    
   196   99  220 1    
   197  100  101 1    
   198  100  102 1    
   199  100  221 1    
   200  101  222 1    
   201  101  223 1    
   202  101  224 1    
   203  102  103 2    
   204  102  104 am   BACKBONE|DICT|INTERRES
   205  104  105 1    
   206  104  225 1    
   207  105  106 1    
   208  105  107 1    
   209  105  226 1    
   210  106  227 1    
   211  106  228 1    
   212  106  229 1    
   213  107  108 2    
   214  107  109 am   BACKBONE|DICT|INTERRES
   215  109  110 1    
   216  109  230 1    
   217  110  111 1    
   218  110  112 1    
   219  110  231 1    
   220  111  232 1    
   221  111  233 1    
   222  111  234 1    
   223  112  113 2    
   224  112  114 am   BACKBONE|DICT|INTERRES
   225  114  115 1    
   226  114  235 1    
   227  115  116 1    
   228  115  117 1    
   229  115  236 1    
   230  116  237 1    
   231  116  238 1    
   232  116  239 1    
   233  117  118 2    
   234  117  119 am   BACKBONE|DICT|INTERRES
   235  119  120 1    
   236  119  240 1    
   237  120  121 1    
   238  120  124 1    
   239  120  241 1    
   240  121  122 am   BACKBONE|DICT|INTERRES
   241  121  123 2    
   242  122  242 1    
   243  122  243 1    
   244  124  125 1    
   245  124  244 1    
   246  124  245 1    
   247  125  126 1    
   248  126  246 1    
   249  126  247 1    
@<TRIPOS>SUBSTRUCTURE
     1 UNK         1 GROUP             0       ****    0 ROOT    
