@<TRIPOS>MOLECULE
3R540
247   249    1
SMALL
USER_CHARGES


@<TRIPOS>ATOM
      1 CA          5.6577  -10.0211  -50.8282 C.3       0 UNK        -0.1800 
      2 C           5.3863  -11.2405  -49.9586 C.2       0 UNK         0.5000 
      3 O           6.2005  -12.1632  -49.9272 O.2       0 UNK        -0.5000 
      4 N           4.2464  -11.2472  -49.2541 N.am      1 UNK        -0.5000 
      5 CA          3.8240  -12.3265  -48.3497 C.3       1 UNK         0.1400 
      6 C6          2.3019  -12.2430  -48.0472 C.3       23 UNK        -0.0398 
      7 S7          1.4963  -13.8782  -47.9937 S.3       23 UNK        -0.2404 
      8 C8          1.1862  -14.1281  -49.7684 C.3       23 UNK        -0.0205 
      9 C9          0.4805  -15.4456  -50.0439 C.ar      23 UNK        -0.0193 
     10 C10        -0.9130  -15.4895  -50.1191 C.ar      23 UNK        -0.1150 
     11 C11        -1.5715  -16.6845  -50.4187 C.ar      23 UNK        -0.0193 
     12 C12        -0.8241  -17.8443  -50.6523 C.ar      23 UNK        -0.1150 
     13 C13         0.5733  -17.8153  -50.5703 C.ar      23 UNK        -0.0193 
     14 C14         1.2178  -16.6131  -50.2607 C.ar      23 UNK        -0.1150 
     15 C15         1.3969  -19.0658  -50.8515 C.3       23 UNK        -0.0205 
     16 S16         1.7325  -20.0349  -49.3438 S.3       23 UNK        -0.2404 
     17 C17         0.1323  -20.8716  -49.1236 C.3       23 UNK        -0.0398 
     18 CA          0.1836  -22.0813  -48.1563 C.3       11 UNK         0.1400 
     19 N           0.3451  -21.6869  -46.7513 N.am      11 UNK        -0.5000 
     20 C           0.4424  -22.5379  -45.7173 C.2       10 UNK         0.5000 
     21 O           0.4884  -23.7617  -45.8396 O.2       10 UNK        -0.5000 
     22 CA          0.4217  -21.9330  -44.3013 C.3       10 UNK         0.1400 
     23 CB          1.8009  -21.3812  -43.9124 C.3       10 UNK        -0.1800 
     24 N          -0.6017  -20.8979  -44.1430 N.am      10 UNK        -0.5000 
     25 C          -1.9207  -21.1149  -44.2580 C.2       9 UNK         0.5000 
     26 O          -2.4147  -22.2213  -44.4673 O.2       9 UNK        -0.5000 
     27 CA         -2.8463  -19.8891  -44.1736 C.3       9 UNK         0.1400 
     28 CB         -3.1206  -19.5049  -42.7123 C.3       9 UNK        -0.1800 
     29 N          -2.3127  -18.7374  -44.8971 N.am      9 UNK        -0.5000 
     30 C          -2.1089  -18.7012  -46.2217 C.2       8 UNK         0.5000 
     31 O          -2.4145  -19.6158  -46.9885 O.2       8 UNK        -0.5000 
     32 CA         -1.3907  -17.4539  -46.7672 C.3       8 UNK         0.1400 
     33 CB         -2.3605  -16.2688  -46.8810 C.3       8 UNK        -0.1800 
     34 N          -0.2392  -17.0730  -45.9475 N.am      8 UNK        -0.5000 
     35 C           0.8497  -17.8363  -45.7773 C.2       7 UNK         0.5000 
     36 O           1.0074  -18.9285  -46.3173 O.2       7 UNK        -0.5000 
     37 CA          1.9120  -17.3295  -44.7874 C.3       7 UNK         0.1400 
     38 CB          2.9082  -16.3904  -45.4809 C.3       7 UNK        -0.1800 
     39 N           1.3207  -16.6627  -43.6273 N.am      7 UNK        -0.5000 
     40 C           0.5851  -17.2861  -42.6968 C.2       6 UNK         0.5000 
     41 O           0.3603  -18.4966  -42.7049 O.2       6 UNK        -0.5000 
     42 CA         -0.0447  -16.4045  -41.6042 C.3       6 UNK         0.1400 
     43 CB          1.0051  -15.9659  -40.5729 C.3       6 UNK        -0.1800 
     44 N          -0.7177  -15.2246  -42.1484 N.am      6 UNK        -0.5000 
     45 C          -1.7929  -15.2485  -42.9453 C.2       5 UNK         0.5000 
     46 O          -2.3351  -16.2894  -43.3142 O.2       5 UNK        -0.5000 
     47 CA         -2.3433  -13.8988  -43.4509 C.3       5 UNK         0.1400 
     48 CB         -3.2923  -13.2565  -42.4212 C.3       5 UNK        -0.1800 
     49 N          -1.3052  -12.9643  -43.9083 N.am      5 UNK        -0.5000 
     50 C          -0.3826  -12.3188  -43.1829 C.2       4 UNK         0.5000 
     51 O          -0.3206  -12.3483  -41.9513 O.2       4 UNK        -0.5000 
     52 CA          0.6816  -11.5446  -43.9841 C.3       4 UNK         0.1400 
     53 CB          0.3437  -10.0476  -44.0336 C.3       4 UNK        -0.1800 
     54 N           2.0341  -11.7135  -43.4473 N.am      4 UNK        -0.5000 
     55 C           2.6424  -12.8861  -43.2208 C.2       3 UNK         0.5000 
     56 O           2.1269  -13.9807  -43.4505 O.2       3 UNK        -0.5000 
     57 CA          4.0909  -12.8073  -42.7119 C.3       3 UNK         0.1400 
     58 CB          4.6054  -14.1501  -42.1632 C.3       3 UNK        -0.1800 
     59 N           4.9441  -12.3959  -43.8199 N.am      3 UNK        -0.5000 
     60 C           5.2408  -11.1345  -44.1447 C.2       2 UNK         0.5000 
     61 O           4.8942  -10.1578  -43.4791 O.2       2 UNK        -0.5000 
     62 CA          6.0144  -10.9267  -45.4591 C.3       2 UNK         0.1400 
     63 CB          7.3467  -11.7033  -45.4871 C.3       2 UNK        -0.1800 
     64 N           5.1984  -11.2061  -46.6467 N.am      2 UNK        -0.5000 
     65 C           4.6649  -12.3709  -47.0526 C.2       1 UNK         0.5000 
     66 O           4.8197  -13.4424  -46.4655 O.2       1 UNK        -0.5000 
     67 C          -1.0723  -22.9528  -48.3536 C.2       11 UNK         0.5000 
     68 O          -0.9758  -24.0372  -48.9308 O.2       11 UNK        -0.5000 
     69 N          -2.2197  -22.4707  -47.8543 N.am      12 UNK        -0.5000 
     70 CA         -3.5068  -23.1572  -47.9486 C.3       12 UNK         0.1400 
     71 CB         -4.6232  -22.2347  -47.4401 C.3       12 UNK        -0.1800 
     72 C          -3.5254  -24.5103  -47.2155 C.2       12 UNK         0.5000 
     73 O          -4.0410  -25.4858  -47.7604 O.2       12 UNK        -0.5000 
     74 N          -2.9292  -24.5591  -46.0165 N.am      13 UNK        -0.5000 
     75 CA         -2.7751  -25.7711  -45.2123 C.3       13 UNK         0.1400 
     76 CB         -2.2604  -25.4009  -43.8132 C.3       13 UNK        -0.1800 
     77 C          -1.8543  -26.8147  -45.8690 C.2       13 UNK         0.5000 
     78 O          -2.1666  -28.0048  -45.8225 O.2       13 UNK        -0.5000 
     79 N          -0.7523  -26.3559  -46.4802 N.am      14 UNK        -0.5000 
     80 CA          0.2005  -27.1967  -47.2060 C.3       14 UNK         0.1400 
     81 CB          1.4673  -26.3885  -47.5260 C.3       14 UNK        -0.1800 
     82 C          -0.3993  -27.8012  -48.4877 C.2       14 UNK         0.5000 
     83 O          -0.1772  -28.9813  -48.7626 O.2       14 UNK        -0.5000 
     84 N          -1.1566  -26.9906  -49.2390 N.am      15 UNK        -0.5000 
     85 CA         -1.8550  -27.4154  -50.4530 C.3       15 UNK         0.1400 
     86 CB         -2.2675  -26.1726  -51.2535 C.3       15 UNK        -0.1800 
     87 C          -3.0939  -28.2835  -50.1678 C.2       15 UNK         0.5000 
     88 O          -3.4413  -29.1240  -50.9981 O.2       15 UNK        -0.5000 
     89 N          -3.7493  -28.0326  -49.0240 N.am      16 UNK        -0.5000 
     90 CA         -5.0658  -28.5387  -48.6197 C.3       16 UNK         0.1400 
     91 CB         -5.0373  -30.0656  -48.4017 C.3       16 UNK        -0.1800 
     92 C          -6.1748  -28.0727  -49.5892 C.2       16 UNK         0.5000 
     93 O          -7.0895  -28.8348  -49.9083 O.2       16 UNK        -0.5000 
     94 N          -6.0486  -26.8265  -50.0600 N.am      17 UNK        -0.5000 
     95 CA         -6.8559  -26.1935  -51.0973 C.3       17 UNK         0.1400 
     96 CB         -6.5293  -26.8198  -52.4694 C.3       17 UNK        -0.1800 
     97 C          -6.5548  -24.6861  -51.0982 C.2       17 UNK         0.5000 
     98 O          -5.6789  -24.2328  -50.3564 O.2       17 UNK        -0.5000 
     99 N          -7.2634  -23.9306  -51.9467 N.am      18 UNK        -0.5000 
    100 CA        -7.0618  -22.4969  -52.1685 C.3       18 UNK         0.1400 
    101 CB        -8.3133  -21.9111  -52.8464 C.3       18 UNK        -0.1800 
    102 C         -5.7753  -22.2204  -52.9751 C.2       18 UNK         0.5000 
    103 O         -5.8413  -21.8726  -54.1564 O.2       18 UNK        -0.5000 
    104 N         -4.6232  -22.3996  -52.3160 N.am      19 UNK        -0.5000 
    105 CA        -3.2763  -22.1370  -52.8261 C.3       19 UNK         0.1400 
    106 CB        -2.2694  -22.3727  -51.6953 C.3       19 UNK        -0.1800 
    107 C         -3.1332  -20.6982  -53.3444 C.2       19 UNK         0.5000 
    108 O         -3.5779  -19.7738  -52.6616 O.2       19 UNK        -0.5000 
    109 N         -2.5659  -20.5408  -54.5479 N.am      20 UNK        -0.5000 
    110 CA        -2.3967  -19.2714  -55.2723 C.3       20 UNK         0.1400 
    111 CB        -1.3528  -18.3848  -54.5602 C.3       20 UNK        -0.1800 
    112 C         -3.7244  -18.5229  -55.5510 C.2       20 UNK         0.5000 
    113 O         -3.7087  -17.3107  -55.7685 O.2       20 UNK        -0.5000 
    114 N         -4.8445  -19.2646  -55.5377 N.am      21 UNK        -0.5000 
    115 CA        -6.2328  -18.8019  -55.6221 C.3       21 UNK         0.1400 
    116 CB        -6.5153  -18.1091  -56.9722 C.3       21 UNK        -0.1800 
    117 C         -6.6768  -17.9625  -54.4027 C.2       21 UNK         0.5000 
    118 O         -7.6002  -17.1553  -54.5267 O.2       21 UNK        -0.5000 
    119 N         -6.0374  -18.1738  -53.2450 N.am      22 UNK        -0.5000 
    120 CA        -6.3272  -17.4702  -51.9858 C.3       22 UNK         0.1400 
    121 C         -6.2556  -18.3664  -50.7196 C.2       22 UNK         0.5000 
    122 N         -5.5011  -19.4568  -50.7077 N.am      22 UNK        -0.7600 
    123 O         -6.9179  -18.0750  -49.7278 O.2       22 UNK        -0.5000 
    124 C124       -5.5076  -16.1605  -51.8268 C.3       23 UNK        -0.0398 
    125 S125       -3.7108  -16.3261  -52.1318 S.3       23 UNK        -0.2404 
    126 C126       -3.0901  -16.7151  -50.4695 C.3       23 UNK        -0.0205 
    127 H127        4.8536   -9.2878  -50.7622 H         1 UNK         0.0600 
    128 H128        5.7601  -10.3198  -51.8715 H         1 UNK         0.0600 
    129 H129        6.5845   -9.5382  -50.5182 H         1 UNK         0.0600 
    130 H130        3.6173  -10.4603  -49.3317 H         1 UNK         0.3000 
    131 H131        4.0216  -13.2628  -48.8764 H         1 UNK         0.0600 
    132 H132        1.7875  -11.6542  -48.8081 H         1 UNK         0.0800 
    133 H133        2.1036  -11.7225  -47.1084 H         1 UNK         0.0800 
    134 H134        0.5862  -13.3014  -50.1522 H         1 UNK         0.0800 
    135 H135        2.1321  -14.0969  -50.3112 H         1 UNK         0.0800 
    136 H136       -1.4876  -14.5899  -49.9485 H         1 UNK         0.1150 
    137 H137       -1.3326  -18.7661  -50.8990 H         1 UNK         0.1150 
    138 H138        2.2968  -16.5824  -50.2030 H         1 UNK         0.1150 
    139 H139        0.8988  -19.6881  -51.5965 H         1 UNK         0.0800 
    140 H140        2.3513  -18.7792  -51.2958 H         1 UNK         0.0800 
    141 H141       -0.1865  -21.1960  -50.1141 H         1 UNK         0.0800 
    142 H142       -0.6013  -20.1372  -48.7909 H         1 UNK         0.0800 
    143 H143        1.0448  -22.6981  -48.4216 H         1 UNK         0.0600 
    144 H144        0.3838  -20.6867  -46.5672 H         1 UNK         0.3000 
    145 H145        0.1782  -22.7375  -43.6043 H         1 UNK         0.0600 
    146 H146        1.7953  -20.9804  -42.8987 H         1 UNK         0.0600 
    147 H147        2.5561  -22.1672  -43.9479 H         1 UNK         0.0600 
    148 H148        2.1253  -20.5887  -44.5851 H         1 UNK         0.0600 
    149 H149       -0.2774  -19.9628  -43.9180 H         1 UNK         0.3000 
    150 H150       -3.7976  -20.1599  -44.6363 H         1 UNK         0.0600 
    151 H151       -3.5366  -20.3475  -42.1586 H         1 UNK         0.0600 
    152 H152       -3.8385  -18.6870  -42.6490 H         1 UNK         0.0600 
    153 H153       -2.2117  -19.1904  -42.1991 H         1 UNK         0.0600 
    154 H154       -2.0780  -17.9214  -44.3392 H         1 UNK         0.3000 
    155 H155       -1.0209  -17.6947  -47.7650 H         1 UNK         0.0600 
    156 H156       -1.8802  -15.4072  -47.3444 H         1 UNK         0.0600 
    157 H157       -3.2240  -16.5339  -47.4905 H         1 UNK         0.0600 
    158 H158       -2.7403  -15.9599  -45.9088 H         1 UNK         0.0600 
    159 H159       -0.2968  -16.2009  -45.4452 H         1 UNK         0.3000 
    160 H160        2.4684  -18.1974  -44.4288 H         1 UNK         0.0600 
    161 H161        2.4415  -15.4465  -45.7587 H         1 UNK         0.0600 
    162 H162        3.3098  -16.8401  -46.3898 H         1 UNK         0.0600 
    163 H163        3.7520  -16.1618  -44.8309 H         1 UNK         0.0600 
    164 H164        1.4923  -15.6614  -43.5407 H         1 UNK         0.3000 
    165 H165       -0.7950  -17.0069  -41.0878 H         1 UNK         0.0600 
    166 H166        1.7523  -15.3076  -41.0155 H         1 UNK         0.0600 
    167 H167        0.5417  -15.4333  -39.7424 H         1 UNK         0.0600 
    168 H168        1.5290  -16.8271  -40.1562 H         1 UNK         0.0600 
    169 H169       -0.3308  -14.3171  -41.9092 H         1 UNK         0.3000 
    170 H170       -2.9408  -14.1202  -44.3363 H         1 UNK         0.0600 
    171 H171       -4.1321  -13.9184  -42.2063 H         1 UNK         0.0600 
    172 H172       -2.7947  -13.0509  -41.4733 H         1 UNK         0.0600 
    173 H173       -3.7045  -12.3194  -42.7951 H         1 UNK         0.0600 
    174 H174       -1.2469  -12.8728  -44.9129 H         1 UNK         0.3000 
    175 H175        0.6943  -11.9294  -45.0058 H         1 UNK         0.0600 
    176 H176       -0.6492   -9.8840  -44.4546 H         1 UNK         0.0600 
    177 H177        0.3562   -9.6010  -43.0385 H         1 UNK         0.0600 
    178 H178        1.0535   -9.5022  -44.6560 H         1 UNK         0.0600 
    179 H179        2.5448  -10.8663  -43.2404 H         1 UNK         0.3000 
    180 H180        4.1331  -12.0738  -41.9040 H         1 UNK         0.0600 
    181 H181        3.9942  -14.4897  -41.3269 H         1 UNK         0.0600 
    182 H182        5.6287  -14.0580  -41.7993 H         1 UNK         0.0600 
    183 H183        4.5919  -14.9328  -42.9220 H         1 UNK         0.0600 
    184 H184        5.1500  -13.1070  -44.5147 H         1 UNK         0.3000 
    185 H185        6.2622   -9.8652  -45.5099 H         1 UNK         0.0600 
    186 H186        7.9666  -11.4399  -44.6293 H         1 UNK         0.0600 
    187 H187        7.2017  -12.7834  -45.4631 H         1 UNK         0.0600 
    188 H188        7.9175  -11.4661  -46.3849 H         1 UNK         0.0600 
    189 H189        4.9954  -10.3964  -47.2156 H         1 UNK         0.3000 
    190 H190       -2.2202  -21.5610  -47.4017 H         1 UNK         0.3000 
    191 H191       -3.6846  -23.3547  -49.0061 H         1 UNK         0.0600 
    192 H192       -4.4923  -21.9874  -46.3862 H         1 UNK         0.0600 
    193 H193       -5.5992  -22.7091  -47.5512 H         1 UNK         0.0600 
    194 H194       -4.6485  -21.3009  -48.0015 H         1 UNK         0.0600 
    195 H195       -2.5728  -23.6973  -45.6096 H         1 UNK         0.3000 
    196 H196       -3.7623  -26.2243  -45.1010 H         1 UNK         0.0600 
    197 H197       -2.1438  -26.2888  -43.1906 H         1 UNK         0.0600 
    198 H198       -2.9551  -24.7343  -43.3020 H         1 UNK         0.0600 
    199 H199       -1.2919  -24.9017  -43.8607 H         1 UNK         0.0600 
    200 H200       -0.5374  -25.3642  -46.4321 H         1 UNK         0.3000 
    201 H201        0.4854  -28.0232  -46.5515 H         1 UNK         0.0600 
    202 H202        1.9518  -26.0399  -46.6139 H         1 UNK         0.0600 
    203 H203        1.2446  -25.5153  -48.1400 H         1 UNK         0.0600 
    204 H204        2.1932  -26.9960  -48.0678 H         1 UNK         0.0600 
    205 H205       -1.2428  -26.0130  -48.9752 H         1 UNK         0.3000 
    206 H206       -1.1660  -28.0024  -51.0639 H         1 UNK         0.0600 
    207 H207       -1.3987  -25.5679  -51.5138 H         1 UNK         0.0600 
    208 H208       -2.7633  -26.4502  -52.1845 H         1 UNK         0.0600 
    209 H209       -2.9599  -25.5483  -50.6867 H         1 UNK         0.0600 
    210 H210       -3.4063  -27.2685  -48.4515 H         1 UNK         0.3000 
    211 H211       -5.2866  -28.0738  -47.6578 H         1 UNK         0.0600 
    212 H212       -4.8941  -30.6092  -49.3357 H         1 UNK         0.0600 
    213 H213       -5.9733  -30.4131  -47.9632 H         1 UNK         0.0600 
    214 H214       -4.2348  -30.3497  -47.7208 H         1 UNK         0.0600 
    215 H215       -5.3198  -26.2272  -49.6856 H         1 UNK         0.3000 
    216 H216       -7.9128  -26.3336  -50.8633 H         1 UNK         0.0600 
    217 H217       -5.4768  -26.6903  -52.7255 H         1 UNK         0.0600 
    218 H218       -7.1203  -26.3687  -53.2668 H         1 UNK         0.0600 
    219 H219       -6.7441  -27.8882  -52.4838 H         1 UNK         0.0600 
    220 H220       -7.9471  -24.3775  -52.5401 H         1 UNK         0.3000 
    221 H221       -6.9543  -22.0049  -51.1994 H         1 UNK         0.0600 
    222 H222       -9.1980  -22.0468  -52.2242 H         1 UNK         0.0600 
    223 H223       -8.5073  -22.3781  -53.8128 H         1 UNK         0.0600 
    224 H224       -8.1977  -20.8394  -53.0152 H         1 UNK         0.0600 
    225 H225       -4.6873  -22.7687  -51.3742 H         1 UNK         0.3000 
    226 H226       -3.0796  -22.8422  -53.6357 H         1 UNK         0.0600 
    227 H227       -2.3579  -23.3772  -51.2897 H         1 UNK         0.0600 
    228 H228       -1.2453  -22.2527  -52.0505 H         1 UNK         0.0600 
    229 H229       -2.4245  -21.6712  -50.8745 H         1 UNK         0.0600 
    230 H230       -2.2508  -21.3638  -55.0429 H         1 UNK         0.3000 
    231 H231       -1.9923  -19.5314  -56.2514 H         1 UNK         0.0600 
    232 H232       -1.7065  -18.0455  -53.5868 H         1 UNK         0.0600 
    233 H233       -1.1207  -17.4971  -55.1494 H         1 UNK         0.0600 
    234 H234       -0.4178  -18.9227  -54.4048 H         1 UNK         0.0600 
    235 H235       -4.7491  -20.2500  -55.3243 H         1 UNK         0.3000 
    236 H236       -6.8445  -19.7045  -55.5915 H         1 UNK         0.0600 
    237 H237       -7.5836  -17.9345  -57.1048 H         1 UNK         0.0600 
    238 H238       -6.0177  -17.1421  -57.0460 H         1 UNK         0.0600 
    239 H239       -6.1830  -18.7238  -57.8087 H         1 UNK         0.0600 
    240 H240       -5.2524  -18.8145  -53.2193 H         1 UNK         0.3000 
    241 H241       -7.3768  -17.1712  -52.0179 H         1 UNK         0.0600 
    242 H242       -5.4748  -20.0103  -49.8685 H         1 UNK         0.3800 
    243 H243       -4.8288  -19.6338  -51.4526 H         1 UNK         0.3800 
    244 H244       -5.6770  -15.7051  -50.8496 H         1 UNK         0.0800 
    245 H245       -5.8792  -15.4316  -52.5481 H         1 UNK         0.0800 
    246 H246       -3.4461  -17.6974  -50.1597 H         1 UNK         0.0800 
    247 H247       -3.4988  -15.9957  -49.7594 H         1 UNK         0.0800 
@<TRIPOS>BOND
     1    1    2 1    
     2    1  127 1    
     3    1  128 1    
     4    1  129 1    
     5    2    3 2    
     6    2    4 am   BACKBONE|DICT|INTERRES
     7    4    5 1    
     8    4  130 1    
     9    5    6 1    
    10    5   65 1    
    11    5  131 1    
    12    6    7 1    
    13    6  132 1    
    14    6  133 1    
    15    7    8 1    
    16    8    9 1    
    17    8  134 1    
    18    8  135 1    
    19    9   10 ar   
    20    9   14 ar   
    21   10   11 ar   
    22   10  136 1    
    23   11   12 ar   
    24   11  126 1    
    25   12   13 ar   
    26   12  137 1    
    27   13   14 ar   
    28   13   15 1    
    29   14  138 1    
    30   15   16 1    
    31   15  139 1    
    32   15  140 1    
    33   16   17 1    
    34   17   18 1    
    35   17  141 1    
    36   17  142 1    
    37   18   19 1    
    38   18   67 1    
    39   18  143 1    
    40   19   20 am   BACKBONE|DICT|INTERRES
    41   19  144 1    
    42   20   21 2    
    43   20   22 1    
    44   22   23 1    
    45   22   24 1    
    46   22  145 1    
    47   23  146 1    
    48   23  147 1    
    49   23  148 1    
    50   24   25 am   BACKBONE|DICT|INTERRES
    51   24  149 1    
    52   25   26 2    
    53   25   27 1    
    54   27   28 1    
    55   27   29 1    
    56   27  150 1    
    57   28  151 1    
    58   28  152 1    
    59   28  153 1    
    60   29   30 am   BACKBONE|DICT|INTERRES
    61   29  154 1    
    62   30   31 2    
    63   30   32 1    
    64   32   33 1    
    65   32   34 1    
    66   32  155 1    
    67   33  156 1    
    68   33  157 1    
    69   33  158 1    
    70   34   35 am   BACKBONE|DICT|INTERRES
    71   34  159 1    
    72   35   36 2    
    73   35   37 1    
    74   37   38 1    
    75   37   39 1    
    76   37  160 1    
    77   38  161 1    
    78   38  162 1    
    79   38  163 1    
    80   39   40 am   BACKBONE|DICT|INTERRES
    81   39  164 1    
    82   40   41 2    
    83   40   42 1    
    84   42   43 1    
    85   42   44 1    
    86   42  165 1    
    87   43  166 1    
    88   43  167 1    
    89   43  168 1    
    90   44   45 am   BACKBONE|DICT|INTERRES
    91   44  169 1    
    92   45   46 2    
    93   45   47 1    
    94   47   48 1    
    95   47   49 1    
    96   47  170 1    
    97   48  171 1    
    98   48  172 1    
    99   48  173 1    
   100   49   50 am   BACKBONE|DICT|INTERRES
   101   49  174 1    
   102   50   51 2    
   103   50   52 1    
   104   52   53 1    
   105   52   54 1    
   106   52  175 1    
   107   53  176 1    
   108   53  177 1    
   109   53  178 1    
   110   54   55 am   BACKBONE|DICT|INTERRES
   111   54  179 1    
   112   55   56 2    
   113   55   57 1    
   114   57   58 1    
   115   57   59 1    
   116   57  180 1    
   117   58  181 1    
   118   58  182 1    
   119   58  183 1    
   120   59   60 am   BACKBONE|DICT|INTERRES
   121   59  184 1    
   122   60   61 2    
   123   60   62 1    
   124   62   63 1    
   125   62   64 1    
   126   62  185 1    
   127   63  186 1    
   128   63  187 1    
   129   63  188 1    
   130   64   65 am   BACKBONE|DICT|INTERRES
   131   64  189 1    
   132   65   66 2    
   133   67   68 2    
   134   67   69 am   BACKBONE|DICT|INTERRES
   135   69   70 1    
   136   69  190 1    
   137   70   71 1    
   138   70   72 1    
   139   70  191 1    
   140   71  192 1    
   141   71  193 1    
   142   71  194 1    
   143   72   73 2    
   144   72   74 am   BACKBONE|DICT|INTERRES
   145   74   75 1    
   146   74  195 1    
   147   75   76 1    
   148   75   77 1    
   149   75  196 1    
   150   76  197 1    
   151   76  198 1    
   152   76  199 1    
   153   77   78 2    
   154   77   79 am   BACKBONE|DICT|INTERRES
   155   79   80 1    
   156   79  200 1    
   157   80   81 1    
   158   80   82 1    
   159   80  201 1    
   160   81  202 1    
   161   81  203 1    
   162   81  204 1    
   163   82   83 2    
   164   82   84 am   BACKBONE|DICT|INTERRES
   165   84   85 1    
   166   84  205 1    
   167   85   86 1    
   168   85   87 1    
   169   85  206 1    
   170   86  207 1    
   171   86  208 1    
   172   86  209 1    
   173   87   88 2    
   174   87   89 am   BACKBONE|DICT|INTERRES
   175   89   90 1    
   176   89  210 1    
   177   90   91 1    
   178   90   92 1    
   179   90  211 1    
   180   91  212 1    
   181   91  213 1    
   182   91  214 1    
   183   92   93 2    
   184   92   94 am   BACKBONE|DICT|INTERRES
   185   94   95 1    
   186   94  215 1    
   187   95   96 1    
   188   95   97 1    
   189   95  216 1    
   190   96  217 1    
   191   96  218 1    
   192   96  219 1    
   193   97   98 2    
   194   97   99 am   BACKBONE|DICT|INTERRES
   195   99  100 1    
   196   99  220 1    
   197  100  101 1    
   198  100  102 1    
   199  100  221 1    
   200  101  222 1    
   201  101  223 1    
   202  101  224 1    
   203  102  103 2    
   204  102  104 am   BACKBONE|DICT|INTERRES
   205  104  105 1    
   206  104  225 1    
   207  105  106 1    
   208  105  107 1    
   209  105  226 1    
   210  106  227 1    
   211  106  228 1    
   212  106  229 1    
   213  107  108 2    
   214  107  109 am   BACKBONE|DICT|INTERRES
   215  109  110 1    
   216  109  230 1    
   217  110  111 1    
   218  110  112 1    
   219  110  231 1    
   220  111  232 1    
   221  111  233 1    
   222  111  234 1    
   223  112  113 2    
   224  112  114 am   BACKBONE|DICT|INTERRES
   225  114  115 1    
   226  114  235 1    
   227  115  116 1    
   228  115  117 1    
   229  115  236 1    
   230  116  237 1    
   231  116  238 1    
   232  116  239 1    
   233  117  118 2    
   234  117  119 am   BACKBONE|DICT|INTERRES
   235  119  120 1    
   236  119  240 1    
   237  120  121 1    
   238  120  124 1    
   239  120  241 1    
   240  121  122 am   BACKBONE|DICT|INTERRES
   241  121  123 2    
   242  122  242 1    
   243  122  243 1    
   244  124  125 1    
   245  124  244 1    
   246  124  245 1    
   247  125  126 1    
   248  126  246 1    
   249  126  247 1    
@<TRIPOS>SUBSTRUCTURE
     1 UNK         1 GROUP             0       ****    0 ROOT    
