@<TRIPOS>MOLECULE
3R540
247   249    1
SMALL
USER_CHARGES


@<TRIPOS>ATOM
      1 CA         -0.4835  -16.9045  -50.9722 C.3       0 UNK        -0.1800 
      2 C          -0.7834  -15.4154  -51.0294 C.2       0 UNK         0.5000 
      3 O          -1.8740  -15.0175  -51.4364 O.2       0 UNK        -0.5000 
      4 N           0.2043  -14.6070  -50.6309 N.am      1 UNK        -0.5000 
      5 CA          0.1797  -13.1486  -50.5468 C.3       1 UNK         0.1400 
      6 C6          1.6091  -12.5339  -50.6063 C.3       23 UNK        -0.0398 
      7 S7          2.8592  -12.8916  -49.2985 S.3       23 UNK        -0.2404 
      8 C8          2.5668  -14.5824  -48.6545 C.3       23 UNK        -0.0205 
      9 C9          2.8984  -15.7509  -49.5882 C.ar      23 UNK        -0.0193 
     10 C10         3.3785  -15.5804  -50.8941 C.ar      23 UNK        -0.1150 
     11 C11         3.6352  -16.6833  -51.7125 C.ar      23 UNK        -0.0193 
     12 C12         3.4272  -17.9704  -51.2137 C.ar      23 UNK        -0.1150 
     13 C13         2.9344  -18.1649  -49.9208 C.ar      23 UNK        -0.0193 
     14 C14         2.6925  -17.0500  -49.1118 C.ar      23 UNK        -0.1150 
     15 C15         2.6756  -19.5791  -49.4120 C.3       23 UNK        -0.0205 
     16 S16         0.9405  -19.8458  -48.9049 S.3       23 UNK        -0.2404 
     17 C17         0.7558  -21.6402  -49.1993 C.3       23 UNK        -0.0398 
     18 CA          0.0265  -22.4476  -48.0972 C.3       11 UNK         0.1400 
     19 N           0.6335  -22.3336  -46.7663 N.am      11 UNK        -0.5000 
     20 C           0.4039  -23.2082  -45.7752 C.2       10 UNK         0.5000 
     21 O          -0.3016  -24.2066  -45.9209 O.2       10 UNK        -0.5000 
     22 CA          0.9773  -22.9095  -44.3776 C.3       10 UNK         0.1400 
     23 CB          1.5242  -24.1733  -43.6832 C.3       10 UNK        -0.1800 
     24 N           1.9460  -21.8141  -44.3300 N.am      10 UNK        -0.5000 
     25 C           3.1946  -21.7724  -44.8137 C.2       9 UNK         0.5000 
     26 O           3.7193  -22.6852  -45.4515 O.2       9 UNK        -0.5000 
     27 CA          3.9938  -20.4813  -44.5408 C.3       9 UNK         0.1400 
     28 CB          4.1364  -19.6598  -45.8300 C.3       9 UNK        -0.1800 
     29 N           3.3857  -19.6357  -43.5096 N.am      9 UNK        -0.5000 
     30 C           3.4092  -19.8859  -42.1934 C.2       8 UNK         0.5000 
     31 O           4.0183  -20.8287  -41.6870 O.2       8 UNK        -0.5000 
     32 CA          2.5782  -18.9462  -41.2991 C.3       8 UNK         0.1400 
     33 CB          3.3404  -17.6418  -41.0208 C.3       8 UNK        -0.1800 
     34 N           1.2606  -18.6369  -41.8634 N.am      8 UNK        -0.5000 
     35 C           0.2745  -19.5308  -42.0324 C.2       7 UNK         0.5000 
     36 O           0.3682  -20.7169  -41.7193 O.2       7 UNK        -0.5000 
     37 CA         -1.0219  -19.0315  -42.6942 C.3       7 UNK         0.1400 
     38 CB         -1.9130  -18.2989  -41.6807 C.3       7 UNK        -0.1800 
     39 N          -0.7510  -18.1624  -43.8374 N.am      7 UNK        -0.5000 
     40 C          -0.2774  -18.5899  -45.0151 C.2       6 UNK         0.5000 
     41 O          -0.1431  -19.7797  -45.3039 O.2       6 UNK        -0.5000 
     42 CA          0.1416  -17.5184  -46.0362 C.3       6 UNK         0.1400 
     43 CB         -1.0154  -17.1630  -46.9788 C.3       6 UNK        -0.1800 
     44 N           0.6550  -16.2964  -45.4184 N.am      6 UNK        -0.5000 
     45 C           1.7910  -16.2148  -44.7141 C.2       5 UNK         0.5000 
     46 O           2.5525  -17.1628  -44.5395 O.2       5 UNK        -0.5000 
     47 CA          2.1004  -14.8661  -44.0439 C.3       5 UNK         0.1400 
     48 CB          2.7429  -13.8840  -45.0325 C.3       5 UNK        -0.1800 
     49 N           0.9051  -14.2633  -43.4580 N.am      5 UNK        -0.5000 
     50 C           0.2811  -14.7346  -42.3702 C.2       4 UNK         0.5000 
     51 O           0.6634  -15.7173  -41.7350 O.2       4 UNK        -0.5000 
     52 CA         -1.0088  -14.0081  -41.9496 C.3       4 UNK         0.1400 
     53 CB         -0.6821  -12.7590  -41.1177 C.3       4 UNK        -0.1800 
     54 N          -1.8342  -13.6271  -43.0971 N.am      4 UNK        -0.5000 
     55 C          -2.4590  -14.5031  -43.8959 C.2       3 UNK         0.5000 
     56 O          -2.4237  -15.7219  -43.7337 O.2       3 UNK        -0.5000 
     57 CA         -3.2121  -13.9215  -45.1055 C.3       3 UNK         0.1400 
     58 CB         -4.6183  -13.4589  -44.6958 C.3       3 UNK        -0.1800 
     59 N          -2.5094  -12.8189  -45.7699 N.am      3 UNK        -0.5000 
     60 C          -1.2968  -12.9189  -46.3292 C.2       2 UNK         0.5000 
     61 O          -0.5845  -13.9209  -46.2479 O.2       2 UNK        -0.5000 
     62 CA         -0.7758  -11.6913  -47.0942 C.3       2 UNK         0.1400 
     63 CB          0.1969  -10.8834  -46.2222 C.3       2 UNK        -0.1800 
     64 N          -0.0934  -12.1043  -48.3205 N.am      2 UNK        -0.5000 
     65 C          -0.7065  -12.6437  -49.3822 C.2       1 UNK         0.5000 
     66 O          -1.9332  -12.7217  -49.4710 O.2       1 UNK        -0.5000 
     67 C          -1.4970  -22.1991  -48.0631 C.2       11 UNK         0.5000 
     68 O          -2.2281  -22.8559  -48.8061 O.2       11 UNK        -0.5000 
     69 N          -1.9601  -21.3310  -47.1479 N.am      12 UNK        -0.5000 
     70 CA         -3.3816  -21.1272  -46.8545 C.3       12 UNK         0.1400 
     71 CB         -3.5593  -19.9282  -45.9123 C.3       12 UNK        -0.1800 
     72 C          -4.0466  -22.3814  -46.2623 C.2       12 UNK         0.5000 
     73 O          -5.1616  -22.7222  -46.6558 O.2       12 UNK        -0.5000 
     74 N          -3.3366  -23.0566  -45.3489 N.am      13 UNK        -0.5000 
     75 CA         -3.7840  -24.2879  -44.7003 C.3       13 UNK         0.1400 
     76 CB         -2.9002  -24.5721  -43.4756 C.3       13 UNK        -0.1800 
     77 C          -3.7929  -25.4860  -45.6654 C.2       13 UNK         0.5000 
     78 O          -4.7467  -26.2642  -45.6533 O.2       13 UNK        -0.5000 
     79 N          -2.7428  -25.5999  -46.4908 N.am      14 UNK        -0.5000 
     80 CA         -2.5703  -26.6609  -47.4824 C.3       14 UNK         0.1400 
     81 CB         -1.1478  -26.5974  -48.0591 C.3       14 UNK        -0.1800 
     82 C          -3.6149  -26.6067  -48.6104 C.2       14 UNK         0.5000 
     83 O          -4.1643  -27.6471  -48.9753 O.2       14 UNK        -0.5000 
     84 N          -3.8759  -25.4020  -49.1371 N.am      15 UNK        -0.5000 
     85 CA         -4.8596  -25.1806  -50.1989 C.3       15 UNK         0.1400 
     86 CB         -4.5513  -23.8498  -50.8931 C.3       15 UNK        -0.1800 
     87 C          -6.3095  -25.1721  -49.6822 C.2       15 UNK         0.5000 
     88 O          -7.2244  -25.4532  -50.4553 O.2       15 UNK        -0.5000 
     89 N          -6.4918  -24.8039  -48.4056 N.am      16 UNK        -0.5000 
     90 CA         -7.7431  -24.6218  -47.6562 C.3       16 UNK         0.1400 
     91 CB         -8.6094  -25.8960  -47.6698 C.3       16 UNK        -0.1800 
     92 C          -8.5596  -23.3748  -48.0596 C.2       16 UNK         0.5000 
     93 O          -9.3232  -22.8694  -47.2356 O.2       16 UNK        -0.5000 
     94 N          -8.3759  -22.8774  -49.2863 N.am      17 UNK        -0.5000 
     95 CA         -8.9479  -21.6467  -49.8161 C.3       17 UNK         0.1400 
     96 CB        -10.3453  -21.9231  -50.3954 C.3       17 UNK        -0.1800 
     97 C          -7.9995  -21.1040  -50.8934 C.2       17 UNK         0.5000 
     98 O          -7.3207  -21.8905  -51.5580 O.2       17 UNK        -0.5000 
     99 N          -7.9535  -19.7712  -51.0322 N.am      18 UNK        -0.5000 
    100 CA        -7.1853  -18.9818  -52.0128 C.3       18 UNK         0.1400 
    101 CB        -7.6625  -19.2941  -53.4460 C.3       18 UNK        -0.1800 
    102 C         -5.6451  -19.0818  -51.9074 C.2       18 UNK         0.5000 
    103 O         -4.9474  -18.4238  -52.6817 O.2       18 UNK        -0.5000 
    104 N         -5.1383  -19.9078  -50.9792 N.am      19 UNK        -0.5000 
    105 CA        -3.7261  -20.1911  -50.6931 C.3       19 UNK         0.1400 
    106 CB        -3.0820  -18.9933  -49.9739 C.3       19 UNK        -0.1800 
    107 C         -2.9120  -20.6805  -51.9110 C.2       19 UNK         0.5000 
    108 O         -1.6943  -20.5007  -51.9501 O.2       19 UNK        -0.5000 
    109 N         -3.6119  -21.2676  -52.8967 N.am      20 UNK        -0.5000 
    110 CA        -3.1165  -21.7277  -54.1998 C.3       20 UNK         0.1400 
    111 CB        -2.2667  -23.0035  -54.0278 C.3       20 UNK        -0.1800 
    112 C         -2.3898  -20.6273  -55.0078 C.2       20 UNK         0.5000 
    113 O         -1.4709  -20.9324  -55.7694 O.2       20 UNK        -0.5000 
    114 N         -2.7795  -19.3611  -54.7880 N.am      21 UNK        -0.5000 
    115 CA        -2.1811  -18.1093  -55.2743 C.3       21 UNK         0.1400 
    116 CB        -2.1784  -18.0350  -56.8132 C.3       21 UNK        -0.1800 
    117 C         -0.7837  -17.8002  -54.6926 C.2       21 UNK         0.5000 
    118 O         -0.5216  -16.6438  -54.3682 O.2       21 UNK        -0.5000 
    119 N          0.0621  -18.8247  -54.5511 N.am      22 UNK        -0.5000 
    120 CA         1.3901  -18.8193  -53.9246 C.3       22 UNK         0.1400 
    121 C          1.7770  -20.2647  -53.4864 C.2       22 UNK         0.5000 
    122 N          0.8651  -21.0420  -52.9183 N.am      22 UNK        -0.7600 
    123 O          2.9088  -20.7086  -53.6588 O.2       22 UNK        -0.5000 
    124 C124        2.4774  -18.1011  -54.7873 C.3       23 UNK        -0.0398 
    125 S125        2.7556  -16.3552  -54.3230 S.3       23 UNK        -0.2404 
    126 C126        4.1346  -16.4778  -53.1353 C.3       23 UNK        -0.0205 
    127 H127       -0.7113  -17.2975  -49.9834 H         1 UNK         0.0600 
    128 H128       -1.0713  -17.4510  -51.7090 H         1 UNK         0.0600 
    129 H129        0.5675  -17.0961  -51.1773 H         1 UNK         0.0600 
    130 H130        1.0735  -15.0302  -50.3363 H         1 UNK         0.3000 
    131 H131       -0.3255  -12.8020  -51.4510 H         1 UNK         0.0600 
    132 H132        1.5218  -11.4477  -50.6676 H         1 UNK         0.0800 
    133 H133        2.0599  -12.8177  -51.5580 H         1 UNK         0.0800 
    134 H134        1.5438  -14.6688  -48.2848 H         1 UNK         0.0800 
    135 H135        3.2048  -14.6955  -47.7784 H         1 UNK         0.0800 
    136 H136        3.5554  -14.5940  -51.2939 H         1 UNK         0.1150 
    137 H137        3.6412  -18.8224  -51.8417 H         1 UNK         0.1150 
    138 H138        2.3318  -17.1943  -48.1060 H         1 UNK         0.1150 
    139 H139        2.9310  -20.2967  -50.1932 H         1 UNK         0.0800 
    140 H140        3.3382  -19.7916  -48.5752 H         1 UNK         0.0800 
    141 H141        1.7454  -22.0769  -49.3364 H         1 UNK         0.0800 
    142 H142        0.2483  -21.7708  -50.1567 H         1 UNK         0.0800 
    143 H143        0.1361  -23.4935  -48.3915 H         1 UNK         0.0600 
    144 H144        1.1495  -21.4889  -46.5643 H         1 UNK         0.3000 
    145 H145        0.1265  -22.5643  -43.7890 H         1 UNK         0.0600 
    146 H146        1.8999  -23.9426  -42.6863 H         1 UNK         0.0600 
    147 H147        0.7441  -24.9264  -43.5671 H         1 UNK         0.0600 
    148 H148        2.3340  -24.6313  -44.2514 H         1 UNK         0.0600 
    149 H149        1.6177  -20.9867  -43.8514 H         1 UNK         0.3000 
    150 H150        4.9913  -20.7739  -44.2072 H         1 UNK         0.0600 
    151 H151        4.6355  -20.2385  -46.6079 H         1 UNK         0.0600 
    152 H152        4.7307  -18.7613  -45.6626 H         1 UNK         0.0600 
    153 H153        3.1639  -19.3494  -46.2143 H         1 UNK         0.0600 
    154 H154        2.9231  -18.7894  -43.8386 H         1 UNK         0.3000 
    155 H155        2.4200  -19.4529  -40.3448 H         1 UNK         0.0600 
    156 H156        3.5123  -17.0722  -41.9341 H         1 UNK         0.0600 
    157 H157        4.3137  -17.8461  -40.5731 H         1 UNK         0.0600 
    158 H158        2.7909  -17.0046  -40.3278 H         1 UNK         0.0600 
    159 H159        1.0872  -17.6655  -42.1002 H         1 UNK         0.3000 
    160 H160       -1.5697  -19.9068  -43.0486 H         1 UNK         0.0600 
    161 H161       -2.8650  -18.0148  -42.1296 H         1 UNK         0.0600 
    162 H162       -1.4387  -17.3928  -41.3038 H         1 UNK         0.0600 
    163 H163       -2.1347  -18.9356  -40.8234 H         1 UNK         0.0600 
    164 H164       -0.9286  -17.1723  -43.7122 H         1 UNK         0.3000 
    165 H165        0.9444  -17.9550  -46.6277 H         1 UNK         0.0600 
    166 H166       -0.7101  -16.4146  -47.7102 H         1 UNK         0.0600 
    167 H167       -1.3491  -18.0410  -47.5321 H         1 UNK         0.0600 
    168 H168       -1.8712  -16.7654  -46.4325 H         1 UNK         0.0600 
    169 H169        0.1083  -15.4493  -45.5627 H         1 UNK         0.3000 
    170 H170        2.8174  -15.0492  -43.2409 H         1 UNK         0.0600 
    171 H171        3.6683  -14.2936  -45.4388 H         1 UNK         0.0600 
    172 H172        2.0816  -13.6631  -45.8697 H         1 UNK         0.0600 
    173 H173        2.9931  -12.9413  -44.5459 H         1 UNK         0.0600 
    174 H174        0.4908  -13.4925  -43.9599 H         1 UNK         0.3000 
    175 H175       -1.5874  -14.6923  -41.3251 H         1 UNK         0.0600 
    176 H176       -1.5908  -12.2809  -40.7515 H         1 UNK         0.0600 
    177 H177       -0.0787  -13.0180  -40.2465 H         1 UNK         0.0600 
    178 H178       -0.1240  -12.0218  -41.6963 H         1 UNK         0.0600 
    179 H179       -1.9113  -12.6423  -43.3041 H         1 UNK         0.3000 
    180 H180       -3.3209  -14.7257  -45.8363 H         1 UNK         0.0600 
    181 H181       -4.5806  -12.6233  -43.9958 H         1 UNK         0.0600 
    182 H182       -5.1701  -14.2669  -44.2134 H         1 UNK         0.0600 
    183 H183       -5.1988  -13.1448  -45.5635 H         1 UNK         0.0600 
    184 H184       -3.0252  -11.9567  -45.8719 H         1 UNK         0.3000 
    185 H185       -1.6186  -11.0511  -47.3630 H         1 UNK         0.0600 
    186 H186        1.0743  -11.4676  -45.9446 H         1 UNK         0.0600 
    187 H187        0.5425   -9.9905  -46.7434 H         1 UNK         0.0600 
    188 H188       -0.2843  -10.5545  -45.3002 H         1 UNK         0.0600 
    189 H189        0.9175  -12.0963  -48.3014 H         1 UNK         0.3000 
    190 H190       -1.2913  -20.8382  -46.5634 H         1 UNK         0.3000 
    191 H191       -3.8990  -20.8967  -47.7845 H         1 UNK         0.0600 
    192 H192       -3.1918  -19.0099  -46.3669 H         1 UNK         0.0600 
    193 H193       -3.0328  -20.0736  -44.9694 H         1 UNK         0.0600 
    194 H194       -4.6125  -19.7693  -45.6772 H         1 UNK         0.0600 
    195 H195       -2.4131  -22.7272  -45.1148 H         1 UNK         0.3000 
    196 H196       -4.8070  -24.1349  -44.3495 H         1 UNK         0.0600 
    197 H197       -3.2397  -25.4660  -42.9510 H         1 UNK         0.0600 
    198 H198       -2.9333  -23.7464  -42.7646 H         1 UNK         0.0600 
    199 H199       -1.8586  -24.7332  -43.7540 H         1 UNK         0.0600 
    200 H200       -1.9665  -24.9516  -46.3850 H         1 UNK         0.3000 
    201 H201       -2.6844  -27.6178  -46.9689 H         1 UNK         0.0600 
    202 H202       -0.3988  -26.7071  -47.2747 H         1 UNK         0.0600 
    203 H203       -0.9630  -25.6516  -48.5688 H         1 UNK         0.0600 
    204 H204       -0.9825  -27.3980  -48.7812 H         1 UNK         0.0600 
    205 H205       -3.3545  -24.5917  -48.8177 H         1 UNK         0.3000 
    206 H206       -4.7663  -25.9793  -50.9379 H         1 UNK         0.0600 
    207 H207       -3.5074  -23.7935  -51.2012 H         1 UNK         0.0600 
    208 H208       -5.1663  -23.7224  -51.7847 H         1 UNK         0.0600 
    209 H209       -4.7550  -23.0093  -50.2312 H         1 UNK         0.0600 
    210 H210       -5.6669  -24.5280  -47.8876 H         1 UNK         0.3000 
    211 H211       -7.4314  -24.4558  -46.6238 H         1 UNK         0.0600 
    212 H212       -9.0205  -26.1019  -48.6581 H         1 UNK         0.0600 
    213 H213       -9.4522  -25.7972  -46.9847 H         1 UNK         0.0600 
    214 H214       -8.0343  -26.7667  -47.3544 H         1 UNK         0.0600 
    215 H215       -7.7510  -23.3589  -49.9227 H         1 UNK         0.3000 
    216 H216       -9.0238  -20.9092  -49.0143 H         1 UNK         0.0600 
    217 H217      -10.7837  -21.0150  -50.8109 H         1 UNK         0.0600 
    218 H218      -11.0262  -22.2907  -49.6275 H         1 UNK         0.0600 
    219 H219      -10.3078  -22.6663  -51.1931 H         1 UNK         0.0600 
    220 H220       -8.5307  -19.2178  -50.4133 H         1 UNK         0.3000 
    221 H221       -7.4265  -17.9378  -51.8079 H         1 UNK         0.0600 
    222 H222       -7.4087  -20.3109  -53.7469 H         1 UNK         0.0600 
    223 H223       -8.7424  -19.1774  -53.5362 H         1 UNK         0.0600 
    224 H224       -7.2043  -18.6181  -54.1691 H         1 UNK         0.0600 
    225 H225       -5.8072  -20.4405  -50.4423 H         1 UNK         0.3000 
    226 H226       -3.7188  -21.0267  -49.9992 H         1 UNK         0.0600 
    227 H227       -3.6309  -18.7331  -49.0693 H         1 UNK         0.0600 
    228 H228       -2.0592  -19.2222  -49.6739 H         1 UNK         0.0600 
    229 H229       -3.0598  -18.1107  -50.6124 H         1 UNK         0.0600 
    230 H230       -4.6093  -21.3543  -52.7582 H         1 UNK         0.3000 
    231 H231       -3.9967  -21.9947  -54.7860 H         1 UNK         0.0600 
    232 H232       -2.8321  -23.7875  -53.5253 H         1 UNK         0.0600 
    233 H233       -1.3652  -22.8145  -53.4452 H         1 UNK         0.0600 
    234 H234       -1.9555  -23.4047  -54.9928 H         1 UNK         0.0600 
    235 H235       -3.5163  -19.2234  -54.1043 H         1 UNK         0.3000 
    236 H236       -2.8442  -17.3211  -54.9138 H         1 UNK         0.0600 
    237 H237       -1.8556  -17.0495  -57.1507 H         1 UNK         0.0600 
    238 H238       -1.5025  -18.7652  -57.2585 H         1 UNK         0.0600 
    239 H239       -3.1754  -18.2074  -57.2185 H         1 UNK         0.0600 
    240 H240       -0.2570  -19.7364  -54.8673 H         1 UNK         0.3000 
    241 H241        1.2926  -18.2804  -52.9839 H         1 UNK         0.0600 
    242 H242        1.1299  -21.9777  -52.6612 H         1 UNK         0.3800 
    243 H243       -0.0644  -20.7028  -52.6711 H         1 UNK         0.3800 
    244 H244        3.4465  -18.5974  -54.7452 H         1 UNK         0.0800 
    245 H245        2.1992  -18.1324  -55.8415 H         1 UNK         0.0800 
    246 H246        4.7172  -15.5568  -53.1870 H         1 UNK         0.0800 
    247 H247        4.8187  -17.2781  -53.4205 H         1 UNK         0.0800 
@<TRIPOS>BOND
     1    1    2 1    
     2    1  127 1    
     3    1  128 1    
     4    1  129 1    
     5    2    3 2    
     6    2    4 am   BACKBONE|DICT|INTERRES
     7    4    5 1    
     8    4  130 1    
     9    5    6 1    
    10    5   65 1    
    11    5  131 1    
    12    6    7 1    
    13    6  132 1    
    14    6  133 1    
    15    7    8 1    
    16    8    9 1    
    17    8  134 1    
    18    8  135 1    
    19    9   10 ar   
    20    9   14 ar   
    21   10   11 ar   
    22   10  136 1    
    23   11   12 ar   
    24   11  126 1    
    25   12   13 ar   
    26   12  137 1    
    27   13   14 ar   
    28   13   15 1    
    29   14  138 1    
    30   15   16 1    
    31   15  139 1    
    32   15  140 1    
    33   16   17 1    
    34   17   18 1    
    35   17  141 1    
    36   17  142 1    
    37   18   19 1    
    38   18   67 1    
    39   18  143 1    
    40   19   20 am   BACKBONE|DICT|INTERRES
    41   19  144 1    
    42   20   21 2    
    43   20   22 1    
    44   22   23 1    
    45   22   24 1    
    46   22  145 1    
    47   23  146 1    
    48   23  147 1    
    49   23  148 1    
    50   24   25 am   BACKBONE|DICT|INTERRES
    51   24  149 1    
    52   25   26 2    
    53   25   27 1    
    54   27   28 1    
    55   27   29 1    
    56   27  150 1    
    57   28  151 1    
    58   28  152 1    
    59   28  153 1    
    60   29   30 am   BACKBONE|DICT|INTERRES
    61   29  154 1    
    62   30   31 2    
    63   30   32 1    
    64   32   33 1    
    65   32   34 1    
    66   32  155 1    
    67   33  156 1    
    68   33  157 1    
    69   33  158 1    
    70   34   35 am   BACKBONE|DICT|INTERRES
    71   34  159 1    
    72   35   36 2    
    73   35   37 1    
    74   37   38 1    
    75   37   39 1    
    76   37  160 1    
    77   38  161 1    
    78   38  162 1    
    79   38  163 1    
    80   39   40 am   BACKBONE|DICT|INTERRES
    81   39  164 1    
    82   40   41 2    
    83   40   42 1    
    84   42   43 1    
    85   42   44 1    
    86   42  165 1    
    87   43  166 1    
    88   43  167 1    
    89   43  168 1    
    90   44   45 am   BACKBONE|DICT|INTERRES
    91   44  169 1    
    92   45   46 2    
    93   45   47 1    
    94   47   48 1    
    95   47   49 1    
    96   47  170 1    
    97   48  171 1    
    98   48  172 1    
    99   48  173 1    
   100   49   50 am   BACKBONE|DICT|INTERRES
   101   49  174 1    
   102   50   51 2    
   103   50   52 1    
   104   52   53 1    
   105   52   54 1    
   106   52  175 1    
   107   53  176 1    
   108   53  177 1    
   109   53  178 1    
   110   54   55 am   BACKBONE|DICT|INTERRES
   111   54  179 1    
   112   55   56 2    
   113   55   57 1    
   114   57   58 1    
   115   57   59 1    
   116   57  180 1    
   117   58  181 1    
   118   58  182 1    
   119   58  183 1    
   120   59   60 am   BACKBONE|DICT|INTERRES
   121   59  184 1    
   122   60   61 2    
   123   60   62 1    
   124   62   63 1    
   125   62   64 1    
   126   62  185 1    
   127   63  186 1    
   128   63  187 1    
   129   63  188 1    
   130   64   65 am   BACKBONE|DICT|INTERRES
   131   64  189 1    
   132   65   66 2    
   133   67   68 2    
   134   67   69 am   BACKBONE|DICT|INTERRES
   135   69   70 1    
   136   69  190 1    
   137   70   71 1    
   138   70   72 1    
   139   70  191 1    
   140   71  192 1    
   141   71  193 1    
   142   71  194 1    
   143   72   73 2    
   144   72   74 am   BACKBONE|DICT|INTERRES
   145   74   75 1    
   146   74  195 1    
   147   75   76 1    
   148   75   77 1    
   149   75  196 1    
   150   76  197 1    
   151   76  198 1    
   152   76  199 1    
   153   77   78 2    
   154   77   79 am   BACKBONE|DICT|INTERRES
   155   79   80 1    
   156   79  200 1    
   157   80   81 1    
   158   80   82 1    
   159   80  201 1    
   160   81  202 1    
   161   81  203 1    
   162   81  204 1    
   163   82   83 2    
   164   82   84 am   BACKBONE|DICT|INTERRES
   165   84   85 1    
   166   84  205 1    
   167   85   86 1    
   168   85   87 1    
   169   85  206 1    
   170   86  207 1    
   171   86  208 1    
   172   86  209 1    
   173   87   88 2    
   174   87   89 am   BACKBONE|DICT|INTERRES
   175   89   90 1    
   176   89  210 1    
   177   90   91 1    
   178   90   92 1    
   179   90  211 1    
   180   91  212 1    
   181   91  213 1    
   182   91  214 1    
   183   92   93 2    
   184   92   94 am   BACKBONE|DICT|INTERRES
   185   94   95 1    
   186   94  215 1    
   187   95   96 1    
   188   95   97 1    
   189   95  216 1    
   190   96  217 1    
   191   96  218 1    
   192   96  219 1    
   193   97   98 2    
   194   97   99 am   BACKBONE|DICT|INTERRES
   195   99  100 1    
   196   99  220 1    
   197  100  101 1    
   198  100  102 1    
   199  100  221 1    
   200  101  222 1    
   201  101  223 1    
   202  101  224 1    
   203  102  103 2    
   204  102  104 am   BACKBONE|DICT|INTERRES
   205  104  105 1    
   206  104  225 1    
   207  105  106 1    
   208  105  107 1    
   209  105  226 1    
   210  106  227 1    
   211  106  228 1    
   212  106  229 1    
   213  107  108 2    
   214  107  109 am   BACKBONE|DICT|INTERRES
   215  109  110 1    
   216  109  230 1    
   217  110  111 1    
   218  110  112 1    
   219  110  231 1    
   220  111  232 1    
   221  111  233 1    
   222  111  234 1    
   223  112  113 2    
   224  112  114 am   BACKBONE|DICT|INTERRES
   225  114  115 1    
   226  114  235 1    
   227  115  116 1    
   228  115  117 1    
   229  115  236 1    
   230  116  237 1    
   231  116  238 1    
   232  116  239 1    
   233  117  118 2    
   234  117  119 am   BACKBONE|DICT|INTERRES
   235  119  120 1    
   236  119  240 1    
   237  120  121 1    
   238  120  124 1    
   239  120  241 1    
   240  121  122 am   BACKBONE|DICT|INTERRES
   241  121  123 2    
   242  122  242 1    
   243  122  243 1    
   244  124  125 1    
   245  124  244 1    
   246  124  245 1    
   247  125  126 1    
   248  126  246 1    
   249  126  247 1    
@<TRIPOS>SUBSTRUCTURE
     1 UNK         1 GROUP             0       ****    0 ROOT    
