@<TRIPOS>MOLECULE
3R540
247   249    1
SMALL
USER_CHARGES


@<TRIPOS>ATOM
      1 CA          6.1427  -14.6283  -45.1681 C.3       0 UNK        -0.1800 
      2 C           5.5053  -14.8769  -46.5271 C.2       0 UNK         0.5000 
      3 O           5.8306  -14.1816  -47.4893 O.2       0 UNK        -0.5000 
      4 N           4.5903  -15.8528  -46.5980 N.am      1 UNK        -0.5000 
      5 CA          3.8215  -16.2779  -47.7748 C.3       1 UNK         0.1400 
      6 C6          4.6566  -17.1033  -48.7930 C.3       23 UNK        -0.0398 
      7 S7          4.9491  -18.7875  -48.1444 S.3       23 UNK        -0.2404 
      8 C8          3.9397  -19.8821  -49.2139 C.3       23 UNK        -0.0205 
      9 C9          2.6024  -19.2924  -49.6532 C.ar      23 UNK        -0.0193 
     10 C10         2.2768  -19.2447  -51.0112 C.ar      23 UNK        -0.1150 
     11 C11         1.0783  -18.6701  -51.4420 C.ar      23 UNK        -0.0193 
     12 C12         0.2080  -18.1257  -50.4905 C.ar      23 UNK        -0.1150 
     13 C13         0.5090  -18.1693  -49.1277 C.ar      23 UNK        -0.0193 
     14 C14         1.6999  -18.7816  -48.7174 C.ar      23 UNK        -0.1150 
     15 C15        -0.4475  -17.4888  -48.1487 C.3       23 UNK        -0.0205 
     16 S16        -0.3938  -18.1217  -46.4424 S.3       23 UNK        -0.2404 
     17 C17        -1.3257  -19.6803  -46.5956 C.3       23 UNK        -0.0398 
     18 CA         -0.4165  -20.9063  -46.8379 C.3       11 UNK         0.1400 
     19 N           0.6840  -20.9980  -45.8775 N.am      11 UNK        -0.5000 
     20 C           1.7858  -21.7392  -46.0453 C.2       10 UNK         0.5000 
     21 O           2.0021  -22.4245  -47.0434 O.2       10 UNK        -0.5000 
     22 CA          2.7886  -21.7517  -44.8768 C.3       10 UNK         0.1400 
     23 CB          3.7586  -20.5672  -44.9865 C.3       10 UNK        -0.1800 
     24 N           2.1253  -21.7145  -43.5721 N.am      10 UNK        -0.5000 
     25 C           1.3479  -22.6964  -43.0945 C.2       9 UNK         0.5000 
     26 O           1.1633  -23.7627  -43.6803 O.2       9 UNK        -0.5000 
     27 CA          0.6109  -22.4208  -41.7703 C.3       9 UNK         0.1400 
     28 CB          1.4611  -22.8797  -40.5768 C.3       9 UNK        -0.1800 
     29 N           0.2310  -21.0160  -41.5838 N.am      9 UNK        -0.5000 
     30 C          -0.5988  -20.3312  -42.3833 C.2       8 UNK         0.5000 
     31 O          -1.0932  -20.7999  -43.4112 O.2       8 UNK        -0.5000 
     32 CA         -0.8659  -18.8663  -41.9838 C.3       8 UNK         0.1400 
     33 CB          0.2597  -17.9578  -42.5026 C.3       8 UNK        -0.1800 
     34 N          -2.1541  -18.3557  -42.4613 N.am      8 UNK        -0.5000 
     35 C          -3.3509  -18.8137  -42.0603 C.2       7 UNK         0.5000 
     36 O          -3.4841  -19.7234  -41.2397 O.2       7 UNK        -0.5000 
     37 CA         -4.6206  -18.1309  -42.6149 C.3       7 UNK         0.1400 
     38 CB         -5.3668  -17.3895  -41.4932 C.3       7 UNK        -0.1800 
     39 N          -4.3551  -17.1790  -43.6921 N.am      7 UNK        -0.5000 
     40 C          -4.1757  -17.5008  -44.9785 C.2       6 UNK         0.5000 
     41 O          -4.2853  -18.6459  -45.4115 O.2       6 UNK        -0.5000 
     42 CA         -3.8202  -16.3584  -45.9546 C.3       6 UNK         0.1400 
     43 CB         -4.9963  -16.0781  -46.9033 C.3       6 UNK        -0.1800 
     44 N          -3.4058  -15.0963  -45.3262 N.am      6 UNK        -0.5000 
     45 C          -2.3238  -14.9338  -44.5536 C.2       5 UNK         0.5000 
     46 O          -1.6056  -15.8622  -44.1790 O.2       5 UNK        -0.5000 
     47 CA         -2.0309  -13.5048  -44.0647 C.3       5 UNK         0.1400 
     48 CB         -2.6935  -13.2628  -42.6997 C.3       5 UNK        -0.1800 
     49 N          -0.5889  -13.3037  -43.9358 N.am      5 UNK        -0.5000 
     50 C           0.2349  -13.0930  -44.9691 C.2       4 UNK         0.5000 
     51 O          -0.1545  -12.8647  -46.1173 O.2       4 UNK        -0.5000 
     52 CA          1.7380  -13.1772  -44.6519 C.3       4 UNK         0.1400 
     53 CB          2.1512  -14.6374  -44.3942 C.3       4 UNK        -0.1800 
     54 N           2.5381  -12.6486  -45.7570 N.am      4 UNK        -0.5000 
     55 C           3.0533  -11.4123  -45.8055 C.2       3 UNK         0.5000 
     56 O           2.9225  -10.5918  -44.8958 O.2       3 UNK        -0.5000 
     57 CA          3.8690  -11.0105  -47.0536 C.3       3 UNK         0.1400 
     58 CB          5.3368  -10.7456  -46.6791 C.3       3 UNK        -0.1800 
     59 N           3.8366  -12.0218  -48.1103 N.am      3 UNK        -0.5000 
     60 C           2.9497  -12.0538  -49.1148 C.2       2 UNK         0.5000 
     61 O           2.0962  -11.1859  -49.3010 O.2       2 UNK        -0.5000 
     62 CA          3.0115  -13.2701  -50.0649 C.3       2 UNK         0.1400 
     63 CB          3.8198  -12.9311  -51.3262 C.3       2 UNK        -0.1800 
     64 N           3.5793  -14.4704  -49.4443 N.am      2 UNK        -0.5000 
     65 C           3.0363  -15.1076  -48.3980 C.2       1 UNK         0.5000 
     66 O           1.9734  -14.7671  -47.8819 O.2       1 UNK        -0.5000 
     67 C          -1.2485  -22.1990  -46.8484 C.2       11 UNK         0.5000 
     68 O          -1.7202  -22.6044  -47.9100 O.2       11 UNK        -0.5000 
     69 N          -1.3988  -22.8367  -45.6791 N.am      12 UNK        -0.5000 
     70 CA         -2.0238  -24.1504  -45.5337 C.3       12 UNK         0.1400 
     71 CB         -2.2886  -24.4435  -44.0501 C.3       12 UNK        -0.1800 
     72 C          -1.1850  -25.2606  -46.1904 C.2       12 UNK         0.5000 
     73 O          -1.7428  -26.0918  -46.9062 O.2       12 UNK        -0.5000 
     74 N           0.1402  -25.2198  -45.9884 N.am      13 UNK        -0.5000 
     75 CA          1.1099  -26.1230  -46.6140 C.3       13 UNK         0.1400 
     76 CB          2.4959  -25.8981  -45.9913 C.3       13 UNK        -0.1800 
     77 C           1.1678  -25.9767  -48.1474 C.2       13 UNK         0.5000 
     78 O           1.2668  -26.9827  -48.8505 O.2       13 UNK        -0.5000 
     79 N           1.0665  -24.7336  -48.6384 N.am      14 UNK        -0.5000 
     80 CA          0.9863  -24.3977  -50.0625 C.3       14 UNK         0.1400 
     81 CB          1.3057  -22.9024  -50.2341 C.3       14 UNK        -0.1800 
     82 C          -0.3804  -24.7234  -50.7030 C.2       14 UNK         0.5000 
     83 O          -0.4866  -24.6893  -51.9287 O.2       14 UNK        -0.5000 
     84 N          -1.4014  -24.9830  -49.8704 N.am      15 UNK        -0.5000 
     85 CA         -2.8244  -25.1654  -50.1934 C.3       15 UNK         0.1400 
     86 CB         -3.0461  -26.3481  -51.1566 C.3       15 UNK        -0.1800 
     87 C          -3.5260  -23.8773  -50.6770 C.2       15 UNK         0.5000 
     88 O          -4.6955  -23.9222  -51.0626 O.2       15 UNK        -0.5000 
     89 N          -2.8298  -22.7376  -50.5902 N.am      16 UNK        -0.5000 
     90 CA         -3.3254  -21.4050  -50.9181 C.3       16 UNK         0.1400 
     91 CB         -2.1455  -20.4276  -50.9475 C.3       16 UNK        -0.1800 
     92 C          -4.4067  -20.9201  -49.9392 C.2       16 UNK         0.5000 
     93 O          -5.2774  -20.1513  -50.3402 O.2       16 UNK        -0.5000 
     94 N          -4.3631  -21.4059  -48.6897 N.am      17 UNK        -0.5000 
     95 CA         -5.3971  -21.1714  -47.6789 C.3       17 UNK         0.1400 
     96 CB         -4.9166  -21.6993  -46.3192 C.3       17 UNK        -0.1800 
     97 C          -6.7403  -21.8298  -48.0489 C.2       17 UNK         0.5000 
     98 O          -7.7945  -21.2484  -47.7930 O.2       17 UNK        -0.5000 
     99 N          -6.6725  -23.0265  -48.6501 N.am      18 UNK        -0.5000 
    100 CA        -7.8313  -23.7952  -49.1017 C.3       18 UNK         0.1400 
    101 CB        -7.4482  -25.2794  -49.2140 C.3       18 UNK        -0.1800 
    102 C         -8.3796  -23.2658  -50.4369 C.2       18 UNK         0.5000 
    103 O         -9.5954  -23.1449  -50.5902 O.2       18 UNK        -0.5000 
    104 N         -7.4734  -22.9439  -51.3708 N.am      19 UNK        -0.5000 
    105 CA        -7.7987  -22.3783  -52.6824 C.3       19 UNK         0.1400 
    106 CB        -6.5736  -22.5209  -53.5971 C.3       19 UNK        -0.1800 
    107 C         -8.2643  -20.9084  -52.6239 C.2       19 UNK         0.5000 
    108 O         -8.9345  -20.4536  -53.5512 O.2       19 UNK        -0.5000 
    109 N         -7.8901  -20.2001  -51.5481 N.am      20 UNK        -0.5000 
    110 CA        -8.1273  -18.7798  -51.2620 C.3       20 UNK         0.1400 
    111 CB        -9.6361  -18.4681  -51.1797 C.3       20 UNK        -0.1800 
    112 C         -7.3639  -17.8214  -52.2035 C.2       20 UNK         0.5000 
    113 O         -7.7181  -16.6448  -52.2971 O.2       20 UNK        -0.5000 
    114 N         -6.3200  -18.3316  -52.8652 N.am      21 UNK        -0.5000 
    115 CA        -5.4457  -17.6474  -53.8107 C.3       21 UNK         0.1400 
    116 CB        -6.2175  -17.2786  -55.0941 C.3       21 UNK        -0.1800 
    117 C         -4.2767  -18.5862  -54.1433 C.2       21 UNK         0.5000 
    118 O         -4.3790  -19.7940  -53.9152 O.2       21 UNK        -0.5000 
    119 N         -3.2002  -18.0240  -54.7028 N.am      22 UNK        -0.5000 
    120 CA        -2.0247  -18.7772  -55.1783 C.3       22 UNK         0.1400 
    121 C         -2.2177  -19.4683  -56.5617 C.2       22 UNK         0.5000 
    122 N         -3.3090  -19.2373  -57.2817 N.am      22 UNK        -0.7600 
    123 O         -1.3614  -20.2381  -56.9882 O.2       22 UNK        -0.5000 
    124 C124       -0.7386  -17.9100  -55.1704 C.3       23 UNK        -0.0398 
    125 S125       -0.3100  -17.3136  -53.5014 S.3       23 UNK        -0.2404 
    126 C126        0.7391  -18.6946  -52.9310 C.3       23 UNK        -0.0205 
    127 H127        5.8134  -13.6684  -44.7706 H         1 UNK         0.0600 
    128 H128        7.2285  -14.6074  -45.2604 H         1 UNK         0.0600 
    129 H129        5.8784  -15.4037  -44.4487 H         1 UNK         0.0600 
    130 H130        4.3791  -16.3695  -45.7567 H         1 UNK         0.3000 
    131 H131        3.0489  -16.9249  -47.3644 H         1 UNK         0.0600 
    132 H132        4.1623  -17.1710  -49.7628 H         1 UNK         0.0800 
    133 H133        5.6202  -16.6287  -48.9823 H         1 UNK         0.0800 
    134 H134        3.7516  -20.8149  -48.6805 H         1 UNK         0.0800 
    135 H135        4.5409  -20.1469  -50.0849 H         1 UNK         0.0800 
    136 H136        2.9600  -19.6595  -51.7391 H         1 UNK         0.1150 
    137 H137       -0.7174  -17.6668  -50.8063 H         1 UNK         0.1150 
    138 H138        1.9523  -18.8368  -47.6691 H         1 UNK         0.1150 
    139 H139       -1.4728  -17.5489  -48.5166 H         1 UNK         0.0800 
    140 H140       -0.1969  -16.4278  -48.1193 H         1 UNK         0.0800 
    141 H141       -2.0671  -19.5854  -47.3909 H         1 UNK         0.0800 
    142 H142       -1.8937  -19.8034  -45.6729 H         1 UNK         0.0800 
    143 H143        0.0175  -20.8055  -47.8337 H         1 UNK         0.0600 
    144 H144        0.5483  -20.5041  -45.0069 H         1 UNK         0.3000 
    145 H145        3.3662  -22.6763  -44.9385 H         1 UNK         0.0600 
    146 H146        4.3257  -20.6231  -45.9155 H         1 UNK         0.0600 
    147 H147        4.4797  -20.5676  -44.1690 H         1 UNK         0.0600 
    148 H148        3.2355  -19.6100  -44.9758 H         1 UNK         0.0600 
    149 H149        2.2281  -20.8716  -43.0271 H         1 UNK         0.3000 
    150 H150       -0.3079  -23.0105  -41.7800 H         1 UNK         0.0600 
    151 H151        0.9131  -22.7795  -39.6397 H         1 UNK         0.0600 
    152 H152        1.7402  -23.9296  -40.6770 H         1 UNK         0.0600 
    153 H153        2.3822  -22.3019  -40.4919 H         1 UNK         0.0600 
    154 H154        0.6084  -20.5580  -40.7667 H         1 UNK         0.3000 
    155 H155       -0.8763  -18.8095  -40.8935 H         1 UNK         0.0600 
    156 H156        0.3066  -17.9577  -43.5913 H         1 UNK         0.0600 
    157 H157        1.2334  -18.2799  -42.1322 H         1 UNK         0.0600 
    158 H158        0.1154  -16.9273  -42.1774 H         1 UNK         0.0600 
    159 H159       -2.1140  -17.6090  -43.1467 H         1 UNK         0.3000 
    160 H160       -5.2738  -18.9204  -42.9927 H         1 UNK         0.0600 
    161 H161       -5.6305  -18.0680  -40.6809 H         1 UNK         0.0600 
    162 H162       -6.2949  -16.9504  -41.8598 H         1 UNK         0.0600 
    163 H163       -4.7604  -16.5886  -41.0682 H         1 UNK         0.0600 
    164 H164       -4.2385  -16.2133  -43.4249 H         1 UNK         0.3000 
    165 H165       -2.9828  -16.7105  -46.5577 H         1 UNK         0.0600 
    166 H166       -5.3059  -16.9859  -47.4237 H         1 UNK         0.0600 
    167 H167       -5.8643  -15.6964  -46.3644 H         1 UNK         0.0600 
    168 H168       -4.7242  -15.3481  -47.6658 H         1 UNK         0.0600 
    169 H169       -3.9616  -14.2855  -45.5578 H         1 UNK         0.3000 
    170 H170       -2.4324  -12.7873  -44.7835 H         1 UNK         0.0600 
    171 H171       -2.3343  -13.9650  -41.9460 H         1 UNK         0.0600 
    172 H172       -3.7764  -13.3763  -42.7644 H         1 UNK         0.0600 
    173 H173       -2.4952  -12.2533  -42.3390 H         1 UNK         0.0600 
    174 H174       -0.1918  -13.5257  -43.0349 H         1 UNK         0.3000 
    175 H175        1.9272  -12.6044  -43.7417 H         1 UNK         0.0600 
    176 H176        1.6178  -15.0541  -43.5391 H         1 UNK         0.0600 
    177 H177        1.9336  -15.2770  -45.2501 H         1 UNK         0.0600 
    178 H178        3.2158  -14.7125  -44.1753 H         1 UNK         0.0600 
    179 H179        2.5635  -13.2264  -46.5891 H         1 UNK         0.3000 
    180 H180        3.4467  -10.0755  -47.4272 H         1 UNK         0.0600 
    181 H181        5.8173  -11.6359  -46.2734 H         1 UNK         0.0600 
    182 H182        5.4151   -9.9593  -45.9273 H         1 UNK         0.0600 
    183 H183        5.9119  -10.4213  -47.5465 H         1 UNK         0.0600 
    184 H184        4.5118  -12.7768  -48.0310 H         1 UNK         0.3000 
    185 H185        1.9878  -13.5023  -50.3659 H         1 UNK         0.0600 
    186 H186        3.4077  -12.0563  -51.8308 H         1 UNK         0.0600 
    187 H187        4.8618  -12.7129  -51.0889 H         1 UNK         0.0600 
    188 H188        3.8018  -13.7549  -52.0401 H         1 UNK         0.0600 
    189 H189        4.4897  -14.7577  -49.7731 H         1 UNK         0.3000 
    190 H190       -1.0350  -22.3997  -44.8403 H         1 UNK         0.3000 
    191 H191       -2.9858  -24.1259  -46.0468 H         1 UNK         0.0600 
    192 H192       -2.8942  -23.6588  -43.5957 H         1 UNK         0.0600 
    193 H193       -2.8295  -25.3831  -43.9316 H         1 UNK         0.0600 
    194 H194       -1.3644  -24.5261  -43.4796 H         1 UNK         0.0600 
    195 H195        0.5124  -24.5368  -45.3345 H         1 UNK         0.3000 
    196 H196        0.8005  -27.1462  -46.3911 H         1 UNK         0.0600 
    197 H197        2.8566  -24.8843  -46.1656 H         1 UNK         0.0600 
    198 H198        3.2300  -26.5851  -46.4139 H         1 UNK         0.0600 
    199 H199        2.4759  -26.0648  -44.9142 H         1 UNK         0.0600 
    200 H200        1.0816  -23.9523  -47.9905 H         1 UNK         0.3000 
    201 H201        1.7445  -24.9731  -50.5975 H         1 UNK         0.0600 
    202 H202        1.2903  -22.6119  -51.2853 H         1 UNK         0.0600 
    203 H203        2.2970  -22.6637  -49.8488 H         1 UNK         0.0600 
    204 H204        0.5850  -22.2731  -49.7113 H         1 UNK         0.0600 
    205 H205       -1.1953  -24.9785  -48.8796 H         1 UNK         0.3000 
    206 H206       -3.3050  -25.4230  -49.2487 H         1 UNK         0.0600 
    207 H207       -2.6754  -26.1335  -52.1589 H         1 UNK         0.0600 
    208 H208       -2.5472  -27.2481  -50.7972 H         1 UNK         0.0600 
    209 H209       -4.1077  -26.5808  -51.2484 H         1 UNK         0.0600 
    210 H210       -1.9174  -22.7858  -50.1587 H         1 UNK         0.3000 
    211 H211       -3.7661  -21.4455  -51.9148 H         1 UNK         0.0600 
    212 H212       -2.4744  -19.4306  -51.2436 H         1 UNK         0.0600 
    213 H213       -1.3900  -20.7460  -51.6653 H         1 UNK         0.0600 
    214 H214       -1.6667  -20.3451  -49.9711 H         1 UNK         0.0600 
    215 H215       -3.5848  -22.0041  -48.4343 H         1 UNK         0.3000 
    216 H216       -5.5541  -20.0938  -47.5959 H         1 UNK         0.0600 
    217 H217       -4.8062  -22.7829  -46.3246 H         1 UNK         0.0600 
    218 H218       -3.9614  -21.2610  -46.0344 H         1 UNK         0.0600 
    219 H219       -5.6299  -21.4477  -45.5335 H         1 UNK         0.0600 
    220 H220       -5.7642  -23.4109  -48.8627 H         1 UNK         0.3000 
    221 H221       -8.6235  -23.7086  -48.3546 H         1 UNK         0.0600 
    222 H222       -6.6548  -25.4419  -49.9442 H         1 UNK         0.0600 
    223 H223       -7.1067  -25.6714  -48.2559 H         1 UNK         0.0600 
    224 H224       -8.3048  -25.8794  -49.5234 H         1 UNK         0.0600 
    225 H225       -6.4929  -23.1386  -51.1897 H         1 UNK         0.3000 
    226 H226       -8.6143  -22.9612  -53.1153 H         1 UNK         0.0600 
    227 H227       -6.3025  -23.5681  -53.7322 H         1 UNK         0.0600 
    228 H228       -6.7669  -22.1028  -54.5858 H         1 UNK         0.0600 
    229 H229       -5.7072  -22.0045  -53.1856 H         1 UNK         0.0600 
    230 H230       -7.2685  -20.6546  -50.8901 H         1 UNK         0.3000 
    231 H231       -7.7082  -18.6103  -50.2691 H         1 UNK         0.0600 
    232 H232      -10.1169  -18.5239  -52.1565 H         1 UNK         0.0600 
    233 H233       -9.8066  -17.4636  -50.7912 H         1 UNK         0.0600 
    234 H234      -10.1460  -19.1633  -50.5127 H         1 UNK         0.0600 
    235 H235       -6.0586  -19.2960  -52.6953 H         1 UNK         0.3000 
    236 H236       -5.0506  -16.7462  -53.3382 H         1 UNK         0.0600 
    237 H237       -6.6533  -18.1610  -55.5646 H         1 UNK         0.0600 
    238 H238       -7.0260  -16.5770  -54.8906 H         1 UNK         0.0600 
    239 H239       -5.5638  -16.8031  -55.8259 H         1 UNK         0.0600 
    240 H240       -3.1820  -17.0267  -54.8586 H         1 UNK         0.3000 
    241 H241       -1.8576  -19.5978  -54.4777 H         1 UNK         0.0600 
    242 H242       -3.4209  -19.6962  -58.1724 H         1 UNK         0.3800 
    243 H243       -4.0245  -18.6139  -56.9463 H         1 UNK         0.3800 
    244 H244       -0.8621  -17.0450  -55.8238 H         1 UNK         0.0800 
    245 H245        0.1133  -18.4658  -55.5667 H         1 UNK         0.0800 
    246 H246        1.6571  -18.6889  -53.5208 H         1 UNK         0.0800 
    247 H247        0.2380  -19.6388  -53.1452 H         1 UNK         0.0800 
@<TRIPOS>BOND
     1    1    2 1    
     2    1  127 1    
     3    1  128 1    
     4    1  129 1    
     5    2    3 2    
     6    2    4 am   BACKBONE|DICT|INTERRES
     7    4    5 1    
     8    4  130 1    
     9    5    6 1    
    10    5   65 1    
    11    5  131 1    
    12    6    7 1    
    13    6  132 1    
    14    6  133 1    
    15    7    8 1    
    16    8    9 1    
    17    8  134 1    
    18    8  135 1    
    19    9   10 ar   
    20    9   14 ar   
    21   10   11 ar   
    22   10  136 1    
    23   11   12 ar   
    24   11  126 1    
    25   12   13 ar   
    26   12  137 1    
    27   13   14 ar   
    28   13   15 1    
    29   14  138 1    
    30   15   16 1    
    31   15  139 1    
    32   15  140 1    
    33   16   17 1    
    34   17   18 1    
    35   17  141 1    
    36   17  142 1    
    37   18   19 1    
    38   18   67 1    
    39   18  143 1    
    40   19   20 am   BACKBONE|DICT|INTERRES
    41   19  144 1    
    42   20   21 2    
    43   20   22 1    
    44   22   23 1    
    45   22   24 1    
    46   22  145 1    
    47   23  146 1    
    48   23  147 1    
    49   23  148 1    
    50   24   25 am   BACKBONE|DICT|INTERRES
    51   24  149 1    
    52   25   26 2    
    53   25   27 1    
    54   27   28 1    
    55   27   29 1    
    56   27  150 1    
    57   28  151 1    
    58   28  152 1    
    59   28  153 1    
    60   29   30 am   BACKBONE|DICT|INTERRES
    61   29  154 1    
    62   30   31 2    
    63   30   32 1    
    64   32   33 1    
    65   32   34 1    
    66   32  155 1    
    67   33  156 1    
    68   33  157 1    
    69   33  158 1    
    70   34   35 am   BACKBONE|DICT|INTERRES
    71   34  159 1    
    72   35   36 2    
    73   35   37 1    
    74   37   38 1    
    75   37   39 1    
    76   37  160 1    
    77   38  161 1    
    78   38  162 1    
    79   38  163 1    
    80   39   40 am   BACKBONE|DICT|INTERRES
    81   39  164 1    
    82   40   41 2    
    83   40   42 1    
    84   42   43 1    
    85   42   44 1    
    86   42  165 1    
    87   43  166 1    
    88   43  167 1    
    89   43  168 1    
    90   44   45 am   BACKBONE|DICT|INTERRES
    91   44  169 1    
    92   45   46 2    
    93   45   47 1    
    94   47   48 1    
    95   47   49 1    
    96   47  170 1    
    97   48  171 1    
    98   48  172 1    
    99   48  173 1    
   100   49   50 am   BACKBONE|DICT|INTERRES
   101   49  174 1    
   102   50   51 2    
   103   50   52 1    
   104   52   53 1    
   105   52   54 1    
   106   52  175 1    
   107   53  176 1    
   108   53  177 1    
   109   53  178 1    
   110   54   55 am   BACKBONE|DICT|INTERRES
   111   54  179 1    
   112   55   56 2    
   113   55   57 1    
   114   57   58 1    
   115   57   59 1    
   116   57  180 1    
   117   58  181 1    
   118   58  182 1    
   119   58  183 1    
   120   59   60 am   BACKBONE|DICT|INTERRES
   121   59  184 1    
   122   60   61 2    
   123   60   62 1    
   124   62   63 1    
   125   62   64 1    
   126   62  185 1    
   127   63  186 1    
   128   63  187 1    
   129   63  188 1    
   130   64   65 am   BACKBONE|DICT|INTERRES
   131   64  189 1    
   132   65   66 2    
   133   67   68 2    
   134   67   69 am   BACKBONE|DICT|INTERRES
   135   69   70 1    
   136   69  190 1    
   137   70   71 1    
   138   70   72 1    
   139   70  191 1    
   140   71  192 1    
   141   71  193 1    
   142   71  194 1    
   143   72   73 2    
   144   72   74 am   BACKBONE|DICT|INTERRES
   145   74   75 1    
   146   74  195 1    
   147   75   76 1    
   148   75   77 1    
   149   75  196 1    
   150   76  197 1    
   151   76  198 1    
   152   76  199 1    
   153   77   78 2    
   154   77   79 am   BACKBONE|DICT|INTERRES
   155   79   80 1    
   156   79  200 1    
   157   80   81 1    
   158   80   82 1    
   159   80  201 1    
   160   81  202 1    
   161   81  203 1    
   162   81  204 1    
   163   82   83 2    
   164   82   84 am   BACKBONE|DICT|INTERRES
   165   84   85 1    
   166   84  205 1    
   167   85   86 1    
   168   85   87 1    
   169   85  206 1    
   170   86  207 1    
   171   86  208 1    
   172   86  209 1    
   173   87   88 2    
   174   87   89 am   BACKBONE|DICT|INTERRES
   175   89   90 1    
   176   89  210 1    
   177   90   91 1    
   178   90   92 1    
   179   90  211 1    
   180   91  212 1    
   181   91  213 1    
   182   91  214 1    
   183   92   93 2    
   184   92   94 am   BACKBONE|DICT|INTERRES
   185   94   95 1    
   186   94  215 1    
   187   95   96 1    
   188   95   97 1    
   189   95  216 1    
   190   96  217 1    
   191   96  218 1    
   192   96  219 1    
   193   97   98 2    
   194   97   99 am   BACKBONE|DICT|INTERRES
   195   99  100 1    
   196   99  220 1    
   197  100  101 1    
   198  100  102 1    
   199  100  221 1    
   200  101  222 1    
   201  101  223 1    
   202  101  224 1    
   203  102  103 2    
   204  102  104 am   BACKBONE|DICT|INTERRES
   205  104  105 1    
   206  104  225 1    
   207  105  106 1    
   208  105  107 1    
   209  105  226 1    
   210  106  227 1    
   211  106  228 1    
   212  106  229 1    
   213  107  108 2    
   214  107  109 am   BACKBONE|DICT|INTERRES
   215  109  110 1    
   216  109  230 1    
   217  110  111 1    
   218  110  112 1    
   219  110  231 1    
   220  111  232 1    
   221  111  233 1    
   222  111  234 1    
   223  112  113 2    
   224  112  114 am   BACKBONE|DICT|INTERRES
   225  114  115 1    
   226  114  235 1    
   227  115  116 1    
   228  115  117 1    
   229  115  236 1    
   230  116  237 1    
   231  116  238 1    
   232  116  239 1    
   233  117  118 2    
   234  117  119 am   BACKBONE|DICT|INTERRES
   235  119  120 1    
   236  119  240 1    
   237  120  121 1    
   238  120  124 1    
   239  120  241 1    
   240  121  122 am   BACKBONE|DICT|INTERRES
   241  121  123 2    
   242  122  242 1    
   243  122  243 1    
   244  124  125 1    
   245  124  244 1    
   246  124  245 1    
   247  125  126 1    
   248  126  246 1    
   249  126  247 1    
@<TRIPOS>SUBSTRUCTURE
     1 UNK         1 GROUP             0       ****    0 ROOT    
