@<TRIPOS>MOLECULE
3R540
247   249    1
SMALL
USER_CHARGES


@<TRIPOS>ATOM
      1 CA          1.2576  -12.6153  -46.8724 C.3       0 UNK        -0.1800 
      2 C           2.7671  -12.7513  -46.7580 C.2       0 UNK         0.5000 
      3 O           3.4886  -11.7866  -47.0116 O.2       0 UNK        -0.5000 
      4 N           3.2443  -13.9437  -46.3754 N.am      1 UNK        -0.5000 
      5 CA          4.6634  -14.3323  -46.3358 C.3       1 UNK         0.1400 
      6 C6          4.8628  -15.8372  -46.0184 C.3       23 UNK        -0.0398 
      7 S7          3.6928  -16.9469  -46.8670 S.3       23 UNK        -0.2404 
      8 C8          4.3960  -17.0495  -48.5395 C.3       23 UNK        -0.0205 
      9 C9          3.6024  -18.0377  -49.3791 C.ar      23 UNK        -0.0193 
     10 C10         2.7039  -17.5978  -50.3565 C.ar      23 UNK        -0.1150 
     11 C11         1.9567  -18.5207  -51.0966 C.ar      23 UNK        -0.0193 
     12 C12         2.0916  -19.8869  -50.8313 C.ar      23 UNK        -0.1150 
     13 C13         2.9871  -20.3393  -49.8579 C.ar      23 UNK        -0.0193 
     14 C14         3.7569  -19.4071  -49.1551 C.ar      23 UNK        -0.1150 
     15 C15         3.1051  -21.8340  -49.5717 C.3       23 UNK        -0.0205 
     16 S16         3.2405  -22.2459  -47.7950 S.3       23 UNK        -0.2404 
     17 C17         1.7878  -21.3934  -47.0861 C.3       23 UNK        -0.0398 
     18 CA          0.5926  -22.3324  -46.8183 C.3       11 UNK         0.1400 
     19 N          -0.3853  -21.7066  -45.9272 N.am      11 UNK        -0.5000 
     20 C          -1.4317  -22.3403  -45.3812 C.2       10 UNK         0.5000 
     21 O          -1.6645  -23.5388  -45.5361 O.2       10 UNK        -0.5000 
     22 CA         -2.4049  -21.4819  -44.5562 C.3       10 UNK         0.1400 
     23 CB         -1.8532  -21.2464  -43.1425 C.3       10 UNK        -0.1800 
     24 N          -2.7050  -20.1986  -45.1934 N.am      10 UNK        -0.5000 
     25 C          -3.3322  -20.0717  -46.3723 C.2       9 UNK         0.5000 
     26 O          -3.7419  -21.0248  -47.0339 O.2       9 UNK        -0.5000 
     27 CA         -3.4972  -18.6466  -46.9287 C.3       9 UNK         0.1400 
     28 CB         -4.6178  -17.9012  -46.1901 C.3       9 UNK        -0.1800 
     29 N          -2.2636  -17.8634  -46.8688 N.am      9 UNK        -0.5000 
     30 C          -1.1150  -18.1991  -47.4741 C.2       8 UNK         0.5000 
     31 O          -0.9710  -19.2060  -48.1640 O.2       8 UNK        -0.5000 
     32 CA          0.0965  -17.2953  -47.2048 C.3       8 UNK         0.1400 
     33 CB          0.0526  -16.0154  -48.0517 C.3       8 UNK        -0.1800 
     34 N           0.2068  -16.9425  -45.7913 N.am      8 UNK        -0.5000 
     35 C           0.4978  -17.8137  -44.8157 C.2       7 UNK         0.5000 
     36 O           0.7151  -19.0121  -44.9990 O.2       7 UNK        -0.5000 
     37 CA          0.4927  -17.2459  -43.3869 C.3       7 UNK         0.1400 
     38 CB          1.7738  -16.4390  -43.1177 C.3       7 UNK        -0.1800 
     39 N          -0.6810  -16.4068  -43.1368 N.am      7 UNK        -0.5000 
     40 C          -1.9410  -16.8691  -43.1024 C.2       6 UNK         0.5000 
     41 O          -2.2389  -18.0522  -43.2595 O.2       6 UNK        -0.5000 
     42 CA         -3.0669  -15.8386  -42.8967 C.3       6 UNK         0.1400 
     43 CB         -3.3352  -15.6308  -41.3989 C.3       6 UNK        -0.1800 
     44 N          -2.7978  -14.5435  -43.5192 N.am      6 UNK        -0.5000 
     45 C          -2.5637  -14.3367  -44.8228 C.2       5 UNK         0.5000 
     46 O          -2.5739  -15.2276  -45.6726 O.2       5 UNK        -0.5000 
     47 CA         -2.2158  -12.8952  -45.2381 C.3       5 UNK         0.1400 
     48 CB         -3.4721  -12.1641  -45.7325 C.3       5 UNK        -0.1800 
     49 N          -1.5845  -12.1028  -44.1757 N.am      5 UNK        -0.5000 
     50 C          -0.4236  -12.3953  -43.5737 C.2       4 UNK         0.5000 
     51 O           0.2466  -13.4005  -43.8226 O.2       4 UNK        -0.5000 
     52 CA          0.0650  -11.4034  -42.5043 C.3       4 UNK         0.1400 
     53 CB          0.3163  -12.1207  -41.1683 C.3       4 UNK        -0.1800 
     54 N           1.2962  -10.7460  -42.9310 N.am      4 UNK        -0.5000 
     55 C           1.4063   -9.8712  -43.9377 C.2       3 UNK         0.5000 
     56 O           0.4404   -9.4431  -44.5704 O.2       3 UNK        -0.5000 
     57 CA          2.8247   -9.4102  -44.3321 C.3       3 UNK         0.1400 
     58 CB          3.2085   -8.1013  -43.6158 C.3       3 UNK        -0.1800 
     59 N           3.8649  -10.4395  -44.1841 N.am      3 UNK        -0.5000 
     60 C           4.3794  -10.9750  -43.0662 C.2       2 UNK         0.5000 
     61 O           4.0303  -10.6533  -41.9299 O.2       2 UNK        -0.5000 
     62 CA          5.3905  -12.1158  -43.2731 C.3       2 UNK         0.1400 
     63 CB          5.6957  -12.8985  -41.9826 C.3       2 UNK        -0.1800 
     64 N           4.8549  -13.0315  -44.2755 N.am      2 UNK        -0.5000 
     65 C           5.5005  -13.4822  -45.3563 C.2       1 UNK         0.5000 
     66 O           6.6838  -13.2467  -45.6036 O.2       1 UNK        -0.5000 
     67 C          -0.0620  -22.8238  -48.1260 C.2       11 UNK         0.5000 
     68 O           0.1555  -23.9701  -48.5180 O.2       11 UNK        -0.5000 
     69 N          -0.8848  -21.9710  -48.7515 N.am      12 UNK        -0.5000 
     70 CA         -1.6514  -22.2864  -49.9552 C.3       12 UNK         0.1400 
     71 CB         -2.3733  -21.0266  -50.4451 C.3       12 UNK        -0.1800 
     72 C          -2.6452  -23.4403  -49.7413 C.2       12 UNK         0.5000 
     73 O          -2.7240  -24.3308  -50.5881 O.2       12 UNK        -0.5000 
     74 N          -3.3432  -23.4343  -48.5955 N.am      13 UNK        -0.5000 
     75 CA         -4.2578  -24.4954  -48.1774 C.3       13 UNK         0.1400 
     76 CB         -5.0257  -24.0577  -46.9208 C.3       13 UNK        -0.1800 
     77 C          -3.5404  -25.8358  -47.9376 C.2       13 UNK         0.5000 
     78 O          -4.0396  -26.8704  -48.3794 O.2       13 UNK        -0.5000 
     79 N          -2.3718  -25.7933  -47.2806 N.am      14 UNK        -0.5000 
     80 CA         -1.5111  -26.9537  -47.0359 C.3       14 UNK         0.1400 
     81 CB         -0.3938  -26.5698  -46.0539 C.3       14 UNK        -0.1800 
     82 C          -0.9224  -27.5451  -48.3308 C.2       14 UNK         0.5000 
     83 O          -0.8552  -28.7674  -48.4659 O.2       14 UNK        -0.5000 
     84 N          -0.5401  -26.6703  -49.2708 N.am      15 UNK        -0.5000 
     85 CA         -0.0791  -27.0289  -50.6140 C.3       15 UNK         0.1400 
     86 CB          0.6255  -25.8115  -51.2347 C.3       15 UNK        -0.1800 
     87 C          -1.2119  -27.5161  -51.5416 C.2       15 UNK         0.5000 
     88 O          -0.9219  -28.1338  -52.5669 O.2       15 UNK        -0.5000 
     89 N          -2.4662  -27.2103  -51.1766 N.am      16 UNK        -0.5000 
     90 CA         -3.7037  -27.4101  -51.9358 C.3       16 UNK         0.1400 
     91 CB         -4.0104  -28.9115  -52.1115 C.3       16 UNK        -0.1800 
     92 C          -3.7001  -26.6228  -53.2631 C.2       16 UNK         0.5000 
     93 O          -4.1380  -27.1350  -54.2951 O.2       16 UNK        -0.5000 
     94 N          -3.1899  -25.3876  -53.2090 N.am      17 UNK        -0.5000 
     95 CA         -2.9953  -24.5025  -54.3514 C.3       17 UNK         0.1400 
     96 CB         -1.6567  -24.8465  -55.0357 C.3       17 UNK        -0.1800 
     97 C          -3.0622  -23.0421  -53.8670 C.2       17 UNK         0.5000 
     98 O          -2.0202  -22.3962  -53.7605 O.2       17 UNK        -0.5000 
     99 N          -4.2431  -22.5036  -53.5419 N.am      18 UNK        -0.5000 
    100 CA        -5.5672  -23.1206  -53.4945 C.3       18 UNK         0.1400 
    101 CB        -6.4729  -22.3859  -54.4986 C.3       18 UNK        -0.1800 
    102 C         -6.1164  -23.0215  -52.0585 C.2       18 UNK         0.5000 
    103 O         -5.4107  -22.5750  -51.1525 O.2       18 UNK        -0.5000 
    104 N         -7.3670  -23.4592  -51.8649 N.am      19 UNK        -0.5000 
    105 CA        -8.0780  -23.4750  -50.5850 C.3       19 UNK         0.1400 
    106 CB        -9.4611  -24.1145  -50.7940 C.3       19 UNK        -0.1800 
    107 C         -8.1883  -22.0781  -49.9356 C.2       19 UNK         0.5000 
    108 O         -9.0918  -21.3106  -50.2718 O.2       19 UNK        -0.5000 
    109 N         -7.2482  -21.7915  -49.0253 N.am      20 UNK        -0.5000 
    110 CA        -7.1118  -20.5757  -48.2197 C.3       20 UNK         0.1400 
    111 CB        -8.3171  -20.4065  -47.2710 C.3       20 UNK        -0.1800 
    112 C         -6.8001  -19.2997  -49.0312 C.2       20 UNK         0.5000 
    113 O         -7.1047  -18.2013  -48.5635 O.2       20 UNK        -0.5000 
    114 N         -6.1773  -19.4414  -50.2086 N.am      21 UNK        -0.5000 
    115 CA        -5.7723  -18.3253  -51.0615 C.3       21 UNK         0.1400 
    116 CB        -6.9943  -17.7377  -51.7930 C.3       21 UNK        -0.1800 
    117 C         -4.7278  -18.8009  -52.0755 C.2       21 UNK         0.5000 
    118 O         -4.8478  -19.9108  -52.5904 O.2       21 UNK        -0.5000 
    119 N         -3.7497  -17.9428  -52.3816 N.am      22 UNK        -0.5000 
    120 CA        -2.6975  -18.1986  -53.3835 C.3       22 UNK         0.1400 
    121 C         -3.1793  -18.1425  -54.8660 C.2       22 UNK         0.5000 
    122 N         -4.3985  -17.7080  -55.1614 N.am      22 UNK        -0.7600 
    123 O         -2.4298  -18.5032  -55.7692 O.2       22 UNK        -0.5000 
    124 C124       -1.4788  -17.2640  -53.1688 C.3       23 UNK        -0.0398 
    125 S125       -0.6160  -17.5925  -51.5938 S.3       23 UNK        -0.2404 
    126 C126        1.0323  -18.0513  -52.2097 C.3       23 UNK        -0.0205 
    127 H127        0.9114  -11.7468  -46.3134 H         1 UNK         0.0600 
    128 H128        0.7488  -13.4962  -46.4833 H         1 UNK         0.0600 
    129 H129        0.9699  -12.4876  -47.9157 H         1 UNK         0.0600 
    130 H130        2.5982  -14.6972  -46.1898 H         1 UNK         0.3000 
    131 H131        5.0619  -14.1488  -47.3357 H         1 UNK         0.0600 
    132 H132        5.8821  -16.1457  -46.2576 H         1 UNK         0.0800 
    133 H133        4.7371  -16.0214  -44.9495 H         1 UNK         0.0800 
    134 H134        5.4380  -17.3679  -48.4838 H         1 UNK         0.0800 
    135 H135        4.3908  -16.0601  -48.9993 H         1 UNK         0.0800 
    136 H136        2.5860  -16.5398  -50.5440 H         1 UNK         0.1150 
    137 H137        1.5004  -20.5991  -51.3901 H         1 UNK         0.1150 
    138 H138        4.4536  -19.7429  -48.4001 H         1 UNK         0.1150 
    139 H139        2.2495  -22.3696  -49.9859 H         1 UNK         0.0800 
    140 H140        3.9858  -22.2180  -50.0873 H         1 UNK         0.0800 
    141 H141        1.4841  -20.5431  -47.6975 H         1 UNK         0.0800 
    142 H142        2.1257  -20.9622  -46.1432 H         1 UNK         0.0800 
    143 H143        0.9711  -23.2132  -46.2947 H         1 UNK         0.0600 
    144 H144       -0.2534  -20.7197  -45.7324 H         1 UNK         0.3000 
    145 H145       -3.3411  -22.0367  -44.4669 H         1 UNK         0.0600 
    146 H146       -1.6164  -22.1912  -42.6517 H         1 UNK         0.0600 
    147 H147       -0.9425  -20.6461  -43.1608 H         1 UNK         0.0600 
    148 H148       -2.5816  -20.7296  -42.5176 H         1 UNK         0.0600 
    149 H149       -2.4223  -19.3649  -44.6858 H         1 UNK         0.3000 
    150 H150       -3.7805  -18.7328  -47.9797 H         1 UNK         0.0600 
    151 H151       -5.5509  -18.4646  -46.2200 H         1 UNK         0.0600 
    152 H152       -4.8100  -16.9287  -46.6436 H         1 UNK         0.0600 
    153 H153       -4.3691  -17.7398  -45.1419 H         1 UNK         0.0600 
    154 H154       -2.2994  -16.9971  -46.3378 H         1 UNK         0.3000 
    155 H155        0.9865  -17.8592  -47.4911 H         1 UNK         0.0600 
    156 H156       -0.7735  -15.3639  -47.7658 H         1 UNK         0.0600 
    157 H157        0.9806  -15.4529  -47.9567 H         1 UNK         0.0600 
    158 H158       -0.0665  -16.2517  -49.1077 H         1 UNK         0.0600 
    159 H159       -0.0310  -15.9959  -45.5351 H         1 UNK         0.3000 
    160 H160        0.4648  -18.0869  -42.6908 H         1 UNK         0.0600 
    161 H161        1.8616  -15.5805  -43.7843 H         1 UNK         0.0600 
    162 H162        2.6604  -17.0572  -43.2645 H         1 UNK         0.0600 
    163 H163        1.7998  -16.0696  -42.0925 H         1 UNK         0.0600 
    164 H164       -0.5195  -15.4111  -43.0529 H         1 UNK         0.3000 
    165 H165       -3.9732  -16.2409  -43.3521 H         1 UNK         0.0600 
    166 H166       -4.1893  -14.9727  -41.2381 H         1 UNK         0.0600 
    167 H167       -3.5601  -16.5784  -40.9075 H         1 UNK         0.0600 
    168 H168       -2.4735  -15.1942  -40.8920 H         1 UNK         0.0600 
    169 H169       -2.7653  -13.7453  -42.9030 H         1 UNK         0.3000 
    170 H170       -1.5144  -12.9589  -46.0706 H         1 UNK         0.0600 
    171 H171       -3.9537  -12.7170  -46.5404 H         1 UNK         0.0600 
    172 H172       -4.2065  -12.0408  -44.9355 H         1 UNK         0.0600 
    173 H173       -3.2262  -11.1752  -46.1201 H         1 UNK         0.0600 
    174 H174       -2.0551  -11.2452  -43.9241 H         1 UNK         0.3000 
    175 H175       -0.6979  -10.6388  -42.3440 H         1 UNK         0.0600 
    176 H176        1.1016  -12.8732  -41.2546 H         1 UNK         0.0600 
    177 H177        0.6148  -11.4149  -40.3929 H         1 UNK         0.0600 
    178 H178       -0.5856  -12.6254  -40.8194 H         1 UNK         0.0600 
    179 H179        2.1472  -11.0034  -42.4439 H         1 UNK         0.3000 
    180 H180        2.7874   -9.1950  -45.4013 H         1 UNK         0.0600 
    181 H181        3.2221   -8.2154  -42.5317 H         1 UNK         0.0600 
    182 H182        2.4942   -7.3103  -43.8476 H         1 UNK         0.0600 
    183 H183        4.1922   -7.7529  -43.9304 H         1 UNK         0.0600 
    184 H184        4.1764  -10.8345  -45.0639 H         1 UNK         0.3000 
    185 H185        6.3152  -11.6556  -43.6272 H         1 UNK         0.0600 
    186 H186        6.1192  -12.2456  -41.2184 H         1 UNK         0.0600 
    187 H187        4.7965  -13.3552  -41.5671 H         1 UNK         0.0600 
    188 H188        6.4192  -13.6927  -42.1673 H         1 UNK         0.0600 
    189 H189        3.8751  -13.2618  -44.1821 H         1 UNK         0.3000 
    190 H190       -0.9895  -21.0240  -48.3911 H         1 UNK         0.3000 
    191 H191       -0.9449  -22.5940  -50.7287 H         1 UNK         0.0600 
    192 H192       -3.0833  -20.6501  -49.7085 H         1 UNK         0.0600 
    193 H193       -2.9273  -21.2353  -51.3580 H         1 UNK         0.0600 
    194 H194       -1.6661  -20.2296  -50.6710 H         1 UNK         0.0600 
    195 H195       -3.2542  -22.6358  -47.9731 H         1 UNK         0.3000 
    196 H196       -4.9794  -24.6437  -48.9836 H         1 UNK         0.0600 
    197 H197       -5.7390  -24.8231  -46.6127 H         1 UNK         0.0600 
    198 H198       -5.5876  -23.1416  -47.0949 H         1 UNK         0.0600 
    199 H199       -4.3540  -23.8780  -46.0811 H         1 UNK         0.0600 
    200 H200       -2.0510  -24.9044  -46.9072 H         1 UNK         0.3000 
    201 H201       -2.1215  -27.7280  -46.5668 H         1 UNK         0.0600 
    202 H202       -0.8051  -26.2291  -45.1036 H         1 UNK         0.0600 
    203 H203        0.2353  -25.7723  -46.4501 H         1 UNK         0.0600 
    204 H204        0.2512  -27.4233  -45.8422 H         1 UNK         0.0600 
    205 H205       -0.5536  -25.6782  -49.0471 H         1 UNK         0.3000 
    206 H206        0.6478  -27.8388  -50.5254 H         1 UNK         0.0600 
    207 H207        1.4642  -25.4841  -50.6199 H         1 UNK         0.0600 
    208 H208        1.0194  -26.0477  -52.2240 H         1 UNK         0.0600 
    209 H209       -0.0564  -24.9677  -51.3464 H         1 UNK         0.0600 
    210 H210       -2.5716  -26.6649  -50.3310 H         1 UNK         0.3000 
    211 H211       -4.5022  -26.9795  -51.3297 H         1 UNK         0.0600 
    212 H212       -3.2839  -29.4028  -52.7592 H         1 UNK         0.0600 
    213 H213       -4.9954  -29.0585  -52.5557 H         1 UNK         0.0600 
    214 H214       -4.0076  -29.4276  -51.1514 H         1 UNK         0.0600 
    215 H215       -2.9086  -25.0129  -52.3030 H         1 UNK         0.3000 
    216 H216       -3.7883  -24.6482  -55.0870 H         1 UNK         0.0600 
    217 H217       -1.4578  -24.1707  -55.8682 H         1 UNK         0.0600 
    218 H218       -1.6668  -25.8604  -55.4359 H         1 UNK         0.0600 
    219 H219       -0.8192  -24.7726  -54.3406 H         1 UNK         0.0600 
    220 H220       -4.2512  -21.5607  -53.1589 H         1 UNK         0.3000 
    221 H221       -5.5400  -24.1770  -53.7566 H         1 UNK         0.0600 
    222 H222       -6.6173  -21.3413  -54.2191 H         1 UNK         0.0600 
    223 H223       -6.0430  -22.4042  -55.5003 H         1 UNK         0.0600 
    224 H224       -7.4576  -22.8490  -54.5656 H         1 UNK         0.0600 
    225 H225       -7.8909  -23.7915  -52.6608 H         1 UNK         0.3000 
    226 H226       -7.5186  -24.1220  -49.9060 H         1 UNK         0.0600 
    227 H227       -9.3719  -25.1424  -51.1461 H         1 UNK         0.0600 
    228 H228      -10.0240  -24.1401  -49.8600 H         1 UNK         0.0600 
    229 H229      -10.0569  -23.5613  -51.5211 H         1 UNK         0.0600 
    230 H230       -6.4903  -22.4524  -48.9262 H         1 UNK         0.3000 
    231 H231       -6.2385  -20.7388  -47.5905 H         1 UNK         0.0600 
    232 H232       -8.1422  -19.6037  -46.5538 H         1 UNK         0.0600 
    233 H233       -8.4983  -21.3155  -46.6975 H         1 UNK         0.0600 
    234 H234       -9.2301  -20.1640  -47.8153 H         1 UNK         0.0600 
    235 H235       -5.9291  -20.3650  -50.5494 H         1 UNK         0.3000 
    236 H236       -5.3185  -17.5527  -50.4369 H         1 UNK         0.0600 
    237 H237       -7.7247  -17.3321  -51.0931 H         1 UNK         0.0600 
    238 H238       -6.7010  -16.9237  -52.4569 H         1 UNK         0.0600 
    239 H239       -7.4969  -18.4931  -52.3986 H         1 UNK         0.0600 
    240 H240       -3.7148  -17.0433  -51.9253 H         1 UNK         0.3000 
    241 H241       -2.3517  -19.2244  -53.2364 H         1 UNK         0.0600 
    242 H242       -5.0297  -17.4142  -54.4347 H         1 UNK         0.3800 
    243 H243       -4.6948  -17.6817  -56.1244 H         1 UNK         0.3800 
    244 H244       -0.7635  -17.3676  -53.9867 H         1 UNK         0.0800 
    245 H245       -1.7930  -16.2193  -53.1820 H         1 UNK         0.0800 
    246 H246        0.9296  -18.8372  -52.9599 H         1 UNK         0.0800 
    247 H247        1.4768  -17.1955  -52.7201 H         1 UNK         0.0800 
@<TRIPOS>BOND
     1    1    2 1    
     2    1  127 1    
     3    1  128 1    
     4    1  129 1    
     5    2    3 2    
     6    2    4 am   BACKBONE|DICT|INTERRES
     7    4    5 1    
     8    4  130 1    
     9    5    6 1    
    10    5   65 1    
    11    5  131 1    
    12    6    7 1    
    13    6  132 1    
    14    6  133 1    
    15    7    8 1    
    16    8    9 1    
    17    8  134 1    
    18    8  135 1    
    19    9   10 ar   
    20    9   14 ar   
    21   10   11 ar   
    22   10  136 1    
    23   11   12 ar   
    24   11  126 1    
    25   12   13 ar   
    26   12  137 1    
    27   13   14 ar   
    28   13   15 1    
    29   14  138 1    
    30   15   16 1    
    31   15  139 1    
    32   15  140 1    
    33   16   17 1    
    34   17   18 1    
    35   17  141 1    
    36   17  142 1    
    37   18   19 1    
    38   18   67 1    
    39   18  143 1    
    40   19   20 am   BACKBONE|DICT|INTERRES
    41   19  144 1    
    42   20   21 2    
    43   20   22 1    
    44   22   23 1    
    45   22   24 1    
    46   22  145 1    
    47   23  146 1    
    48   23  147 1    
    49   23  148 1    
    50   24   25 am   BACKBONE|DICT|INTERRES
    51   24  149 1    
    52   25   26 2    
    53   25   27 1    
    54   27   28 1    
    55   27   29 1    
    56   27  150 1    
    57   28  151 1    
    58   28  152 1    
    59   28  153 1    
    60   29   30 am   BACKBONE|DICT|INTERRES
    61   29  154 1    
    62   30   31 2    
    63   30   32 1    
    64   32   33 1    
    65   32   34 1    
    66   32  155 1    
    67   33  156 1    
    68   33  157 1    
    69   33  158 1    
    70   34   35 am   BACKBONE|DICT|INTERRES
    71   34  159 1    
    72   35   36 2    
    73   35   37 1    
    74   37   38 1    
    75   37   39 1    
    76   37  160 1    
    77   38  161 1    
    78   38  162 1    
    79   38  163 1    
    80   39   40 am   BACKBONE|DICT|INTERRES
    81   39  164 1    
    82   40   41 2    
    83   40   42 1    
    84   42   43 1    
    85   42   44 1    
    86   42  165 1    
    87   43  166 1    
    88   43  167 1    
    89   43  168 1    
    90   44   45 am   BACKBONE|DICT|INTERRES
    91   44  169 1    
    92   45   46 2    
    93   45   47 1    
    94   47   48 1    
    95   47   49 1    
    96   47  170 1    
    97   48  171 1    
    98   48  172 1    
    99   48  173 1    
   100   49   50 am   BACKBONE|DICT|INTERRES
   101   49  174 1    
   102   50   51 2    
   103   50   52 1    
   104   52   53 1    
   105   52   54 1    
   106   52  175 1    
   107   53  176 1    
   108   53  177 1    
   109   53  178 1    
   110   54   55 am   BACKBONE|DICT|INTERRES
   111   54  179 1    
   112   55   56 2    
   113   55   57 1    
   114   57   58 1    
   115   57   59 1    
   116   57  180 1    
   117   58  181 1    
   118   58  182 1    
   119   58  183 1    
   120   59   60 am   BACKBONE|DICT|INTERRES
   121   59  184 1    
   122   60   61 2    
   123   60   62 1    
   124   62   63 1    
   125   62   64 1    
   126   62  185 1    
   127   63  186 1    
   128   63  187 1    
   129   63  188 1    
   130   64   65 am   BACKBONE|DICT|INTERRES
   131   64  189 1    
   132   65   66 2    
   133   67   68 2    
   134   67   69 am   BACKBONE|DICT|INTERRES
   135   69   70 1    
   136   69  190 1    
   137   70   71 1    
   138   70   72 1    
   139   70  191 1    
   140   71  192 1    
   141   71  193 1    
   142   71  194 1    
   143   72   73 2    
   144   72   74 am   BACKBONE|DICT|INTERRES
   145   74   75 1    
   146   74  195 1    
   147   75   76 1    
   148   75   77 1    
   149   75  196 1    
   150   76  197 1    
   151   76  198 1    
   152   76  199 1    
   153   77   78 2    
   154   77   79 am   BACKBONE|DICT|INTERRES
   155   79   80 1    
   156   79  200 1    
   157   80   81 1    
   158   80   82 1    
   159   80  201 1    
   160   81  202 1    
   161   81  203 1    
   162   81  204 1    
   163   82   83 2    
   164   82   84 am   BACKBONE|DICT|INTERRES
   165   84   85 1    
   166   84  205 1    
   167   85   86 1    
   168   85   87 1    
   169   85  206 1    
   170   86  207 1    
   171   86  208 1    
   172   86  209 1    
   173   87   88 2    
   174   87   89 am   BACKBONE|DICT|INTERRES
   175   89   90 1    
   176   89  210 1    
   177   90   91 1    
   178   90   92 1    
   179   90  211 1    
   180   91  212 1    
   181   91  213 1    
   182   91  214 1    
   183   92   93 2    
   184   92   94 am   BACKBONE|DICT|INTERRES
   185   94   95 1    
   186   94  215 1    
   187   95   96 1    
   188   95   97 1    
   189   95  216 1    
   190   96  217 1    
   191   96  218 1    
   192   96  219 1    
   193   97   98 2    
   194   97   99 am   BACKBONE|DICT|INTERRES
   195   99  100 1    
   196   99  220 1    
   197  100  101 1    
   198  100  102 1    
   199  100  221 1    
   200  101  222 1    
   201  101  223 1    
   202  101  224 1    
   203  102  103 2    
   204  102  104 am   BACKBONE|DICT|INTERRES
   205  104  105 1    
   206  104  225 1    
   207  105  106 1    
   208  105  107 1    
   209  105  226 1    
   210  106  227 1    
   211  106  228 1    
   212  106  229 1    
   213  107  108 2    
   214  107  109 am   BACKBONE|DICT|INTERRES
   215  109  110 1    
   216  109  230 1    
   217  110  111 1    
   218  110  112 1    
   219  110  231 1    
   220  111  232 1    
   221  111  233 1    
   222  111  234 1    
   223  112  113 2    
   224  112  114 am   BACKBONE|DICT|INTERRES
   225  114  115 1    
   226  114  235 1    
   227  115  116 1    
   228  115  117 1    
   229  115  236 1    
   230  116  237 1    
   231  116  238 1    
   232  116  239 1    
   233  117  118 2    
   234  117  119 am   BACKBONE|DICT|INTERRES
   235  119  120 1    
   236  119  240 1    
   237  120  121 1    
   238  120  124 1    
   239  120  241 1    
   240  121  122 am   BACKBONE|DICT|INTERRES
   241  121  123 2    
   242  122  242 1    
   243  122  243 1    
   244  124  125 1    
   245  124  244 1    
   246  124  245 1    
   247  125  126 1    
   248  126  246 1    
   249  126  247 1    
@<TRIPOS>SUBSTRUCTURE
     1 UNK         1 GROUP             0       ****    0 ROOT    
