@<TRIPOS>MOLECULE
3R540
247   249    1
SMALL
USER_CHARGES


@<TRIPOS>ATOM
      1 CA          5.8269  -13.1864  -48.5379 C.3       0 UNK        -0.1800 
      2 C           4.6220  -13.1635  -47.6102 C.2       0 UNK         0.5000 
      3 O           4.7792  -12.9716  -46.4051 O.2       0 UNK        -0.5000 
      4 N           3.4141  -13.3320  -48.1628 N.am      1 UNK        -0.5000 
      5 CA          2.1414  -13.4129  -47.4275 C.3       1 UNK         0.1400 
      6 C6          0.9696  -13.8470  -48.3408 C.3       23 UNK        -0.0398 
      7 S7          1.2904  -15.4535  -49.1406 S.3       23 UNK        -0.2404 
      8 C8          0.2265  -15.3460  -50.6120 C.3       23 UNK        -0.0205 
      9 C9          0.4697  -16.5307  -51.5317 C.ar      23 UNK        -0.0193 
     10 C10         1.1813  -16.3655  -52.7230 C.ar      23 UNK        -0.1150 
     11 C11         1.4352  -17.4596  -53.5550 C.ar      23 UNK        -0.0193 
     12 C12         0.9867  -18.7281  -53.1779 C.ar      23 UNK        -0.1150 
     13 C13         0.2760  -18.9061  -51.9876 C.ar      23 UNK        -0.0193 
     14 C14         0.0041  -17.7998  -51.1780 C.ar      23 UNK        -0.1150 
     15 C15        -0.1915  -20.2953  -51.5834 C.3       23 UNK        -0.0205 
     16 S16         1.0305  -21.1103  -50.5102 S.3       23 UNK        -0.2404 
     17 C17         0.4931  -20.5396  -48.8609 C.3       23 UNK        -0.0398 
     18 CA         -0.0723  -21.6852  -47.9908 C.3       11 UNK         0.1400 
     19 N          -0.1956  -21.2835  -46.5886 N.am      11 UNK        -0.5000 
     20 C          -0.3668  -22.1320  -45.5663 C.2       10 UNK         0.5000 
     21 O          -0.4225  -23.3546  -45.6922 O.2       10 UNK        -0.5000 
     22 CA         -0.5551  -21.5000  -44.1757 C.3       10 UNK         0.1400 
     23 CB          0.7958  -21.0746  -43.5818 C.3       10 UNK        -0.1800 
     24 N          -1.4633  -20.3526  -44.2051 N.am      10 UNK        -0.5000 
     25 C          -2.7645  -20.4345  -44.5155 C.2       9 UNK         0.5000 
     26 O          -3.3439  -21.4930  -44.7592 O.2       9 UNK        -0.5000 
     27 CA         -3.5389  -19.1090  -44.6176 C.3       9 UNK         0.1400 
     28 CB         -4.1291  -18.7208  -43.2543 C.3       9 UNK        -0.1800 
     29 N          -2.7493  -17.9973  -45.1577 N.am      9 UNK        -0.5000 
     30 C          -2.2079  -17.9640  -46.3866 C.2       8 UNK         0.5000 
     31 O          -2.2081  -18.9262  -47.1545 O.2       8 UNK        -0.5000 
     32 CA         -1.5791  -16.6406  -46.8618 C.3       8 UNK         0.1400 
     33 CB         -2.4899  -15.9765  -47.9062 C.3       8 UNK        -0.1800 
     34 N          -1.3407  -15.6920  -45.7735 N.am      8 UNK        -0.5000 
     35 C          -0.2917  -15.7399  -44.9434 C.2       7 UNK         0.5000 
     36 O           0.6243  -16.5572  -45.0555 O.2       7 UNK        -0.5000 
     37 CA         -0.2569  -14.7140  -43.7888 C.3       7 UNK         0.1400 
     38 CB         -1.5757  -13.9347  -43.5876 C.3       7 UNK        -0.1800 
     39 N           0.1723  -15.3191  -42.5283 N.am      7 UNK        -0.5000 
     40 C          -0.3763  -16.3708  -41.9017 C.2       6 UNK         0.5000 
     41 O          -1.3872  -16.9484  -42.3016 O.2       6 UNK        -0.5000 
     42 CA          0.3284  -16.8864  -40.6295 C.3       6 UNK         0.1400 
     43 CB          0.8145  -18.3300  -40.8333 C.3       6 UNK        -0.1800 
     44 N           1.4723  -16.0593  -40.2380 N.am      6 UNK        -0.5000 
     45 C           1.3976  -14.9531  -39.4860 C.2       5 UNK         0.5000 
     46 O           0.3585  -14.5451  -38.9667 O.2       5 UNK        -0.5000 
     47 CA          2.7026  -14.1509  -39.3154 C.3       5 UNK         0.1400 
     48 CB          3.4617  -14.6164  -38.0636 C.3       5 UNK        -0.1800 
     49 N           3.5942  -14.2321  -40.4786 N.am      5 UNK        -0.5000 
     50 C           3.3169  -13.7227  -41.6864 C.2       4 UNK         0.5000 
     51 O           2.2530  -13.1671  -41.9657 O.2       4 UNK        -0.5000 
     52 CA          4.3848  -13.9119  -42.7789 C.3       4 UNK         0.1400 
     53 CB          3.9640  -15.0341  -43.7416 C.3       4 UNK        -0.1800 
     54 N           4.6207  -12.6915  -43.5500 N.am      4 UNK        -0.5000 
     55 C           5.0750  -11.5320  -43.0535 C.2       3 UNK         0.5000 
     56 O           5.3664  -11.3616  -41.8687 O.2       3 UNK        -0.5000 
     57 CA          5.2536  -10.3687  -44.0434 C.3       3 UNK         0.1400 
     58 CB          6.6478  -10.4277  -44.6880 C.3       3 UNK        -0.1800 
     59 N           4.2427  -10.3829  -45.1017 N.am      3 UNK        -0.5000 
     60 C           3.1575   -9.5966  -45.1341 C.2       2 UNK         0.5000 
     61 O           2.8734   -8.7896  -44.2481 O.2       2 UNK        -0.5000 
     62 CA          2.2421   -9.6999  -46.3720 C.3       2 UNK         0.1400 
     63 CB          2.5573   -8.5693  -47.3638 C.3       2 UNK        -0.1800 
     64 N           2.3640  -10.9813  -47.0673 N.am      2 UNK        -0.5000 
     65 C           1.7787  -12.1176  -46.6666 C.2       1 UNK         0.5000 
     66 O           0.9877  -12.1746  -45.7267 O.2       1 UNK        -0.5000 
     67 C          -1.4080  -22.2359  -48.5336 C.2       11 UNK         0.5000 
     68 O          -1.4112  -23.2745  -49.1922 O.2       11 UNK        -0.5000 
     69 N          -2.5188  -21.5643  -48.1996 N.am      12 UNK        -0.5000 
     70 CA         -3.8849  -21.9645  -48.5424 C.3       12 UNK         0.1400 
     71 CB         -4.8548  -20.8932  -48.0189 C.3       12 UNK        -0.1800 
     72 C          -4.2605  -23.3600  -48.0035 C.2       12 UNK         0.5000 
     73 O          -4.9070  -24.1339  -48.7128 O.2       12 UNK        -0.5000 
     74 N          -3.8201  -23.6611  -46.7736 N.am      13 UNK        -0.5000 
     75 CA         -3.9379  -24.9754  -46.1478 C.3       13 UNK         0.1400 
     76 CB         -3.6568  -24.8563  -44.6425 C.3       13 UNK        -0.1800 
     77 C          -3.0099  -26.0161  -46.8002 C.2       13 UNK         0.5000 
     78 O          -3.4670  -27.1145  -47.1179 O.2       13 UNK        -0.5000 
     79 N          -1.7340  -25.6522  -47.0048 N.am      14 UNK        -0.5000 
     80 CA         -0.7035  -26.5096  -47.6013 C.3       14 UNK         0.1400 
     81 CB          0.6628  -25.8131  -47.5262 C.3       14 UNK        -0.1800 
     82 C          -1.0089  -26.9367  -49.0486 C.2       14 UNK         0.5000 
     83 O          -0.6632  -28.0549  -49.4340 O.2       14 UNK        -0.5000 
     84 N          -1.6896  -26.0703  -49.8102 N.am      15 UNK        -0.5000 
     85 CA         -2.2014  -26.3130  -51.1602 C.3       15 UNK         0.1400 
     86 CB         -2.5177  -24.9560  -51.8167 C.3       15 UNK        -0.1800 
     87 C          -3.4168  -27.2685  -51.1701 C.2       15 UNK         0.5000 
     88 O          -4.4771  -26.9144  -51.6871 O.2       15 UNK        -0.5000 
     89 N          -3.2510  -28.4558  -50.5679 N.am      16 UNK        -0.5000 
     90 CA         -4.2098  -29.5646  -50.4570 C.3       16 UNK         0.1400 
     91 CB         -4.3879  -30.2370  -51.8338 C.3       16 UNK        -0.1800 
     92 C          -5.5633  -29.1773  -49.8179 C.2       16 UNK         0.5000 
     93 O          -6.5791  -29.8134  -50.1044 O.2       16 UNK        -0.5000 
     94 N          -5.5575  -28.1189  -48.9930 N.am      17 UNK        -0.5000 
     95 CA         -6.7139  -27.4307  -48.4105 C.3       17 UNK         0.1400 
     96 CB         -7.4059  -28.3228  -47.3599 C.3       17 UNK        -0.1800 
     97 C          -7.7014  -26.8587  -49.4560 C.2       17 UNK         0.5000 
     98 O          -8.8627  -26.6143  -49.1244 O.2       17 UNK        -0.5000 
     99 N          -7.2342  -26.6376  -50.6948 N.am      18 UNK        -0.5000 
    100 CA        -8.0299  -26.1046  -51.8038 C.3       18 UNK         0.1400 
    101 CB        -7.3883  -26.5335  -53.1330 C.3       18 UNK        -0.1800 
    102 C         -8.1820  -24.5728  -51.7499 C.2       18 UNK         0.5000 
    103 O         -9.0016  -24.0247  -52.4879 O.2       18 UNK        -0.5000 
    104 N         -7.3884  -23.9156  -50.8911 N.am      19 UNK        -0.5000 
    105 CA        -7.3380  -22.4719  -50.6528 C.3       19 UNK         0.1400 
    106 CB        -8.6683  -21.9491  -50.0724 C.3       19 UNK        -0.1800 
    107 C         -6.8314  -21.6579  -51.8603 C.2       19 UNK         0.5000 
    108 O         -7.2083  -20.4962  -52.0249 O.2       19 UNK        -0.5000 
    109 N         -5.9669  -22.2766  -52.6746 N.am      20 UNK        -0.5000 
    110 CA        -5.2635  -21.6293  -53.7784 C.3       20 UNK         0.1400 
    111 CB        -4.6735  -22.7112  -54.6956 C.3       20 UNK        -0.1800 
    112 C         -4.1554  -20.7010  -53.2493 C.2       20 UNK         0.5000 
    113 O         -3.4705  -21.0555  -52.2872 O.2       20 UNK        -0.5000 
    114 N         -3.9855  -19.5487  -53.9020 N.am      21 UNK        -0.5000 
    115 CA        -2.9685  -18.5458  -53.6078 C.3       21 UNK         0.1400 
    116 CB        -3.3485  -17.7468  -52.3455 C.3       21 UNK        -0.1800 
    117 C         -2.8135  -17.6253  -54.8255 C.2       21 UNK         0.5000 
    118 O         -3.7134  -17.5726  -55.6691 O.2       21 UNK        -0.5000 
    119 N         -1.6820  -16.9153  -54.8935 N.am      22 UNK        -0.5000 
    120 CA        -1.3474  -15.9846  -55.9875 C.3       22 UNK         0.1400 
    121 C         -2.1028  -14.6225  -55.9397 C.2       22 UNK         0.5000 
    122 N         -2.8261  -14.2940  -54.8760 N.am      22 UNK        -0.7600 
    123 O         -2.0362  -13.8497  -56.8918 O.2       22 UNK        -0.5000 
    124 C124        0.1813  -15.7544  -56.1164 C.3       23 UNK        -0.0398 
    125 S125        1.1282  -17.3048  -56.3141 S.3       23 UNK        -0.2404 
    126 C126        2.2124  -17.2789  -54.8503 C.3       23 UNK        -0.0205 
    127 H127        6.3665  -12.2416  -48.4739 H         1 UNK         0.0600 
    128 H128        6.5057  -13.9882  -48.2479 H         1 UNK         0.0600 
    129 H129        5.5360  -13.3445  -49.5766 H         1 UNK         0.0600 
    130 H130        3.3470  -13.4946  -49.1576 H         1 UNK         0.3000 
    131 H131        2.2676  -14.1854  -46.6655 H         1 UNK         0.0600 
    132 H132        0.0469  -13.9372  -47.7657 H         1 UNK         0.0800 
    133 H133        0.7855  -13.0916  -49.1067 H         1 UNK         0.0800 
    134 H134       -0.8213  -15.3232  -50.3123 H         1 UNK         0.0800 
    135 H135        0.4215  -14.4099  -51.1374 H         1 UNK         0.0800 
    136 H136        1.5469  -15.3858  -52.9970 H         1 UNK         0.1150 
    137 H137        1.1960  -19.5787  -53.8117 H         1 UNK         0.1150 
    138 H138       -0.5494  -17.9229  -50.2585 H         1 UNK         0.1150 
    139 H139       -1.1621  -20.2449  -51.0871 H         1 UNK         0.0800 
    140 H140       -0.3433  -20.9106  -52.4715 H         1 UNK         0.0800 
    141 H141       -0.2304  -19.7290  -48.9445 H         1 UNK         0.0800 
    142 H142        1.3684  -20.1061  -48.3753 H         1 UNK         0.0800 
    143 H143        0.6505  -22.5030  -48.0208 H         1 UNK         0.0600 
    144 H144       -0.2315  -20.2920  -46.4031 H         1 UNK         0.3000 
    145 H145       -0.9896  -22.2608  -43.5236 H         1 UNK         0.0600 
    146 H146        0.6864  -20.7673  -42.5427 H         1 UNK         0.0600 
    147 H147        1.5080  -21.9008  -43.5984 H         1 UNK         0.0600 
    148 H148        1.2399  -20.2456  -44.1343 H         1 UNK         0.0600 
    149 H149       -1.0705  -19.4409  -44.0180 H         1 UNK         0.3000 
    150 H150       -4.3742  -19.2648  -45.3010 H         1 UNK         0.0600 
    151 H151       -4.8212  -19.4864  -42.9014 H         1 UNK         0.0600 
    152 H152       -4.6835  -17.7840  -43.3120 H         1 UNK         0.0600 
    153 H153       -3.3563  -18.6102  -42.4943 H         1 UNK         0.0600 
    154 H154       -2.6511  -17.1866  -44.5632 H         1 UNK         0.3000 
    155 H155       -0.6285  -16.8835  -47.3403 H         1 UNK         0.0600 
    156 H156       -2.0701  -15.0362  -48.2613 H         1 UNK         0.0600 
    157 H157       -3.4805  -15.7662  -47.5010 H         1 UNK         0.0600 
    158 H158       -2.6218  -16.6223  -48.7758 H         1 UNK         0.0600 
    159 H159       -2.0531  -14.9936  -45.6165 H         1 UNK         0.3000 
    160 H160        0.5208  -13.9963  -44.0433 H         1 UNK         0.0600 
    161 H161       -1.4882  -13.2367  -42.7548 H         1 UNK         0.0600 
    162 H162       -2.4158  -14.5969  -43.3751 H         1 UNK         0.0600 
    163 H163       -1.8247  -13.3422  -44.4687 H         1 UNK         0.0600 
    164 H164        0.9890  -14.8899  -42.1131 H         1 UNK         0.3000 
    165 H165       -0.4101  -16.8878  -39.8252 H         1 UNK         0.0600 
    166 H166        1.3006  -18.7143  -39.9365 H         1 UNK         0.0600 
    167 H167       -0.0225  -18.9931  -41.0551 H         1 UNK         0.0600 
    168 H168        1.5229  -18.4041  -41.6595 H         1 UNK         0.0600 
    169 H169        2.3707  -16.3219  -40.6160 H         1 UNK         0.3000 
    170 H170        2.4275  -13.1030  -39.1767 H         1 UNK         0.0600 
    171 H171        2.8318  -14.5449  -37.1758 H         1 UNK         0.0600 
    172 H172        3.7877  -15.6535  -38.1519 H         1 UNK         0.0600 
    173 H173        4.3432  -14.0004  -37.8846 H         1 UNK         0.0600 
    174 H174        4.4879  -14.6778  -40.3271 H         1 UNK         0.3000 
    175 H175        5.3286  -14.1938  -42.3080 H         1 UNK         0.0600 
    176 H176        4.7354  -15.2231  -44.4885 H         1 UNK         0.0600 
    177 H177        3.7926  -15.9693  -43.2073 H         1 UNK         0.0600 
    178 H178        3.0431  -14.7854  -44.2707 H         1 UNK         0.0600 
    179 H179        4.4685  -12.7585  -44.5518 H         1 UNK         0.3000 
    180 H180        5.1903   -9.4387  -43.4745 H         1 UNK         0.0600 
    181 H181        6.7850  -11.3380  -45.2732 H         1 UNK         0.0600 
    182 H182        7.4306  -10.4040  -43.9288 H         1 UNK         0.0600 
    183 H183        6.8113   -9.5769  -45.3496 H         1 UNK         0.0600 
    184 H184        4.3750  -11.0706  -45.8339 H         1 UNK         0.3000 
    185 H185        1.2113   -9.5758  -46.0331 H         1 UNK         0.0600 
    186 H186        1.8788   -8.5921  -48.2167 H         1 UNK         0.0600 
    187 H187        2.4491   -7.5925  -46.8902 H         1 UNK         0.0600 
    188 H188        3.5776   -8.6386  -47.7431 H         1 UNK         0.0600 
    189 H189        2.9917  -11.0159  -47.8573 H         1 UNK         0.3000 
    190 H190       -2.4206  -20.6912  -47.6865 H         1 UNK         0.3000 
    191 H191       -3.9574  -21.9983  -49.6314 H         1 UNK         0.0600 
    192 H192       -4.7660  -20.7766  -46.9412 H         1 UNK         0.0600 
    193 H193       -5.8947  -21.1440  -48.2174 H         1 UNK         0.0600 
    194 H194       -4.6578  -19.9245  -48.4790 H         1 UNK         0.0600 
    195 H195       -3.3547  -22.9403  -46.2323 H         1 UNK         0.3000 
    196 H196       -4.9666  -25.3196  -46.2695 H         1 UNK         0.0600 
    197 H197       -2.6531  -24.4777  -44.4464 H         1 UNK         0.0600 
    198 H198       -3.7460  -25.8253  -44.1499 H         1 UNK         0.0600 
    199 H199       -4.3656  -24.1807  -44.1633 H         1 UNK         0.0600 
    200 H200       -1.4257  -24.7386  -46.6863 H         1 UNK         0.3000 
    201 H201       -0.6508  -27.4193  -46.9999 H         1 UNK         0.0600 
    202 H202        0.6671  -24.8795  -48.0882 H         1 UNK         0.0600 
    203 H203        1.4485  -26.4474  -47.9385 H         1 UNK         0.0600 
    204 H204        0.9364  -25.5886  -46.4953 H         1 UNK         0.0600 
    205 H205       -1.8658  -25.1444  -49.4293 H         1 UNK         0.3000 
    206 H206       -1.4139  -26.7909  -51.7460 H         1 UNK         0.0600 
    207 H207       -1.6344  -24.3178  -51.8513 H         1 UNK         0.0600 
    208 H208       -2.8617  -25.0879  -52.8428 H         1 UNK         0.0600 
    209 H209       -3.2946  -24.4170  -51.2723 H         1 UNK         0.0600 
    210 H210       -2.3440  -28.6156  -50.1371 H         1 UNK         0.3000 
    211 H211       -3.7565  -30.2943  -49.7849 H         1 UNK         0.0600 
    212 H212       -4.8902  -29.5762  -52.5414 H         1 UNK         0.0600 
    213 H213       -4.9835  -31.1472  -51.7550 H         1 UNK         0.0600 
    214 H214       -3.4262  -30.5187  -52.2627 H         1 UNK         0.0600 
    215 H215       -4.6605  -27.7014  -48.7710 H         1 UNK         0.3000 
    216 H216       -6.3089  -26.5640  -47.8877 H         1 UNK         0.0600 
    217 H217       -6.6896  -28.6932  -46.6264 H         1 UNK         0.0600 
    218 H218       -8.1683  -27.7669  -46.8131 H         1 UNK         0.0600 
    219 H219       -7.8943  -29.1833  -47.8177 H         1 UNK         0.0600 
    220 H220       -6.2608  -26.8458  -50.9034 H         1 UNK         0.3000 
    221 H221       -9.0312  -26.5379  -51.7569 H         1 UNK         0.0600 
    222 H222       -6.4174  -26.0603  -53.2838 H         1 UNK         0.0600 
    223 H223       -7.2456  -27.6136  -53.1741 H         1 UNK         0.0600 
    224 H224       -8.0197  -26.2558  -53.9778 H         1 UNK         0.0600 
    225 H225       -6.7396  -24.4657  -50.3426 H         1 UNK         0.3000 
    226 H226       -6.5793  -22.3459  -49.8870 H         1 UNK         0.0600 
    227 H227       -8.9806  -22.5387  -49.2104 H         1 UNK         0.0600 
    228 H228       -8.5694  -20.9158  -49.7379 H         1 UNK         0.0600 
    229 H229       -9.4718  -21.9776  -50.8087 H         1 UNK         0.0600 
    230 H230       -5.6857  -23.2189  -52.4496 H         1 UNK         0.3000 
    231 H231       -5.9822  -21.0408  -54.3529 H         1 UNK         0.0600 
    232 H232       -5.4516  -23.3708  -55.0805 H         1 UNK         0.0600 
    233 H233       -3.9402  -23.3258  -54.1727 H         1 UNK         0.0600 
    234 H234       -4.1724  -22.2630  -55.5545 H         1 UNK         0.0600 
    235 H235       -4.5546  -19.3257  -54.7099 H         1 UNK         0.3000 
    236 H236       -2.0179  -19.0553  -53.4544 H         1 UNK         0.0600 
    237 H237       -2.6300  -16.9509  -52.1481 H         1 UNK         0.0600 
    238 H238       -4.3310  -17.2845  -52.4463 H         1 UNK         0.0600 
    239 H239       -3.3684  -18.3855  -51.4622 H         1 UNK         0.0600 
    240 H240       -0.9807  -17.0215  -54.1740 H         1 UNK         0.3000 
    241 H241       -1.6706  -16.4577  -56.9170 H         1 UNK         0.0600 
    242 H242       -3.3136  -13.4118  -54.8616 H         1 UNK         0.3800 
    243 H243       -2.8974  -14.9193  -54.0905 H         1 UNK         0.3800 
    244 H244        0.3961  -15.1361  -56.9898 H         1 UNK         0.0800 
    245 H245        0.5551  -15.1939  -55.2593 H         1 UNK         0.0800 
    246 H246        2.9462  -18.0808  -54.9430 H         1 UNK         0.0800 
    247 H247        2.7823  -16.3485  -54.8354 H         1 UNK         0.0800 
@<TRIPOS>BOND
     1    1    2 1    
     2    1  127 1    
     3    1  128 1    
     4    1  129 1    
     5    2    3 2    
     6    2    4 am   BACKBONE|DICT|INTERRES
     7    4    5 1    
     8    4  130 1    
     9    5    6 1    
    10    5   65 1    
    11    5  131 1    
    12    6    7 1    
    13    6  132 1    
    14    6  133 1    
    15    7    8 1    
    16    8    9 1    
    17    8  134 1    
    18    8  135 1    
    19    9   10 ar   
    20    9   14 ar   
    21   10   11 ar   
    22   10  136 1    
    23   11   12 ar   
    24   11  126 1    
    25   12   13 ar   
    26   12  137 1    
    27   13   14 ar   
    28   13   15 1    
    29   14  138 1    
    30   15   16 1    
    31   15  139 1    
    32   15  140 1    
    33   16   17 1    
    34   17   18 1    
    35   17  141 1    
    36   17  142 1    
    37   18   19 1    
    38   18   67 1    
    39   18  143 1    
    40   19   20 am   BACKBONE|DICT|INTERRES
    41   19  144 1    
    42   20   21 2    
    43   20   22 1    
    44   22   23 1    
    45   22   24 1    
    46   22  145 1    
    47   23  146 1    
    48   23  147 1    
    49   23  148 1    
    50   24   25 am   BACKBONE|DICT|INTERRES
    51   24  149 1    
    52   25   26 2    
    53   25   27 1    
    54   27   28 1    
    55   27   29 1    
    56   27  150 1    
    57   28  151 1    
    58   28  152 1    
    59   28  153 1    
    60   29   30 am   BACKBONE|DICT|INTERRES
    61   29  154 1    
    62   30   31 2    
    63   30   32 1    
    64   32   33 1    
    65   32   34 1    
    66   32  155 1    
    67   33  156 1    
    68   33  157 1    
    69   33  158 1    
    70   34   35 am   BACKBONE|DICT|INTERRES
    71   34  159 1    
    72   35   36 2    
    73   35   37 1    
    74   37   38 1    
    75   37   39 1    
    76   37  160 1    
    77   38  161 1    
    78   38  162 1    
    79   38  163 1    
    80   39   40 am   BACKBONE|DICT|INTERRES
    81   39  164 1    
    82   40   41 2    
    83   40   42 1    
    84   42   43 1    
    85   42   44 1    
    86   42  165 1    
    87   43  166 1    
    88   43  167 1    
    89   43  168 1    
    90   44   45 am   BACKBONE|DICT|INTERRES
    91   44  169 1    
    92   45   46 2    
    93   45   47 1    
    94   47   48 1    
    95   47   49 1    
    96   47  170 1    
    97   48  171 1    
    98   48  172 1    
    99   48  173 1    
   100   49   50 am   BACKBONE|DICT|INTERRES
   101   49  174 1    
   102   50   51 2    
   103   50   52 1    
   104   52   53 1    
   105   52   54 1    
   106   52  175 1    
   107   53  176 1    
   108   53  177 1    
   109   53  178 1    
   110   54   55 am   BACKBONE|DICT|INTERRES
   111   54  179 1    
   112   55   56 2    
   113   55   57 1    
   114   57   58 1    
   115   57   59 1    
   116   57  180 1    
   117   58  181 1    
   118   58  182 1    
   119   58  183 1    
   120   59   60 am   BACKBONE|DICT|INTERRES
   121   59  184 1    
   122   60   61 2    
   123   60   62 1    
   124   62   63 1    
   125   62   64 1    
   126   62  185 1    
   127   63  186 1    
   128   63  187 1    
   129   63  188 1    
   130   64   65 am   BACKBONE|DICT|INTERRES
   131   64  189 1    
   132   65   66 2    
   133   67   68 2    
   134   67   69 am   BACKBONE|DICT|INTERRES
   135   69   70 1    
   136   69  190 1    
   137   70   71 1    
   138   70   72 1    
   139   70  191 1    
   140   71  192 1    
   141   71  193 1    
   142   71  194 1    
   143   72   73 2    
   144   72   74 am   BACKBONE|DICT|INTERRES
   145   74   75 1    
   146   74  195 1    
   147   75   76 1    
   148   75   77 1    
   149   75  196 1    
   150   76  197 1    
   151   76  198 1    
   152   76  199 1    
   153   77   78 2    
   154   77   79 am   BACKBONE|DICT|INTERRES
   155   79   80 1    
   156   79  200 1    
   157   80   81 1    
   158   80   82 1    
   159   80  201 1    
   160   81  202 1    
   161   81  203 1    
   162   81  204 1    
   163   82   83 2    
   164   82   84 am   BACKBONE|DICT|INTERRES
   165   84   85 1    
   166   84  205 1    
   167   85   86 1    
   168   85   87 1    
   169   85  206 1    
   170   86  207 1    
   171   86  208 1    
   172   86  209 1    
   173   87   88 2    
   174   87   89 am   BACKBONE|DICT|INTERRES
   175   89   90 1    
   176   89  210 1    
   177   90   91 1    
   178   90   92 1    
   179   90  211 1    
   180   91  212 1    
   181   91  213 1    
   182   91  214 1    
   183   92   93 2    
   184   92   94 am   BACKBONE|DICT|INTERRES
   185   94   95 1    
   186   94  215 1    
   187   95   96 1    
   188   95   97 1    
   189   95  216 1    
   190   96  217 1    
   191   96  218 1    
   192   96  219 1    
   193   97   98 2    
   194   97   99 am   BACKBONE|DICT|INTERRES
   195   99  100 1    
   196   99  220 1    
   197  100  101 1    
   198  100  102 1    
   199  100  221 1    
   200  101  222 1    
   201  101  223 1    
   202  101  224 1    
   203  102  103 2    
   204  102  104 am   BACKBONE|DICT|INTERRES
   205  104  105 1    
   206  104  225 1    
   207  105  106 1    
   208  105  107 1    
   209  105  226 1    
   210  106  227 1    
   211  106  228 1    
   212  106  229 1    
   213  107  108 2    
   214  107  109 am   BACKBONE|DICT|INTERRES
   215  109  110 1    
   216  109  230 1    
   217  110  111 1    
   218  110  112 1    
   219  110  231 1    
   220  111  232 1    
   221  111  233 1    
   222  111  234 1    
   223  112  113 2    
   224  112  114 am   BACKBONE|DICT|INTERRES
   225  114  115 1    
   226  114  235 1    
   227  115  116 1    
   228  115  117 1    
   229  115  236 1    
   230  116  237 1    
   231  116  238 1    
   232  116  239 1    
   233  117  118 2    
   234  117  119 am   BACKBONE|DICT|INTERRES
   235  119  120 1    
   236  119  240 1    
   237  120  121 1    
   238  120  124 1    
   239  120  241 1    
   240  121  122 am   BACKBONE|DICT|INTERRES
   241  121  123 2    
   242  122  242 1    
   243  122  243 1    
   244  124  125 1    
   245  124  244 1    
   246  124  245 1    
   247  125  126 1    
   248  126  246 1    
   249  126  247 1    
@<TRIPOS>SUBSTRUCTURE
     1 UNK         1 GROUP             0       ****    0 ROOT    
