@<TRIPOS>MOLECULE
3R540
247   249    1
SMALL
USER_CHARGES


@<TRIPOS>ATOM
      1 CA          4.8700  -17.3889  -48.2149 C.3       0 UNK        -0.1800 
      2 C           5.1603  -15.9101  -48.4165 C.2       0 UNK         0.5000 
      3 O           6.2242  -15.4274  -48.0292 O.2       0 UNK        -0.5000 
      4 N           4.2084  -15.2028  -49.0358 N.am      1 UNK        -0.5000 
      5 CA          4.2929  -13.7961  -49.4556 C.3       1 UNK         0.1400 
      6 C6          5.3523  -13.5261  -50.5598 C.3       23 UNK        -0.0398 
      7 S7          5.3304  -14.6872  -51.9781 S.3       23 UNK        -0.2404 
      8 C8          3.6239  -14.5855  -52.6253 C.3       23 UNK        -0.0205 
      9 C9          2.6437  -15.4590  -51.8489 C.ar      23 UNK        -0.0193 
     10 C10         1.5277  -14.8888  -51.2290 C.ar      23 UNK        -0.1150 
     11 C11         0.6560  -15.6754  -50.4737 C.ar      23 UNK        -0.0193 
     12 C12         0.8840  -17.0499  -50.3721 C.ar      23 UNK        -0.1150 
     13 C13         1.9882  -17.6424  -50.9942 C.ar      23 UNK        -0.0193 
     14 C14         2.8590  -16.8372  -51.7361 C.ar      23 UNK        -0.1150 
     15 C15         2.2471  -19.1450  -50.8936 C.3       23 UNK        -0.0205 
     16 S16         2.2270  -19.7820  -49.1801 S.3       23 UNK        -0.2404 
     17 C17         0.4631  -20.1817  -48.9497 C.3       23 UNK        -0.0398 
     18 CA          0.2342  -21.5488  -48.2630 C.3       11 UNK         0.1400 
     19 N           0.5533  -21.5252  -46.8283 N.am      11 UNK        -0.5000 
     20 C           0.4855  -22.5882  -46.0108 C.2       10 UNK         0.5000 
     21 O           0.2326  -23.7295  -46.3932 O.2       10 UNK        -0.5000 
     22 CA          0.6611  -22.3343  -44.5025 C.3       10 UNK         0.1400 
     23 CB          2.1458  -22.2535  -44.1183 C.3       10 UNK        -0.1800 
     24 N          -0.0408  -21.1338  -44.0500 N.am      10 UNK        -0.5000 
     25 C          -1.3699  -20.9621  -44.0940 C.2       9 UNK         0.5000 
     26 O          -2.1584  -21.8288  -44.4675 O.2       9 UNK        -0.5000 
     27 CA         -1.9047  -19.5694  -43.7155 C.3       9 UNK         0.1400 
     28 CB         -2.0634  -19.4239  -42.1946 C.3       9 UNK        -0.1800 
     29 N          -1.0501  -18.5029  -44.2392 N.am      9 UNK        -0.5000 
     30 C          -0.9308  -18.2219  -45.5441 C.2       8 UNK         0.5000 
     31 O          -1.5952  -18.7770  -46.4210 O.2       8 UNK        -0.5000 
     32 CA          0.1304  -17.1811  -45.9445 C.3       8 UNK         0.1400 
     33 CB         -0.4612  -15.7688  -45.9673 C.3       8 UNK        -0.1800 
     34 N           1.3017  -17.1996  -45.0683 N.am      8 UNK        -0.5000 
     35 C           2.2066  -18.1883  -45.0617 C.2       7 UNK         0.5000 
     36 O           2.1525  -19.1611  -45.8123 O.2       7 UNK        -0.5000 
     37 CA          3.3210  -18.1054  -44.0006 C.3       7 UNK         0.1400 
     38 CB          4.4344  -17.1489  -44.4517 C.3       7 UNK        -0.1800 
     39 N           2.8281  -17.6746  -42.6922 N.am      7 UNK        -0.5000 
     40 C           1.8992  -18.3129  -41.9667 C.2       6 UNK         0.5000 
     41 O           1.3954  -19.3811  -42.3082 O.2       6 UNK        -0.5000 
     42 CA          1.4294  -17.6456  -40.6575 C.3       6 UNK         0.1400 
     43 CB          1.9726  -18.4099  -39.4409 C.3       6 UNK        -0.1800 
     44 N           1.8065  -16.2340  -40.5402 N.am      6 UNK        -0.5000 
     45 C           1.3428  -15.2438  -41.3139 C.2       5 UNK         0.5000 
     46 O           0.5124  -15.4099  -42.2112 O.2       5 UNK        -0.5000 
     47 CA          1.9757  -13.8657  -41.0656 C.3       5 UNK         0.1400 
     48 CB          3.4351  -13.8567  -41.5523 C.3       5 UNK        -0.1800 
     49 N           1.2487  -12.8160  -41.7739 N.am      5 UNK        -0.5000 
     50 C           0.4006  -11.9516  -41.2018 C.2       4 UNK         0.5000 
     51 O           0.1167  -11.9727  -40.0029 O.2       4 UNK        -0.5000 
     52 CA         -0.2158  -10.8522  -42.0917 C.3       4 UNK         0.1400 
     53 CB          0.3617   -9.4767  -41.7195 C.3       4 UNK        -0.1800 
     54 N           0.0038  -11.0714  -43.5213 N.am      4 UNK        -0.5000 
     55 C          -0.7536  -11.8553  -44.2978 C.2       3 UNK         0.5000 
     56 O          -1.7534  -12.4534  -43.8998 O.2       3 UNK        -0.5000 
     57 CA         -0.3187  -11.9969  -45.7700 C.3       3 UNK         0.1400 
     58 CB         -1.0698  -10.9866  -46.6505 C.3       3 UNK        -0.1800 
     59 N           1.1239  -11.8521  -46.0052 N.am      3 UNK        -0.5000 
     60 C           2.0871  -12.6138  -45.4686 C.2       2 UNK         0.5000 
     61 O           1.8785  -13.5189  -44.6607 O.2       2 UNK        -0.5000 
     62 CA          3.5091  -12.3558  -45.9790 C.3       2 UNK         0.1400 
     63 CB          4.5969  -12.7185  -44.9528 C.3       2 UNK        -0.1800 
     64 N           3.6749  -13.1609  -47.1801 N.am      2 UNK        -0.5000 
     65 C           4.3769  -12.8167  -48.2647 C.2       1 UNK         0.5000 
     66 O           5.0321  -11.7766  -48.3537 O.2       1 UNK        -0.5000 
     67 C          -1.2100  -22.0264  -48.5183 C.2       11 UNK         0.5000 
     68 O          -1.4113  -22.9365  -49.3238 O.2       11 UNK        -0.5000 
     69 N          -2.1781  -21.4329  -47.8046 N.am      12 UNK        -0.5000 
     70 CA         -3.5960  -21.7800  -47.8993 C.3       12 UNK         0.1400 
     71 CB         -4.4307  -20.7847  -47.0806 C.3       12 UNK        -0.1800 
     72 C          -3.8845  -23.2285  -47.4663 C.2       12 UNK         0.5000 
     73 O          -4.6469  -23.9189  -48.1427 O.2       12 UNK        -0.5000 
     74 N          -3.2441  -23.6694  -46.3742 N.am      13 UNK        -0.5000 
     75 CA         -3.3211  -25.0313  -45.8483 C.3       13 UNK         0.1400 
     76 CB         -2.6484  -25.0940  -44.4691 C.3       13 UNK        -0.1800 
     77 C          -2.7117  -26.0741  -46.8008 C.2       13 UNK         0.5000 
     78 O          -3.3316  -27.1129  -47.0272 O.2       13 UNK        -0.5000 
     79 N          -1.5377  -25.7712  -47.3744 N.am      14 UNK        -0.5000 
     80 CA         -0.8521  -26.6107  -48.3623 C.3       14 UNK         0.1400 
     81 CB          0.5466  -26.0415  -48.6431 C.3       14 UNK        -0.1800 
     82 C          -1.6479  -26.7630  -49.6716 C.2       14 UNK         0.5000 
     83 O          -1.6632  -27.8472  -50.2551 O.2       14 UNK        -0.5000 
     84 N          -2.3281  -25.6855  -50.0821 N.am      15 UNK        -0.5000 
     85 CA         -3.2509  -25.6562  -51.2163 C.3       15 UNK         0.1400 
     86 CB         -3.3809  -24.2031  -51.6930 C.3       15 UNK        -0.1800 
     87 C          -4.6425  -26.2432  -50.8950 C.2       15 UNK         0.5000 
     88 O          -5.4793  -26.3210  -51.7959 O.2       15 UNK        -0.5000 
     89 N          -4.8908  -26.5968  -49.6231 N.am      16 UNK        -0.5000 
     90 CA         -6.1435  -27.1122  -49.0536 C.3       16 UNK         0.1400 
     91 CB         -6.4124  -28.5397  -49.5717 C.3       16 UNK        -0.1800 
     92 C          -7.3522  -26.1712  -49.2602 C.2       16 UNK         0.5000 
     93 O          -8.4907  -26.6380  -49.3233 O.2       16 UNK        -0.5000 
     94 N          -7.0710  -24.8668  -49.4077 N.am      17 UNK        -0.5000 
     95 CA         -7.9759  -23.7830  -49.8090 C.3       17 UNK         0.1400 
     96 CB         -9.0011  -23.4982  -48.6929 C.3       17 UNK        -0.1800 
     97 C          -8.6473  -23.9871  -51.1907 C.2       17 UNK         0.5000 
     98 O          -9.6333  -23.3113  -51.4896 O.2       17 UNK        -0.5000 
     99 N          -8.1114  -24.9016  -52.0113 N.am      18 UNK        -0.5000 
    100 CA        -8.6544  -25.2996  -53.3120 C.3       18 UNK         0.1400 
    101 CB        -8.6558  -26.8360  -53.3794 C.3       18 UNK        -0.1800 
    102 C         -7.8542  -24.7092  -54.4882 C.2       18 UNK         0.5000 
    103 O         -8.2530  -24.8854  -55.6406 O.2       18 UNK        -0.5000 
    104 N         -6.7446  -24.0283  -54.1891 N.am      19 UNK        -0.5000 
    105 CA        -5.8350  -23.3966  -55.1360 C.3       19 UNK         0.1400 
    106 CB        -4.8321  -24.4434  -55.6603 C.3       19 UNK        -0.1800 
    107 C         -5.1354  -22.2205  -54.4359 C.2       19 UNK         0.5000 
    108 O         -5.4086  -21.9552  -53.2608 O.2       19 UNK        -0.5000 
    109 N         -4.2515  -21.5329  -55.1713 N.am      20 UNK        -0.5000 
    110 CA        -3.3996  -20.4010  -54.7735 C.3       20 UNK         0.1400 
    111 CB        -2.4667  -20.7770  -53.6036 C.3       20 UNK        -0.1800 
    112 C         -4.1569  -19.0924  -54.4734 C.2       20 UNK         0.5000 
    113 O         -3.7095  -18.0306  -54.9077 O.2       20 UNK        -0.5000 
    114 N         -5.2757  -19.1909  -53.7412 N.am      21 UNK        -0.5000 
    115 CA        -6.1460  -18.1043  -53.2740 C.3       21 UNK         0.1400 
    116 CB        -6.8685  -17.4358  -54.4620 C.3       21 UNK        -0.1800 
    117 C         -5.4119  -17.0917  -52.3669 C.2       21 UNK         0.5000 
    118 O         -5.7430  -15.9046  -52.3627 O.2       21 UNK        -0.5000 
    119 N         -4.4181  -17.5835  -51.6205 N.am      22 UNK        -0.5000 
    120 CA        -3.5324  -16.8091  -50.7530 C.3       22 UNK         0.1400 
    121 C         -2.9533  -17.7484  -49.6686 C.2       22 UNK         0.5000 
    122 N         -3.0297  -17.3726  -48.4009 N.am      22 UNK        -0.7600 
    123 O         -2.4108  -18.8061  -49.9774 O.2       22 UNK        -0.5000 
    124 C124       -2.4099  -16.1074  -51.5671 C.3       23 UNK        -0.0398 
    125 S125       -1.8669  -14.5278  -50.8321 S.3       23 UNK        -0.2404 
    126 C126       -0.5083  -15.0364  -49.7317 C.3       23 UNK        -0.0205 
    127 H127        5.6558  -17.8653  -47.6290 H         1 UNK         0.0600 
    128 H128        4.8134  -17.8956  -49.1785 H         1 UNK         0.0600 
    129 H129        3.9208  -17.5292  -47.6971 H         1 UNK         0.0600 
    130 H130        3.3791  -15.6875  -49.3509 H         1 UNK         0.3000 
    131 H131        3.3270  -13.5569  -49.8922 H         1 UNK         0.0600 
    132 H132        6.3540  -13.5615  -50.1284 H         1 UNK         0.0800 
    133 H133        5.2331  -12.5162  -50.9556 H         1 UNK         0.0800 
    134 H134        3.3029  -13.5428  -52.6371 H         1 UNK         0.0800 
    135 H135        3.6273  -14.9155  -53.6648 H         1 UNK         0.0800 
    136 H136        1.3474  -13.8259  -51.3104 H         1 UNK         0.1150 
    137 H137        0.1963  -17.6532  -49.8015 H         1 UNK         0.1150 
    138 H138        3.7188  -17.2786  -52.2205 H         1 UNK         0.1150 
    139 H139        1.5260  -19.6797  -51.5125 H         1 UNK         0.0800 
    140 H140        3.2270  -19.3791  -51.3122 H         1 UNK         0.0800 
    141 H141       -0.0225  -20.1619  -49.9271 H         1 UNK         0.0800 
    142 H142       -0.0037  -19.3857  -48.3719 H         1 UNK         0.0800 
    143 H143        0.8954  -22.2820  -48.7299 H         1 UNK         0.0600 
    144 H144        0.8437  -20.6330  -46.4425 H         1 UNK         0.3000 
    145 H145        0.2266  -23.1842  -43.9725 H         1 UNK         0.0600 
    146 H146        2.6683  -23.1700  -44.3944 H         1 UNK         0.0600 
    147 H147        2.6512  -21.4273  -44.6166 H         1 UNK         0.0600 
    148 H148        2.2678  -22.1197  -43.0433 H         1 UNK         0.0600 
    149 H149        0.5320  -20.3910  -43.6589 H         1 UNK         0.3000 
    150 H150       -2.8937  -19.4596  -44.1657 H         1 UNK         0.0600 
    151 H151       -2.4440  -18.4375  -41.9292 H         1 UNK         0.0600 
    152 H152       -1.1224  -19.5747  -41.6671 H         1 UNK         0.0600 
    153 H153       -2.7708  -20.1595  -41.8098 H         1 UNK         0.0600 
    154 H154       -0.4555  -18.0210  -43.5814 H         1 UNK         0.3000 
    155 H155        0.4559  -17.4216  -46.9590 H         1 UNK         0.0600 
    156 H156       -0.6887  -15.4078  -44.9630 H         1 UNK         0.0600 
    157 H157       -1.3824  -15.7305  -46.5492 H         1 UNK         0.0600 
    158 H158        0.2435  -15.0756  -46.4249 H         1 UNK         0.0600 
    159 H159        1.3900  -16.4397  -44.4057 H         1 UNK         0.3000 
    160 H160        3.7483  -19.1033  -43.8830 H         1 UNK         0.0600 
    161 H161        4.8996  -17.5028  -45.3703 H         1 UNK         0.0600 
    162 H162        5.2226  -17.0752  -43.7022 H         1 UNK         0.0600 
    163 H163        4.0530  -16.1445  -44.6390 H         1 UNK         0.0600 
    164 H164        3.1933  -16.8057  -42.3340 H         1 UNK         0.3000 
    165 H165        0.3393  -17.7043  -40.6392 H         1 UNK         0.0600 
    166 H166        1.5830  -17.9986  -38.5096 H         1 UNK         0.0600 
    167 H167        1.6805  -19.4605  -39.4765 H         1 UNK         0.0600 
    168 H168        3.0618  -18.3737  -39.3963 H         1 UNK         0.0600 
    169 H169        2.4915  -16.0166  -39.8303 H         1 UNK         0.3000 
    170 H170        1.9703  -13.6743  -39.9905 H         1 UNK         0.0600 
    171 H171        3.8762  -12.8639  -41.4614 H         1 UNK         0.0600 
    172 H172        4.0533  -14.5371  -40.9659 H         1 UNK         0.0600 
    173 H173        3.5120  -14.1633  -42.5952 H         1 UNK         0.0600 
    174 H174        1.3463  -12.8241  -42.7831 H         1 UNK         0.3000 
    175 H175       -1.2893  -10.8337  -41.8920 H         1 UNK         0.0600 
    176 H176        1.4384   -9.4331  -41.8886 H         1 UNK         0.0600 
    177 H177       -0.1032   -8.6824  -42.3037 H         1 UNK         0.0600 
    178 H178        0.1854   -9.2486  -40.6675 H         1 UNK         0.0600 
    179 H179        0.8045  -10.6158  -43.9337 H         1 UNK         0.3000 
    180 H180       -0.6105  -12.9945  -46.0948 H         1 UNK         0.0600 
    181 H181       -0.8578  -11.1496  -47.7074 H         1 UNK         0.0600 
    182 H182       -0.7974   -9.9592  -46.4060 H         1 UNK         0.0600 
    183 H183       -2.1489  -11.0800  -46.5203 H         1 UNK         0.0600 
    184 H184        1.3902  -11.1466  -46.6769 H         1 UNK         0.3000 
    185 H185        3.5971  -11.2935  -46.2171 H         1 UNK         0.0600 
    186 H186        4.6015  -13.7849  -44.7279 H         1 UNK         0.0600 
    187 H187        5.5874  -12.4561  -45.3245 H         1 UNK         0.0600 
    188 H188        4.4466  -12.1799  -44.0167 H         1 UNK         0.0600 
    189 H189        3.1613  -14.0310  -47.1943 H         1 UNK         0.3000 
    190 H190       -1.9347  -20.6728  -47.1792 H         1 UNK         0.3000 
    191 H191       -3.8887  -21.6838  -48.9470 H         1 UNK         0.0600 
    192 H192       -4.1578  -20.7992  -46.0254 H         1 UNK         0.0600 
    193 H193       -5.4939  -21.0180  -47.1493 H         1 UNK         0.0600 
    194 H194       -4.2978  -19.7668  -47.4460 H         1 UNK         0.0600 
    195 H195       -2.6780  -23.0113  -45.8443 H         1 UNK         0.3000 
    196 H196       -4.3774  -25.2770  -45.7203 H         1 UNK         0.0600 
    197 H197       -2.7115  -26.0982  -44.0482 H         1 UNK         0.0600 
    198 H198       -3.1298  -24.4151  -43.7650 H         1 UNK         0.0600 
    199 H199       -1.5932  -24.8255  -44.5234 H         1 UNK         0.0600 
    200 H200       -1.0637  -24.9115  -47.1069 H         1 UNK         0.3000 
    201 H201       -0.7337  -27.6061  -47.9296 H         1 UNK         0.0600 
    202 H202        1.1517  -26.0200  -47.7366 H         1 UNK         0.0600 
    203 H203        0.4956  -25.0249  -49.0351 H         1 UNK         0.0600 
    204 H204        1.0786  -26.6509  -49.3746 H         1 UNK         0.0600 
    205 H205       -2.2078  -24.8130  -49.5766 H         1 UNK         0.3000 
    206 H206       -2.8286  -26.2461  -52.0321 H         1 UNK         0.0600 
    207 H207       -4.0146  -24.1455  -52.5752 H         1 UNK         0.0600 
    208 H208       -3.8222  -23.5631  -50.9278 H         1 UNK         0.0600 
    209 H209       -2.4116  -23.7834  -51.9625 H         1 UNK         0.0600 
    210 H210       -4.1445  -26.4703  -48.9510 H         1 UNK         0.3000 
    211 H211       -5.9876  -27.1715  -47.9758 H         1 UNK         0.0600 
    212 H212       -6.6405  -28.5454  -50.6382 H         1 UNK         0.0600 
    213 H213       -7.2574  -28.9939  -49.0533 H         1 UNK         0.0600 
    214 H214       -5.5495  -29.1857  -49.4094 H         1 UNK         0.0600 
    215 H215       -6.1072  -24.5868  -49.2436 H         1 UNK         0.3000 
    216 H216       -7.3480  -22.8970  -49.9125 H         1 UNK         0.0600 
    217 H217       -9.5801  -22.6000  -48.9102 H         1 UNK         0.0600 
    218 H218       -8.5054  -23.3380  -47.7354 H         1 UNK         0.0600 
    219 H219       -9.7067  -24.3206  -48.5727 H         1 UNK         0.0600 
    220 H220       -7.2802  -25.4033  -51.7130 H         1 UNK         0.3000 
    221 H221       -9.6852  -24.9552  -53.4151 H         1 UNK         0.0600 
    222 H222       -7.6451  -27.2418  -53.3190 H         1 UNK         0.0600 
    223 H223       -9.2366  -27.2648  -52.5624 H         1 UNK         0.0600 
    224 H224       -9.0973  -27.1889  -54.3122 H         1 UNK         0.0600 
    225 H225       -6.5209  -23.8587  -53.2171 H         1 UNK         0.3000 
    226 H226       -6.4075  -22.9881  -55.9712 H         1 UNK         0.0600 
    227 H227       -5.3469  -25.2724  -56.1463 H         1 UNK         0.0600 
    228 H228       -4.1534  -24.0152  -56.3982 H         1 UNK         0.0600 
    229 H229       -4.2250  -24.8585  -54.8554 H         1 UNK         0.0600 
    230 H230       -4.1377  -21.8138  -56.1353 H         1 UNK         0.3000 
    231 H231       -2.7652  -20.1982  -55.6380 H         1 UNK         0.0600 
    232 H232       -3.0171  -20.9757  -52.6834 H         1 UNK         0.0600 
    233 H233       -1.8779  -21.6637  -53.8379 H         1 UNK         0.0600 
    234 H234       -1.7663  -19.9685  -53.3898 H         1 UNK         0.0600 
    235 H235       -5.5222  -20.1269  -53.4255 H         1 UNK         0.3000 
    236 H236       -6.9067  -18.5729  -52.6482 H         1 UNK         0.0600 
    237 H237       -6.1758  -16.8881  -55.1016 H         1 UNK         0.0600 
    238 H238       -7.3809  -18.1749  -55.0778 H         1 UNK         0.0600 
    239 H239       -7.6213  -16.7275  -54.1142 H         1 UNK         0.0600 
    240 H240       -4.2150  -18.5732  -51.6560 H         1 UNK         0.3000 
    241 H241       -4.1442  -16.0519  -50.2581 H         1 UNK         0.0600 
    242 H242       -2.6192  -17.9754  -47.6923 H         1 UNK         0.3800 
    243 H243       -3.4898  -16.5199  -48.1266 H         1 UNK         0.3800 
    244 H244       -1.5620  -16.7690  -51.7484 H         1 UNK         0.0800 
    245 H245       -2.7781  -15.8517  -52.5616 H         1 UNK         0.0800 
    246 H246       -0.8926  -15.7125  -48.9691 H         1 UNK         0.0800 
    247 H247       -0.1483  -14.1574  -49.1950 H         1 UNK         0.0800 
@<TRIPOS>BOND
     1    1    2 1    
     2    1  127 1    
     3    1  128 1    
     4    1  129 1    
     5    2    3 2    
     6    2    4 am   BACKBONE|DICT|INTERRES
     7    4    5 1    
     8    4  130 1    
     9    5    6 1    
    10    5   65 1    
    11    5  131 1    
    12    6    7 1    
    13    6  132 1    
    14    6  133 1    
    15    7    8 1    
    16    8    9 1    
    17    8  134 1    
    18    8  135 1    
    19    9   10 ar   
    20    9   14 ar   
    21   10   11 ar   
    22   10  136 1    
    23   11   12 ar   
    24   11  126 1    
    25   12   13 ar   
    26   12  137 1    
    27   13   14 ar   
    28   13   15 1    
    29   14  138 1    
    30   15   16 1    
    31   15  139 1    
    32   15  140 1    
    33   16   17 1    
    34   17   18 1    
    35   17  141 1    
    36   17  142 1    
    37   18   19 1    
    38   18   67 1    
    39   18  143 1    
    40   19   20 am   BACKBONE|DICT|INTERRES
    41   19  144 1    
    42   20   21 2    
    43   20   22 1    
    44   22   23 1    
    45   22   24 1    
    46   22  145 1    
    47   23  146 1    
    48   23  147 1    
    49   23  148 1    
    50   24   25 am   BACKBONE|DICT|INTERRES
    51   24  149 1    
    52   25   26 2    
    53   25   27 1    
    54   27   28 1    
    55   27   29 1    
    56   27  150 1    
    57   28  151 1    
    58   28  152 1    
    59   28  153 1    
    60   29   30 am   BACKBONE|DICT|INTERRES
    61   29  154 1    
    62   30   31 2    
    63   30   32 1    
    64   32   33 1    
    65   32   34 1    
    66   32  155 1    
    67   33  156 1    
    68   33  157 1    
    69   33  158 1    
    70   34   35 am   BACKBONE|DICT|INTERRES
    71   34  159 1    
    72   35   36 2    
    73   35   37 1    
    74   37   38 1    
    75   37   39 1    
    76   37  160 1    
    77   38  161 1    
    78   38  162 1    
    79   38  163 1    
    80   39   40 am   BACKBONE|DICT|INTERRES
    81   39  164 1    
    82   40   41 2    
    83   40   42 1    
    84   42   43 1    
    85   42   44 1    
    86   42  165 1    
    87   43  166 1    
    88   43  167 1    
    89   43  168 1    
    90   44   45 am   BACKBONE|DICT|INTERRES
    91   44  169 1    
    92   45   46 2    
    93   45   47 1    
    94   47   48 1    
    95   47   49 1    
    96   47  170 1    
    97   48  171 1    
    98   48  172 1    
    99   48  173 1    
   100   49   50 am   BACKBONE|DICT|INTERRES
   101   49  174 1    
   102   50   51 2    
   103   50   52 1    
   104   52   53 1    
   105   52   54 1    
   106   52  175 1    
   107   53  176 1    
   108   53  177 1    
   109   53  178 1    
   110   54   55 am   BACKBONE|DICT|INTERRES
   111   54  179 1    
   112   55   56 2    
   113   55   57 1    
   114   57   58 1    
   115   57   59 1    
   116   57  180 1    
   117   58  181 1    
   118   58  182 1    
   119   58  183 1    
   120   59   60 am   BACKBONE|DICT|INTERRES
   121   59  184 1    
   122   60   61 2    
   123   60   62 1    
   124   62   63 1    
   125   62   64 1    
   126   62  185 1    
   127   63  186 1    
   128   63  187 1    
   129   63  188 1    
   130   64   65 am   BACKBONE|DICT|INTERRES
   131   64  189 1    
   132   65   66 2    
   133   67   68 2    
   134   67   69 am   BACKBONE|DICT|INTERRES
   135   69   70 1    
   136   69  190 1    
   137   70   71 1    
   138   70   72 1    
   139   70  191 1    
   140   71  192 1    
   141   71  193 1    
   142   71  194 1    
   143   72   73 2    
   144   72   74 am   BACKBONE|DICT|INTERRES
   145   74   75 1    
   146   74  195 1    
   147   75   76 1    
   148   75   77 1    
   149   75  196 1    
   150   76  197 1    
   151   76  198 1    
   152   76  199 1    
   153   77   78 2    
   154   77   79 am   BACKBONE|DICT|INTERRES
   155   79   80 1    
   156   79  200 1    
   157   80   81 1    
   158   80   82 1    
   159   80  201 1    
   160   81  202 1    
   161   81  203 1    
   162   81  204 1    
   163   82   83 2    
   164   82   84 am   BACKBONE|DICT|INTERRES
   165   84   85 1    
   166   84  205 1    
   167   85   86 1    
   168   85   87 1    
   169   85  206 1    
   170   86  207 1    
   171   86  208 1    
   172   86  209 1    
   173   87   88 2    
   174   87   89 am   BACKBONE|DICT|INTERRES
   175   89   90 1    
   176   89  210 1    
   177   90   91 1    
   178   90   92 1    
   179   90  211 1    
   180   91  212 1    
   181   91  213 1    
   182   91  214 1    
   183   92   93 2    
   184   92   94 am   BACKBONE|DICT|INTERRES
   185   94   95 1    
   186   94  215 1    
   187   95   96 1    
   188   95   97 1    
   189   95  216 1    
   190   96  217 1    
   191   96  218 1    
   192   96  219 1    
   193   97   98 2    
   194   97   99 am   BACKBONE|DICT|INTERRES
   195   99  100 1    
   196   99  220 1    
   197  100  101 1    
   198  100  102 1    
   199  100  221 1    
   200  101  222 1    
   201  101  223 1    
   202  101  224 1    
   203  102  103 2    
   204  102  104 am   BACKBONE|DICT|INTERRES
   205  104  105 1    
   206  104  225 1    
   207  105  106 1    
   208  105  107 1    
   209  105  226 1    
   210  106  227 1    
   211  106  228 1    
   212  106  229 1    
   213  107  108 2    
   214  107  109 am   BACKBONE|DICT|INTERRES
   215  109  110 1    
   216  109  230 1    
   217  110  111 1    
   218  110  112 1    
   219  110  231 1    
   220  111  232 1    
   221  111  233 1    
   222  111  234 1    
   223  112  113 2    
   224  112  114 am   BACKBONE|DICT|INTERRES
   225  114  115 1    
   226  114  235 1    
   227  115  116 1    
   228  115  117 1    
   229  115  236 1    
   230  116  237 1    
   231  116  238 1    
   232  116  239 1    
   233  117  118 2    
   234  117  119 am   BACKBONE|DICT|INTERRES
   235  119  120 1    
   236  119  240 1    
   237  120  121 1    
   238  120  124 1    
   239  120  241 1    
   240  121  122 am   BACKBONE|DICT|INTERRES
   241  121  123 2    
   242  122  242 1    
   243  122  243 1    
   244  124  125 1    
   245  124  244 1    
   246  124  245 1    
   247  125  126 1    
   248  126  246 1    
   249  126  247 1    
@<TRIPOS>SUBSTRUCTURE
     1 UNK         1 GROUP             0       ****    0 ROOT    
