@<TRIPOS>MOLECULE
3R540
247   249    1
SMALL
USER_CHARGES


@<TRIPOS>ATOM
      1 CA         -2.5245  -18.0603  -47.8210 C.3       0 UNK        -0.1800 
      2 C          -2.1023  -16.6032  -47.7033 C.2       0 UNK         0.5000 
      3 O          -2.9591  -15.7208  -47.6503 O.2       0 UNK        -0.5000 
      4 N          -0.7901  -16.3423  -47.6330 N.am      1 UNK        -0.5000 
      5 CA         -0.1792  -15.0172  -47.4533 C.3       1 UNK         0.1400 
      6 C6          1.2960  -14.9959  -47.9319 C.3       23 UNK        -0.0398 
      7 S7          1.4233  -15.0573  -49.7504 S.3       23 UNK        -0.2404 
      8 C8          2.3019  -16.6259  -50.0402 C.3       23 UNK        -0.0205 
      9 C9          1.3955  -17.8405  -49.9010 C.ar      23 UNK        -0.0193 
     10 C10         0.2869  -17.9892  -50.7388 C.ar      23 UNK        -0.1150 
     11 C11        -0.5453  -19.1140  -50.6445 C.ar      23 UNK        -0.0193 
     12 C12        -0.2389  -20.0962  -49.6978 C.ar      23 UNK        -0.1150 
     13 C13         0.8774  -19.9688  -48.8651 C.ar      23 UNK        -0.0193 
     14 C14         1.6857  -18.8345  -48.9655 C.ar      23 UNK        -0.1150 
     15 C15         1.2019  -21.0486  -47.8475 C.3       23 UNK        -0.0205 
     16 S16         1.6042  -22.6334  -48.6363 S.3       23 UNK        -0.2404 
     17 C17         2.0322  -23.6584  -47.1797 C.3       23 UNK        -0.0398 
     18 CA          0.9090  -23.9654  -46.1462 C.3       11 UNK         0.1400 
     19 N           0.8670  -22.9841  -45.0534 N.am      11 UNK        -0.5000 
     20 C           0.1942  -23.1548  -43.9050 C.2       10 UNK         0.5000 
     21 O          -0.4414  -24.1759  -43.6387 O.2       10 UNK        -0.5000 
     22 CA          0.1940  -21.9896  -42.8949 C.3       10 UNK         0.1400 
     23 CB          1.2761  -22.2103  -41.8282 C.3       10 UNK        -0.1800 
     24 N           0.3502  -20.6441  -43.4594 N.am      10 UNK        -0.5000 
     25 C          -0.4016  -20.0923  -44.4224 C.2       9 UNK         0.5000 
     26 O          -1.2283  -20.7179  -45.0849 O.2       9 UNK        -0.5000 
     27 CA         -0.2258  -18.5855  -44.6877 C.3       9 UNK         0.1400 
     28 CB         -1.4246  -17.8231  -44.1083 C.3       9 UNK        -0.1800 
     29 N           1.0047  -18.0162  -44.1363 N.am      9 UNK        -0.5000 
     30 C           2.2324  -18.2119  -44.6359 C.2       8 UNK         0.5000 
     31 O           2.4596  -18.8757  -45.6436 O.2       8 UNK        -0.5000 
     32 CA          3.4077  -17.5920  -43.8623 C.3       8 UNK         0.1400 
     33 CB          3.6861  -16.1596  -44.3449 C.3       8 UNK        -0.1800 
     34 N           3.1623  -17.5989  -42.4191 N.am      8 UNK        -0.5000 
     35 C           3.2876  -18.6857  -41.6423 C.2       7 UNK         0.5000 
     36 O           3.6951  -19.7713  -42.0539 O.2       7 UNK        -0.5000 
     37 CA          2.8699  -18.5513  -40.1646 C.3       7 UNK         0.1400 
     38 CB          4.0797  -18.1686  -39.2990 C.3       7 UNK        -0.1800 
     39 N           1.8066  -17.5681  -39.9578 N.am      7 UNK        -0.5000 
     40 C           0.5373  -17.7079  -40.3680 C.2       6 UNK         0.5000 
     41 O           0.1009  -18.7247  -40.9052 O.2       6 UNK        -0.5000 
     42 CA         -0.3753  -16.4740  -40.2035 C.3       6 UNK         0.1400 
     43 CB         -1.0923  -16.5066  -38.8461 C.3       6 UNK        -0.1800 
     44 N           0.3603  -15.2106  -40.3376 N.am      6 UNK        -0.5000 
     45 C           0.9743  -14.8244  -41.4630 C.2       5 UNK         0.5000 
     46 O           0.9085  -15.4573  -42.5182 O.2       5 UNK        -0.5000 
     47 CA          1.8988  -13.6063  -41.3612 C.3       5 UNK         0.1400 
     48 CB          3.2640  -14.0519  -40.7930 C.3       5 UNK        -0.1800 
     49 N           2.0567  -13.0046  -42.6834 N.am      5 UNK        -0.5000 
     50 C           2.6916  -11.8535  -42.9438 C.2       4 UNK         0.5000 
     51 O           3.2454  -11.1617  -42.0884 O.2       4 UNK        -0.5000 
     52 CA          2.6610  -11.3638  -44.3997 C.3       4 UNK         0.1400 
     53 CB          3.4609  -12.2892  -45.3325 C.3       4 UNK        -0.1800 
     54 N           1.2777  -11.2522  -44.8557 N.am      4 UNK        -0.5000 
     55 C           0.4900  -10.1955  -44.6007 C.2       3 UNK         0.5000 
     56 O           0.8910   -9.1570  -44.0736 O.2       3 UNK        -0.5000 
     57 CA         -0.9994  -10.3091  -44.9845 C.3       3 UNK         0.1400 
     58 CB         -1.2492   -9.6787  -46.3631 C.3       3 UNK        -0.1800 
     59 N          -1.4864  -11.6874  -44.9984 N.am      3 UNK        -0.5000 
     60 C          -1.6109  -12.4753  -43.9210 C.2       2 UNK         0.5000 
     61 O          -1.4275  -12.0927  -42.7653 O.2       2 UNK        -0.5000 
     62 CA         -1.9628  -13.9510  -44.1866 C.3       2 UNK         0.1400 
     63 CB         -3.4626  -14.2024  -43.9761 C.3       2 UNK        -0.1800 
     64 N          -1.5846  -14.4154  -45.5257 N.am      2 UNK        -0.5000 
     65 C          -0.3356  -14.4965  -46.0032 C.2       1 UNK         0.5000 
     66 O           0.6507  -14.1490  -45.3523 O.2       1 UNK        -0.5000 
     67 C          -0.4731  -24.2208  -46.7926 C.2       11 UNK         0.5000 
     68 O          -0.6839  -25.3007  -47.3466 O.2       11 UNK        -0.5000 
     69 N          -1.4024  -23.2552  -46.6844 N.am      12 UNK        -0.5000 
     70 CA         -2.7545  -23.3101  -47.2468 C.3       12 UNK         0.1400 
     71 CB         -3.4383  -21.9475  -47.0664 C.3       12 UNK        -0.1800 
     72 C          -3.6281  -24.4410  -46.6702 C.2       12 UNK         0.5000 
     73 O          -4.6097  -24.8224  -47.3047 O.2       12 UNK        -0.5000 
     74 N          -3.2344  -25.0035  -45.5184 N.am      13 UNK        -0.5000 
     75 CA         -3.8161  -26.2167  -44.9421 C.3       13 UNK         0.1400 
     76 CB         -3.2043  -26.4478  -43.5523 C.3       13 UNK        -0.1800 
     77 C          -3.6308  -27.4683  -45.8286 C.2       13 UNK         0.5000 
     78 O          -4.4440  -28.3890  -45.7390 O.2       13 UNK        -0.5000 
     79 N          -2.5836  -27.4762  -46.6662 N.am      14 UNK        -0.5000 
     80 CA         -2.2879  -28.5333  -47.6322 C.3       14 UNK         0.1400 
     81 CB         -0.8661  -29.0594  -47.3786 C.3       14 UNK        -0.1800 
     82 C          -2.4214  -28.0253  -49.0781 C.2       14 UNK         0.5000 
     83 O          -2.9657  -28.7386  -49.9213 O.2       14 UNK        -0.5000 
     84 N          -1.9183  -26.8123  -49.3472 N.am      15 UNK        -0.5000 
     85 CA         -1.8516  -26.2157  -50.6832 C.3       15 UNK         0.1400 
     86 CB         -0.7724  -25.1202  -50.6819 C.3       15 UNK        -0.1800 
     87 C          -3.1872  -25.6354  -51.1826 C.2       15 UNK         0.5000 
     88 O          -3.3225  -25.4068  -52.3862 O.2       15 UNK        -0.5000 
     89 N          -4.1331  -25.3768  -50.2661 N.am      16 UNK        -0.5000 
     90 CA         -5.3965  -24.6700  -50.4960 C.3       16 UNK         0.1400 
     91 CB         -6.3551  -25.5289  -51.3531 C.3       16 UNK        -0.1800 
     92 C          -5.1322  -23.2513  -51.0456 C.2       16 UNK         0.5000 
     93 O          -4.3443  -22.5126  -50.4525 O.2       16 UNK        -0.5000 
     94 N          -5.7614  -22.9056  -52.1743 N.am      17 UNK        -0.5000 
     95 CA         -5.5484  -21.6510  -52.8960 C.3       17 UNK         0.1400 
     96 CB         -6.7864  -21.3794  -53.7676 C.3       17 UNK        -0.1800 
     97 C          -4.2737  -21.6495  -53.7644 C.2       17 UNK         0.5000 
     98 O          -3.9459  -20.6095  -54.3322 O.2       17 UNK        -0.5000 
     99 N          -3.6136  -22.8108  -53.9150 N.am      18 UNK        -0.5000 
    100 CA        -2.4135  -23.0532  -54.7308 C.3       18 UNK         0.1400 
    101 CB        -1.1953  -22.3368  -54.1125 C.3       18 UNK        -0.1800 
    102 C         -2.5911  -22.7186  -56.2313 C.2       18 UNK         0.5000 
    103 O         -1.6027  -22.4722  -56.9246 O.2       18 UNK        -0.5000 
    104 N         -3.8519  -22.7013  -56.6947 N.am      19 UNK        -0.5000 
    105 CA        -4.3183  -22.2470  -58.0101 C.3       19 UNK         0.1400 
    106 CB        -3.8416  -23.2068  -59.1206 C.3       19 UNK        -0.1800 
    107 C         -3.9769  -20.7661  -58.3014 C.2       19 UNK         0.5000 
    108 O         -3.7572  -20.4046  -59.4595 O.2       19 UNK        -0.5000 
    109 N         -3.9325  -19.9373  -57.2504 N.am      20 UNK        -0.5000 
    110 CA        -3.5579  -18.5279  -57.2957 C.3       20 UNK         0.1400 
    111 CB        -2.1280  -18.3940  -56.7435 C.3       20 UNK        -0.1800 
    112 C         -4.5557  -17.6721  -56.4963 C.2       20 UNK         0.5000 
    113 O         -5.4455  -18.1999  -55.8228 O.2       20 UNK        -0.5000 
    114 N         -4.3803  -16.3459  -56.5823 N.am      21 UNK        -0.5000 
    115 CA        -5.2229  -15.3237  -55.9489 C.3       21 UNK         0.1400 
    116 CB        -4.7807  -13.9401  -56.4510 C.3       21 UNK        -0.1800 
    117 C         -5.2350  -15.3585  -54.4059 C.2       21 UNK         0.5000 
    118 O         -6.1505  -14.8020  -53.7981 O.2       21 UNK        -0.5000 
    119 N         -4.2379  -16.0171  -53.8034 N.am      22 UNK        -0.5000 
    120 CA        -4.1746  -16.3360  -52.3696 C.3       22 UNK         0.1400 
    121 C         -5.2115  -17.3973  -51.8894 C.2       22 UNK         0.5000 
    122 N         -5.9099  -18.1008  -52.7737 N.am      22 UNK        -0.7600 
    123 O         -5.4024  -17.5673  -50.6890 O.2       22 UNK        -0.5000 
    124 C124       -2.7298  -16.6915  -51.9356 C.3       23 UNK        -0.0398 
    125 S125       -2.0184  -18.0978  -52.8632 S.3       23 UNK        -0.2404 
    126 C126       -1.7722  -19.3282  -51.5362 C.3       23 UNK        -0.0205 
    127 H127       -3.2396  -18.3080  -47.0367 H         1 UNK         0.0600 
    128 H128       -1.6770  -18.7374  -47.7245 H         1 UNK         0.0600 
    129 H129       -3.0026  -18.2386  -48.7834 H         1 UNK         0.0600 
    130 H130       -0.1353  -17.1060  -47.7197 H         1 UNK         0.3000 
    131 H131       -0.7310  -14.3084  -48.0747 H         1 UNK         0.0600 
    132 H132        1.7929  -14.0719  -47.6304 H         1 UNK         0.0800 
    133 H133        1.8650  -15.8072  -47.4745 H         1 UNK         0.0800 
    134 H134        3.1611  -16.6922  -49.3709 H         1 UNK         0.0800 
    135 H135        2.7068  -16.6136  -51.0530 H         1 UNK         0.0800 
    136 H136        0.0897  -17.2132  -51.4625 H         1 UNK         0.1150 
    137 H137       -0.8670  -20.9727  -49.6128 H         1 UNK         0.1150 
    138 H138        2.5485  -18.7316  -48.3221 H         1 UNK         0.1150 
    139 H139        2.0479  -20.7569  -47.2274 H         1 UNK         0.0800 
    140 H140        0.3456  -21.1662  -47.1874 H         1 UNK         0.0800 
    141 H141        2.8998  -23.2205  -46.6839 H         1 UNK         0.0800 
    142 H142        2.3907  -24.6069  -47.5827 H         1 UNK         0.0800 
    143 H143        1.1839  -24.9110  -45.6731 H         1 UNK         0.0600 
    144 H144        1.3580  -22.1138  -45.1946 H         1 UNK         0.3000 
    145 H145       -0.7770  -22.0068  -42.3965 H         1 UNK         0.0600 
    146 H146        1.2153  -21.4569  -41.0426 H         1 UNK         0.0600 
    147 H147        2.2771  -22.1674  -42.2589 H         1 UNK         0.0600 
    148 H148        1.1648  -23.1849  -41.3509 H         1 UNK         0.0600 
    149 H149        0.9785  -20.0295  -42.9617 H         1 UNK         0.3000 
    150 H150       -0.2107  -18.4434  -45.7688 H         1 UNK         0.0600 
    151 H151       -2.3565  -18.1360  -44.5805 H         1 UNK         0.0600 
    152 H152       -1.3208  -16.7545  -44.2679 H         1 UNK         0.0600 
    153 H153       -1.5275  -17.9892  -43.0357 H         1 UNK         0.0600 
    154 H154        0.9029  -17.3894  -43.3463 H         1 UNK         0.3000 
    155 H155        4.2970  -18.1914  -44.0687 H         1 UNK         0.0600 
    156 H156        3.9476  -16.1520  -45.4037 H         1 UNK         0.0600 
    157 H157        4.5179  -15.7116  -43.8014 H         1 UNK         0.0600 
    158 H158        2.8188  -15.5125  -44.2247 H         1 UNK         0.0600 
    159 H159        2.7682  -16.7572  -42.0261 H         1 UNK         0.3000 
    160 H160        2.5042  -19.5252  -39.8324 H         1 UNK         0.0600 
    161 H161        4.4799  -17.1918  -39.5741 H         1 UNK         0.0600 
    162 H162        4.8848  -18.8963  -39.4100 H         1 UNK         0.0600 
    163 H163        3.8149  -18.1382  -38.2419 H         1 UNK         0.0600 
    164 H164        2.0704  -16.7051  -39.5071 H         1 UNK         0.3000 
    165 H165       -1.1304  -16.5120  -40.9915 H         1 UNK         0.0600 
    166 H166       -1.7924  -15.6765  -38.7503 H         1 UNK         0.0600 
    167 H167       -1.6646  -17.4280  -38.7299 H         1 UNK         0.0600 
    168 H168       -0.3877  -16.4505  -38.0155 H         1 UNK         0.0600 
    169 H169        0.4556  -14.6505  -39.5024 H         1 UNK         0.3000 
    170 H170        1.4385  -12.8734  -40.6957 H         1 UNK         0.0600 
    171 H171        3.7846  -14.7216  -41.4781 H         1 UNK         0.0600 
    172 H172        3.9190  -13.2032  -40.5993 H         1 UNK         0.0600 
    173 H173        3.1480  -14.5768  -39.8442 H         1 UNK         0.0600 
    174 H174        1.6084  -13.5185  -43.4369 H         1 UNK         0.3000 
    175 H175        3.1325  -10.3792  -44.4366 H         1 UNK         0.0600 
    176 H176        3.0799  -13.3091  -45.3334 H         1 UNK         0.0600 
    177 H177        3.4394  -11.9251  -46.3597 H         1 UNK         0.0600 
    178 H178        4.5063  -12.3355  -45.0256 H         1 UNK         0.0600 
    179 H179        0.8648  -12.0956  -45.2353 H         1 UNK         0.3000 
    180 H180       -1.5758   -9.7532  -44.2420 H         1 UNK         0.0600 
    181 H181       -2.3096   -9.6893  -46.6160 H         1 UNK         0.0600 
    182 H182       -0.7094  -10.2058  -47.1508 H         1 UNK         0.0600 
    183 H183       -0.9227   -8.6380  -46.3813 H         1 UNK         0.0600 
    184 H184       -1.6771  -12.0913  -45.9032 H         1 UNK         0.3000 
    185 H185       -1.4134  -14.5463  -43.4565 H         1 UNK         0.0600 
    186 H186       -4.0672  -13.6514  -44.6974 H         1 UNK         0.0600 
    187 H187       -3.7016  -15.2614  -44.0767 H         1 UNK         0.0600 
    188 H188       -3.7752  -13.8927  -42.9780 H         1 UNK         0.0600 
    189 H189       -2.3348  -14.7328  -46.1340 H         1 UNK         0.3000 
    190 H190       -1.1790  -22.4147  -46.1600 H         1 UNK         0.3000 
    191 H191       -2.6548  -23.4952  -48.3179 H         1 UNK         0.0600 
    192 H192       -2.8502  -21.1488  -47.5187 H         1 UNK         0.0600 
    193 H193       -3.5829  -21.7059  -46.0129 H         1 UNK         0.0600 
    194 H194       -4.4185  -21.9369  -47.5447 H         1 UNK         0.0600 
    195 H195       -2.4149  -24.6318  -45.0566 H         1 UNK         0.3000 
    196 H196       -4.8890  -26.0518  -44.8236 H         1 UNK         0.0600 
    197 H197       -3.3874  -25.5985  -42.8938 H         1 UNK         0.0600 
    198 H198       -2.1255  -26.6002  -43.6093 H         1 UNK         0.0600 
    199 H199       -3.6366  -27.3284  -43.0754 H         1 UNK         0.0600 
    200 H200       -1.9700  -26.6690  -46.6844 H         1 UNK         0.3000 
    201 H201       -2.9810  -29.3688  -47.5146 H         1 UNK         0.0600 
    202 H202       -0.7781  -29.4838  -46.3784 H         1 UNK         0.0600 
    203 H203       -0.1196  -28.2695  -47.4729 H         1 UNK         0.0600 
    204 H204       -0.6068  -29.8451  -48.0894 H         1 UNK         0.0600 
    205 H205       -1.4574  -26.2904  -48.6045 H         1 UNK         0.3000 
    206 H206       -1.5467  -26.9887  -51.3917 H         1 UNK         0.0600 
    207 H207       -1.0341  -24.2954  -50.0182 H         1 UNK         0.0600 
    208 H208        0.1922  -25.5133  -50.3603 H         1 UNK         0.0600 
    209 H209       -0.6361  -24.7040  -51.6808 H         1 UNK         0.0600 
    210 H210       -3.9292  -25.5775  -49.2962 H         1 UNK         0.3000 
    211 H211       -5.8688  -24.5324  -49.5237 H         1 UNK         0.0600 
    212 H212       -5.9795  -25.6912  -52.3638 H         1 UNK         0.0600 
    213 H213       -7.3386  -25.0640  -51.4314 H         1 UNK         0.0600 
    214 H214       -6.5041  -26.5088  -50.8992 H         1 UNK         0.0600 
    215 H215       -6.3860  -23.5734  -52.6027 H         1 UNK         0.3000 
    216 H216       -5.4472  -20.8392  -52.1732 H         1 UNK         0.0600 
    217 H217       -6.6804  -20.4492  -54.3278 H         1 UNK         0.0600 
    218 H218       -7.6855  -21.2887  -53.1580 H         1 UNK         0.0600 
    219 H219       -6.9512  -22.1771  -54.4927 H         1 UNK         0.0600 
    220 H220       -3.9386  -23.6186  -53.3957 H         1 UNK         0.3000 
    221 H221       -2.2258  -24.1265  -54.6807 H         1 UNK         0.0600 
    222 H222       -1.2700  -21.2539  -54.2187 H         1 UNK         0.0600 
    223 H223       -1.0982  -22.5663  -53.0514 H         1 UNK         0.0600 
    224 H224       -0.2692  -22.6485  -54.5966 H         1 UNK         0.0600 
    225 H225       -4.5798  -22.9269  -56.0326 H         1 UNK         0.3000 
    226 H226       -5.4074  -22.2996  -57.9786 H         1 UNK         0.0600 
    227 H227       -4.1030  -24.2392  -58.8887 H         1 UNK         0.0600 
    228 H228       -4.3080  -22.9629  -60.0758 H         1 UNK         0.0600 
    229 H229       -2.7618  -23.1578  -59.2632 H         1 UNK         0.0600 
    230 H230       -4.1420  -20.2858  -56.3188 H         1 UNK         0.3000 
    231 H231       -3.5765  -18.1607  -58.3237 H         1 UNK         0.0600 
    232 H232       -1.7933  -17.3565  -56.7258 H         1 UNK         0.0600 
    233 H233       -1.4199  -18.9507  -57.3576 H         1 UNK         0.0600 
    234 H234       -2.0575  -18.7841  -55.7281 H         1 UNK         0.0600 
    235 H235       -3.6220  -15.9972  -57.1508 H         1 UNK         0.3000 
    236 H236       -6.2495  -15.4943  -56.2791 H         1 UNK         0.0600 
    237 H237       -3.7485  -13.7234  -56.1730 H         1 UNK         0.0600 
    238 H238       -4.8599  -13.8690  -57.5359 H         1 UNK         0.0600 
    239 H239       -5.4062  -13.1518  -56.0299 H         1 UNK         0.0600 
    240 H240       -3.5382  -16.4613  -54.3794 H         1 UNK         0.3000 
    241 H241       -4.4409  -15.4216  -51.8360 H         1 UNK         0.0600 
    242 H242       -6.6024  -18.7509  -52.4436 H         1 UNK         0.3800 
    243 H243       -5.7283  -18.0183  -53.7680 H         1 UNK         0.3800 
    244 H244       -2.6859  -16.8855  -50.8630 H         1 UNK         0.0800 
    245 H245       -2.0822  -15.8291  -52.0980 H         1 UNK         0.0800 
    246 H246       -1.6851  -20.3069  -52.0079 H         1 UNK         0.0800 
    247 H247       -2.6703  -19.3737  -50.9189 H         1 UNK         0.0800 
@<TRIPOS>BOND
     1    1    2 1    
     2    1  127 1    
     3    1  128 1    
     4    1  129 1    
     5    2    3 2    
     6    2    4 am   BACKBONE|DICT|INTERRES
     7    4    5 1    
     8    4  130 1    
     9    5    6 1    
    10    5   65 1    
    11    5  131 1    
    12    6    7 1    
    13    6  132 1    
    14    6  133 1    
    15    7    8 1    
    16    8    9 1    
    17    8  134 1    
    18    8  135 1    
    19    9   10 ar   
    20    9   14 ar   
    21   10   11 ar   
    22   10  136 1    
    23   11   12 ar   
    24   11  126 1    
    25   12   13 ar   
    26   12  137 1    
    27   13   14 ar   
    28   13   15 1    
    29   14  138 1    
    30   15   16 1    
    31   15  139 1    
    32   15  140 1    
    33   16   17 1    
    34   17   18 1    
    35   17  141 1    
    36   17  142 1    
    37   18   19 1    
    38   18   67 1    
    39   18  143 1    
    40   19   20 am   BACKBONE|DICT|INTERRES
    41   19  144 1    
    42   20   21 2    
    43   20   22 1    
    44   22   23 1    
    45   22   24 1    
    46   22  145 1    
    47   23  146 1    
    48   23  147 1    
    49   23  148 1    
    50   24   25 am   BACKBONE|DICT|INTERRES
    51   24  149 1    
    52   25   26 2    
    53   25   27 1    
    54   27   28 1    
    55   27   29 1    
    56   27  150 1    
    57   28  151 1    
    58   28  152 1    
    59   28  153 1    
    60   29   30 am   BACKBONE|DICT|INTERRES
    61   29  154 1    
    62   30   31 2    
    63   30   32 1    
    64   32   33 1    
    65   32   34 1    
    66   32  155 1    
    67   33  156 1    
    68   33  157 1    
    69   33  158 1    
    70   34   35 am   BACKBONE|DICT|INTERRES
    71   34  159 1    
    72   35   36 2    
    73   35   37 1    
    74   37   38 1    
    75   37   39 1    
    76   37  160 1    
    77   38  161 1    
    78   38  162 1    
    79   38  163 1    
    80   39   40 am   BACKBONE|DICT|INTERRES
    81   39  164 1    
    82   40   41 2    
    83   40   42 1    
    84   42   43 1    
    85   42   44 1    
    86   42  165 1    
    87   43  166 1    
    88   43  167 1    
    89   43  168 1    
    90   44   45 am   BACKBONE|DICT|INTERRES
    91   44  169 1    
    92   45   46 2    
    93   45   47 1    
    94   47   48 1    
    95   47   49 1    
    96   47  170 1    
    97   48  171 1    
    98   48  172 1    
    99   48  173 1    
   100   49   50 am   BACKBONE|DICT|INTERRES
   101   49  174 1    
   102   50   51 2    
   103   50   52 1    
   104   52   53 1    
   105   52   54 1    
   106   52  175 1    
   107   53  176 1    
   108   53  177 1    
   109   53  178 1    
   110   54   55 am   BACKBONE|DICT|INTERRES
   111   54  179 1    
   112   55   56 2    
   113   55   57 1    
   114   57   58 1    
   115   57   59 1    
   116   57  180 1    
   117   58  181 1    
   118   58  182 1    
   119   58  183 1    
   120   59   60 am   BACKBONE|DICT|INTERRES
   121   59  184 1    
   122   60   61 2    
   123   60   62 1    
   124   62   63 1    
   125   62   64 1    
   126   62  185 1    
   127   63  186 1    
   128   63  187 1    
   129   63  188 1    
   130   64   65 am   BACKBONE|DICT|INTERRES
   131   64  189 1    
   132   65   66 2    
   133   67   68 2    
   134   67   69 am   BACKBONE|DICT|INTERRES
   135   69   70 1    
   136   69  190 1    
   137   70   71 1    
   138   70   72 1    
   139   70  191 1    
   140   71  192 1    
   141   71  193 1    
   142   71  194 1    
   143   72   73 2    
   144   72   74 am   BACKBONE|DICT|INTERRES
   145   74   75 1    
   146   74  195 1    
   147   75   76 1    
   148   75   77 1    
   149   75  196 1    
   150   76  197 1    
   151   76  198 1    
   152   76  199 1    
   153   77   78 2    
   154   77   79 am   BACKBONE|DICT|INTERRES
   155   79   80 1    
   156   79  200 1    
   157   80   81 1    
   158   80   82 1    
   159   80  201 1    
   160   81  202 1    
   161   81  203 1    
   162   81  204 1    
   163   82   83 2    
   164   82   84 am   BACKBONE|DICT|INTERRES
   165   84   85 1    
   166   84  205 1    
   167   85   86 1    
   168   85   87 1    
   169   85  206 1    
   170   86  207 1    
   171   86  208 1    
   172   86  209 1    
   173   87   88 2    
   174   87   89 am   BACKBONE|DICT|INTERRES
   175   89   90 1    
   176   89  210 1    
   177   90   91 1    
   178   90   92 1    
   179   90  211 1    
   180   91  212 1    
   181   91  213 1    
   182   91  214 1    
   183   92   93 2    
   184   92   94 am   BACKBONE|DICT|INTERRES
   185   94   95 1    
   186   94  215 1    
   187   95   96 1    
   188   95   97 1    
   189   95  216 1    
   190   96  217 1    
   191   96  218 1    
   192   96  219 1    
   193   97   98 2    
   194   97   99 am   BACKBONE|DICT|INTERRES
   195   99  100 1    
   196   99  220 1    
   197  100  101 1    
   198  100  102 1    
   199  100  221 1    
   200  101  222 1    
   201  101  223 1    
   202  101  224 1    
   203  102  103 2    
   204  102  104 am   BACKBONE|DICT|INTERRES
   205  104  105 1    
   206  104  225 1    
   207  105  106 1    
   208  105  107 1    
   209  105  226 1    
   210  106  227 1    
   211  106  228 1    
   212  106  229 1    
   213  107  108 2    
   214  107  109 am   BACKBONE|DICT|INTERRES
   215  109  110 1    
   216  109  230 1    
   217  110  111 1    
   218  110  112 1    
   219  110  231 1    
   220  111  232 1    
   221  111  233 1    
   222  111  234 1    
   223  112  113 2    
   224  112  114 am   BACKBONE|DICT|INTERRES
   225  114  115 1    
   226  114  235 1    
   227  115  116 1    
   228  115  117 1    
   229  115  236 1    
   230  116  237 1    
   231  116  238 1    
   232  116  239 1    
   233  117  118 2    
   234  117  119 am   BACKBONE|DICT|INTERRES
   235  119  120 1    
   236  119  240 1    
   237  120  121 1    
   238  120  124 1    
   239  120  241 1    
   240  121  122 am   BACKBONE|DICT|INTERRES
   241  121  123 2    
   242  122  242 1    
   243  122  243 1    
   244  124  125 1    
   245  124  244 1    
   246  124  245 1    
   247  125  126 1    
   248  126  246 1    
   249  126  247 1    
@<TRIPOS>SUBSTRUCTURE
     1 UNK         1 GROUP             0       ****    0 ROOT    
