@<TRIPOS>MOLECULE
3R540
247   249    1
SMALL
USER_CHARGES


@<TRIPOS>ATOM
      1 CA         -2.6425  -10.6877  -44.0127 C.3       0 UNK        -0.1800 
      2 C          -1.4700  -10.4702  -44.9593 C.2       0 UNK         0.5000 
      3 O          -0.9720   -9.3500  -45.0736 O.2       0 UNK        -0.5000 
      4 N          -1.0332  -11.5378  -45.6367 N.am      1 UNK        -0.5000 
      5 CA          0.1238  -11.5569  -46.5384 C.3       1 UNK         0.1400 
      6 C6          0.1785  -12.8631  -47.3698 C.3       23 UNK        -0.0398 
      7 S7         -1.3166  -13.1755  -48.3648 S.3       23 UNK        -0.2404 
      8 C8         -1.1560  -14.9754  -48.5505 C.3       23 UNK        -0.0205 
      9 C9         -2.2090  -15.5602  -49.4749 C.ar      23 UNK        -0.0193 
     10 C10        -1.9932  -15.5763  -50.8560 C.ar      23 UNK        -0.1150 
     11 C11        -2.9477  -16.1261  -51.7157 C.ar      23 UNK        -0.0193 
     12 C12        -4.1205  -16.6673  -51.1833 C.ar      23 UNK        -0.1150 
     13 C13        -4.3450  -16.6621  -49.8036 C.ar      23 UNK        -0.0193 
     14 C14        -3.3855  -16.1068  -48.9520 C.ar      23 UNK        -0.1150 
     15 C15        -5.6372  -17.2397  -49.2494 C.3       23 UNK        -0.0205 
     16 S16        -5.5764  -19.0552  -49.1677 S.3       23 UNK        -0.2404 
     17 C17        -5.0620  -19.3335  -47.4403 C.3       23 UNK        -0.0398 
     18 CA         -4.4826  -20.7558  -47.2675 C.3       11 UNK         0.1400 
     19 N          -3.1632  -20.8929  -47.8930 N.am      11 UNK        -0.5000 
     20 C          -2.5255  -22.0536  -48.0861 C.2       10 UNK         0.5000 
     21 O          -2.9930  -23.1480  -47.7712 O.2       10 UNK        -0.5000 
     22 CA         -1.1170  -21.9871  -48.7010 C.3       10 UNK         0.1400 
     23 CB         -1.2237  -22.0608  -50.2302 C.3       10 UNK        -0.1800 
     24 N          -0.3286  -20.8061  -48.3310 N.am      10 UNK        -0.5000 
     25 C          -0.0774  -20.3763  -47.0865 C.2       9 UNK         0.5000 
     26 O          -0.5649  -20.8807  -46.0720 O.2       9 UNK        -0.5000 
     27 CA          0.8270  -19.1403  -46.9724 C.3       9 UNK         0.1400 
     28 CB          0.0291  -17.8760  -47.3112 C.3       9 UNK        -0.1800 
     29 N           1.3743  -19.0099  -45.6234 N.am      9 UNK        -0.5000 
     30 C           2.4737  -19.6402  -45.1870 C.2       8 UNK         0.5000 
     31 O           3.1731  -20.3542  -45.9070 O.2       8 UNK        -0.5000 
     32 CA          2.8772  -19.4431  -43.7116 C.3       8 UNK         0.1400 
     33 CB          4.2731  -18.8079  -43.5960 C.3       8 UNK        -0.1800 
     34 N           1.9175  -18.6140  -42.9795 N.am      8 UNK        -0.5000 
     35 C           0.9608  -19.0985  -42.1757 C.2       7 UNK         0.5000 
     36 O           0.8299  -20.2947  -41.9153 O.2       7 UNK        -0.5000 
     37 CA         -0.0269  -18.0883  -41.5598 C.3       7 UNK         0.1400 
     38 CB          0.3780  -17.7621  -40.1154 C.3       7 UNK        -0.1800 
     39 N          -0.1609  -16.8512  -42.3370 N.am      7 UNK        -0.5000 
     40 C          -0.7693  -16.7860  -43.5319 C.2       6 UNK         0.5000 
     41 O          -1.2528  -17.7736  -44.0833 O.2       6 UNK        -0.5000 
     42 CA         -0.8103  -15.4365  -44.2799 C.3       6 UNK         0.1400 
     43 CB         -2.2097  -15.1347  -44.8575 C.3       6 UNK        -0.1800 
     44 N          -0.2731  -14.2991  -43.5278 N.am      6 UNK        -0.5000 
     45 C          -0.7952  -13.6738  -42.4628 C.2       5 UNK         0.5000 
     46 O          -1.9009  -13.9246  -41.9830 O.2       5 UNK        -0.5000 
     47 CA          0.1138  -12.6027  -41.8205 C.3       5 UNK         0.1400 
     48 CB         -0.3229  -12.2086  -40.3938 C.3       5 UNK        -0.1800 
     49 N           1.5337  -12.9889  -41.8598 N.am      5 UNK        -0.5000 
     50 C           2.0767  -14.0624  -41.2659 C.2       4 UNK         0.5000 
     51 O           1.4334  -14.8369  -40.5594 O.2       4 UNK        -0.5000 
     52 CA          3.5677  -14.3386  -41.5503 C.3       4 UNK         0.1400 
     53 CB          4.0500  -15.6771  -40.9502 C.3       4 UNK        -0.1800 
     54 N           3.9077  -14.2779  -42.9758 N.am      4 UNK        -0.5000 
     55 C           3.4008  -15.0137  -43.9743 C.2       3 UNK         0.5000 
     56 O           2.4756  -15.8171  -43.8330 O.2       3 UNK        -0.5000 
     57 CA          4.0376  -14.7988  -45.3669 C.3       3 UNK         0.1400 
     58 CB          3.4770  -15.7691  -46.4225 C.3       3 UNK        -0.1800 
     59 N           3.8448  -13.4347  -45.8577 N.am      3 UNK        -0.5000 
     60 C           4.4311  -12.3202  -45.3982 C.2       2 UNK         0.5000 
     61 O           5.3226  -12.3209  -44.5480 O.2       2 UNK        -0.5000 
     62 CA          3.8976  -10.9773  -45.9461 C.3       2 UNK         0.1400 
     63 CB          4.8280  -10.4384  -47.0431 C.3       2 UNK        -0.1800 
     64 N           2.5263  -11.0461  -46.4721 N.am      2 UNK        -0.5000 
     65 C           1.4480  -11.4023  -45.7585 C.2       1 UNK         0.5000 
     66 O           1.4984  -11.6925  -44.5611 O.2       1 UNK        -0.5000 
     67 C          -4.5185  -21.2187  -45.7943 C.2       11 UNK         0.5000 
     68 O          -5.5830  -21.6277  -45.3294 O.2       11 UNK        -0.5000 
     69 N          -3.3710  -21.1906  -45.1048 N.am      12 UNK        -0.5000 
     70 CA         -3.2117  -21.7110  -43.7494 C.3       12 UNK         0.1400 
     71 CB         -2.5036  -20.6566  -42.8889 C.3       12 UNK        -0.1800 
     72 C          -2.4147  -23.0245  -43.7580 C.2       12 UNK         0.5000 
     73 O          -2.8402  -23.9963  -43.1338 O.2       12 UNK        -0.5000 
     74 N          -1.2767  -23.0351  -44.4650 N.am      13 UNK        -0.5000 
     75 CA         -0.2932  -24.1189  -44.4558 C.3       13 UNK         0.1400 
     76 CB          1.0172  -23.6062  -45.0735 C.3       13 UNK        -0.1800 
     77 C          -0.7574  -25.3995  -45.1718 C.2       13 UNK         0.5000 
     78 O          -0.3303  -26.4887  -44.7866 O.2       13 UNK        -0.5000 
     79 N          -1.6100  -25.2515  -46.1926 N.am      14 UNK        -0.5000 
     80 CA         -2.1441  -26.3455  -47.0060 C.3       14 UNK         0.1400 
     81 CB         -1.5711  -26.2261  -48.4302 C.3       14 UNK        -0.1800 
     82 C          -3.6832  -26.3426  -47.0212 C.2       14 UNK         0.5000 
     83 O          -4.2749  -27.0258  -47.8562 O.2       14 UNK        -0.5000 
     84 N          -4.3125  -25.5483  -46.1397 N.am      15 UNK        -0.5000 
     85 CA         -5.7630  -25.3390  -46.0208 C.3       15 UNK         0.1400 
     86 CB         -6.4330  -26.5921  -45.4207 C.3       15 UNK        -0.1800 
     87 C          -6.4310  -24.8778  -47.3385 C.2       15 UNK         0.5000 
     88 O          -7.5733  -25.2459  -47.6161 O.2       15 UNK        -0.5000 
     89 N          -5.6822  -24.0982  -48.1319 N.am      16 UNK        -0.5000 
     90 CA         -6.0125  -23.5621  -49.4551 C.3       16 UNK         0.1400 
     91 CB         -7.3041  -22.7173  -49.4301 C.3       16 UNK        -0.1800 
     92 C          -6.0129  -24.6057  -50.5901 C.2       16 UNK         0.5000 
     93 O          -6.4048  -24.2649  -51.7062 O.2       16 UNK        -0.5000 
     94 N          -5.5262  -25.8318  -50.3407 N.am      17 UNK        -0.5000 
     95 CA         -5.3874  -26.8694  -51.3704 C.3       17 UNK         0.1400 
     96 CB         -5.1189  -28.2281  -50.7071 C.3       17 UNK        -0.1800 
     97 C          -4.2833  -26.5461  -52.3970 C.2       17 UNK         0.5000 
     98 O          -4.3972  -26.9392  -53.5581 O.2       17 UNK        -0.5000 
     99 N          -3.2500  -25.8177  -51.9525 N.am      18 UNK        -0.5000 
    100 CA        -2.1135  -25.3790  -52.7647 C.3       18 UNK         0.1400 
    101 CB        -0.8212  -25.5688  -51.9517 C.3       18 UNK        -0.1800 
    102 C         -2.2578  -23.9230  -53.2534 C.2       18 UNK         0.5000 
    103 O         -1.3093  -23.3889  -53.8281 O.2       18 UNK        -0.5000 
    104 N         -3.4249  -23.2915  -53.0390 N.am      19 UNK        -0.5000 
    105 CA        -3.7029  -21.8925  -53.4009 C.3       19 UNK         0.1400 
    106 CB        -5.0454  -21.4570  -52.7962 C.3       19 UNK        -0.1800 
    107 C         -3.6631  -21.6028  -54.9166 C.2       19 UNK         0.5000 
    108 O         -3.5597  -20.4420  -55.3092 O.2       19 UNK        -0.5000 
    109 N         -3.6782  -22.6558  -55.7460 N.am      20 UNK        -0.5000 
    110 CA        -3.4224  -22.6053  -57.1876 C.3       20 UNK         0.1400 
    111 CB        -3.6677  -24.0021  -57.7788 C.3       20 UNK        -0.1800 
    112 C         -2.0076  -22.1017  -57.5565 C.2       20 UNK         0.5000 
    113 O         -1.7959  -21.6963  -58.6997 O.2       20 UNK        -0.5000 
    114 N         -1.0707  -22.1204  -56.5950 N.am      21 UNK        -0.5000 
    115 CA         0.2782  -21.5677  -56.7247 C.3       21 UNK         0.1400 
    116 CB         1.1436  -22.0924  -55.5683 C.3       21 UNK        -0.1800 
    117 C          0.3212  -20.0248  -56.7691 C.2       21 UNK         0.5000 
    118 O          1.3361  -19.4748  -57.2002 O.2       21 UNK        -0.5000 
    119 N         -0.7495  -19.3506  -56.3226 N.am      22 UNK        -0.5000 
    120 CA        -0.9071  -17.8888  -56.3925 C.3       22 UNK         0.1400 
    121 C         -0.9520  -17.3663  -57.8570 C.2       22 UNK         0.5000 
    122 N         -0.2720  -16.2667  -58.1526 N.am      22 UNK        -0.7600 
    123 O         -1.6356  -17.9207  -58.7147 O.2       22 UNK        -0.5000 
    124 C124       -2.1659  -17.4121  -55.6265 C.3       23 UNK        -0.0398 
    125 S125       -2.0617  -17.6919  -53.8246 S.3       23 UNK        -0.2404 
    126 C126       -2.7308  -16.1115  -53.2198 C.3       23 UNK        -0.0205 
    127 H127       -2.9785  -11.7252  -44.0142 H         1 UNK         0.0600 
    128 H128       -3.4827  -10.0577  -44.3043 H         1 UNK         0.0600 
    129 H129       -2.3557  -10.4265  -42.9941 H         1 UNK         0.0600 
    130 H130       -1.4913  -12.4260  -45.5034 H         1 UNK         0.3000 
    131 H131        0.0328  -10.7101  -47.2220 H         1 UNK         0.0600 
    132 H132        0.3450  -13.7174  -46.7113 H         1 UNK         0.0800 
    133 H133        1.0219  -12.8443  -48.0624 H         1 UNK         0.0800 
    134 H134       -1.2330  -15.4344  -47.5664 H         1 UNK         0.0800 
    135 H135       -0.1618  -15.2148  -48.9313 H         1 UNK         0.0800 
    136 H136       -1.0840  -15.1548  -51.2613 H         1 UNK         0.1150 
    137 H137       -4.8614  -17.0944  -51.8449 H         1 UNK         0.1150 
    138 H138       -3.5553  -16.0967  -47.8847 H         1 UNK         0.1150 
    139 H139       -5.8622  -16.8231  -48.2663 H         1 UNK         0.0800 
    140 H140       -6.4660  -16.9481  -49.8962 H         1 UNK         0.0800 
    141 H141       -5.9445  -19.1876  -46.8142 H         1 UNK         0.0800 
    142 H142       -4.3352  -18.5786  -47.1357 H         1 UNK         0.0800 
    143 H143       -5.1501  -21.4387  -47.7893 H         1 UNK         0.0600 
    144 H144       -2.7129  -20.0398  -48.1889 H         1 UNK         0.3000 
    145 H145       -0.5733  -22.8667  -48.3506 H         1 UNK         0.0600 
    146 H146       -0.2485  -22.2178  -50.6915 H         1 UNK         0.0600 
    147 H147       -1.8644  -22.8885  -50.5328 H         1 UNK         0.0600 
    148 H148       -1.6530  -21.1499  -50.6496 H         1 UNK         0.0600 
    149 H149        0.0983  -20.3110  -49.1005 H         1 UNK         0.3000 
    150 H150        1.6472  -19.2358  -47.6871 H         1 UNK         0.0600 
    151 H151       -0.3019  -17.8888  -48.3503 H         1 UNK         0.0600 
    152 H152        0.6369  -16.9831  -47.1763 H         1 UNK         0.0600 
    153 H153       -0.8604  -17.7783  -46.6886 H         1 UNK         0.0600 
    154 H154        0.7929  -18.5328  -44.9486 H         1 UNK         0.3000 
    155 H155        2.9332  -20.4381  -43.2658 H         1 UNK         0.0600 
    156 H156        4.3161  -17.8302  -44.0722 H         1 UNK         0.0600 
    157 H157        5.0289  -19.4350  -44.0704 H         1 UNK         0.0600 
    158 H158        4.5641  -18.6845  -42.5528 H         1 UNK         0.0600 
    159 H159        1.9658  -17.6129  -43.1498 H         1 UNK         0.3000 
    160 H160       -1.0082  -18.5651  -41.5261 H         1 UNK         0.0600 
    161 H161        1.4001  -17.3870  -40.0591 H         1 UNK         0.0600 
    162 H162        0.3266  -18.6532  -39.4888 H         1 UNK         0.0600 
    163 H163       -0.2825  -17.0150  -39.6748 H         1 UNK         0.0600 
    164 H164        0.2562  -16.0175  -41.9401 H         1 UNK         0.3000 
    165 H165       -0.1339  -15.5639  -45.1255 H         1 UNK         0.0600 
    166 H166       -2.9644  -15.0490  -44.0759 H         1 UNK         0.0600 
    167 H167       -2.2148  -14.2108  -45.4333 H         1 UNK         0.0600 
    168 H168       -2.5364  -15.9314  -45.5265 H         1 UNK         0.0600 
    169 H169        0.6654  -14.0250  -43.7866 H         1 UNK         0.3000 
    170 H170        0.0164  -11.7106  -42.4391 H         1 UNK         0.0600 
    171 H171       -1.3265  -11.7817  -40.3992 H         1 UNK         0.0600 
    172 H172       -0.3384  -13.0647  -39.7189 H         1 UNK         0.0600 
    173 H173        0.3452  -11.4587  -39.9704 H         1 UNK         0.0600 
    174 H174        2.1075  -12.4374  -42.4861 H         1 UNK         0.3000 
    175 H175        4.1252  -13.5375  -41.0632 H         1 UNK         0.0600 
    176 H176        3.5107  -16.5274  -41.3689 H         1 UNK         0.0600 
    177 H177        5.1128  -15.8322  -41.1353 H         1 UNK         0.0600 
    178 H178        3.9031  -15.6977  -39.8698 H         1 UNK         0.0600 
    179 H179        4.6185  -13.5982  -43.2310 H         1 UNK         0.3000 
    180 H180        5.1085  -14.9879  -45.2687 H         1 UNK         0.0600 
    181 H181        2.4129  -15.6035  -46.5893 H         1 UNK         0.0600 
    182 H182        3.6046  -16.8078  -46.1175 H         1 UNK         0.0600 
    183 H183        3.9877  -15.6502  -47.3782 H         1 UNK         0.0600 
    184 H184        3.1322  -13.3192  -46.5603 H         1 UNK         0.3000 
    185 H185        3.8983  -10.2677  -45.1163 H         1 UNK         0.0600 
    186 H186        4.8473  -11.0957  -47.9133 H         1 UNK         0.0600 
    187 H187        4.5151   -9.4484  -47.3755 H         1 UNK         0.0600 
    188 H188        5.8519  -10.3474  -46.6778 H         1 UNK         0.0600 
    189 H189        2.4164  -10.8203  -47.4506 H         1 UNK         0.3000 
    190 H190       -2.5244  -20.8743  -45.5657 H         1 UNK         0.3000 
    191 H191       -4.1821  -21.9150  -43.2922 H         1 UNK         0.0600 
    192 H192       -2.3316  -21.0219  -41.8757 H         1 UNK         0.0600 
    193 H193       -3.0974  -19.7456  -42.8141 H         1 UNK         0.0600 
    194 H194       -1.5361  -20.3871  -43.3123 H         1 UNK         0.0600 
    195 H195       -1.0042  -22.1948  -44.9726 H         1 UNK         0.3000 
    196 H196       -0.0953  -24.3798  -43.4140 H         1 UNK         0.0600 
    197 H197        0.8872  -23.3284  -46.1201 H         1 UNK         0.0600 
    198 H198        1.3892  -22.7311  -44.5398 H         1 UNK         0.0600 
    199 H199        1.7957  -24.3689  -45.0303 H         1 UNK         0.0600 
    200 H200       -1.9209  -24.3221  -46.4517 H         1 UNK         0.3000 
    201 H201       -1.8455  -27.3129  -46.5982 H         1 UNK         0.0600 
    202 H202       -1.8980  -25.3079  -48.9171 H         1 UNK         0.0600 
    203 H203       -1.8875  -27.0615  -49.0561 H         1 UNK         0.0600 
    204 H204       -0.4811  -26.2283  -48.4180 H         1 UNK         0.0600 
    205 H205       -3.7398  -25.0324  -45.4869 H         1 UNK         0.3000 
    206 H206       -5.8968  -24.5201  -45.3125 H         1 UNK         0.0600 
    207 H207       -5.9564  -26.8832  -44.4846 H         1 UNK         0.0600 
    208 H208       -7.4858  -26.4089  -45.2033 H         1 UNK         0.0600 
    209 H209       -6.3818  -27.4422  -46.1018 H         1 UNK         0.0600 
    210 H210       -4.7372  -23.8883  -47.8193 H         1 UNK         0.3000 
    211 H211       -5.1933  -22.8844  -49.6963 H         1 UNK         0.0600 
    212 H212       -7.4106  -22.1436  -50.3515 H         1 UNK         0.0600 
    213 H213       -7.3025  -22.0040  -48.6064 H         1 UNK         0.0600 
    214 H214       -8.1941  -23.3391  -49.3326 H         1 UNK         0.0600 
    215 H215       -5.2214  -26.0755  -49.4035 H         1 UNK         0.3000 
    216 H216       -6.3340  -26.9402  -51.9105 H         1 UNK         0.0600 
    217 H217       -4.1489  -28.2494  -50.2093 H         1 UNK         0.0600 
    218 H218       -5.1222  -29.0291  -51.4473 H         1 UNK         0.0600 
    219 H219       -5.8826  -28.4655  -49.9662 H         1 UNK         0.0600 
    220 H220       -3.2487  -25.5400  -50.9826 H         1 UNK         0.3000 
    221 H221       -2.0338  -26.0019  -53.6578 H         1 UNK         0.0600 
    222 H222       -0.7110  -26.6029  -51.6245 H         1 UNK         0.0600 
    223 H223       -0.7979  -24.9345  -51.0667 H         1 UNK         0.0600 
    224 H224        0.0583  -25.3260  -52.5495 H         1 UNK         0.0600 
    225 H225       -4.1828  -23.8049  -52.6112 H         1 UNK         0.3000 
    226 H226       -2.9215  -21.2781  -52.9487 H         1 UNK         0.0600 
    227 H227       -5.8737  -22.0478  -53.1883 H         1 UNK         0.0600 
    228 H228       -5.0408  -21.5539  -51.7111 H         1 UNK         0.0600 
    229 H229       -5.2541  -20.4101  -53.0213 H         1 UNK         0.0600 
    230 H230       -3.7707  -23.5739  -55.3378 H         1 UNK         0.3000 
    231 H231       -4.1399  -21.9116  -57.6304 H         1 UNK         0.0600 
    232 H232       -2.9889  -24.7428  -57.3539 H         1 UNK         0.0600 
    233 H233       -3.5185  -24.0017  -58.8594 H         1 UNK         0.0600 
    234 H234       -4.6889  -24.3359  -57.5939 H         1 UNK         0.0600 
    235 H235       -1.3092  -22.4989  -55.6842 H         1 UNK         0.3000 
    236 H236        0.7051  -21.9331  -57.6609 H         1 UNK         0.0600 
    237 H237        1.1578  -23.1823  -55.5471 H         1 UNK         0.0600 
    238 H238        2.1762  -21.7556  -55.6674 H         1 UNK         0.0600 
    239 H239        0.7758  -21.7433  -54.6026 H         1 UNK         0.0600 
    240 H240       -1.5571  -19.8661  -55.9952 H         1 UNK         0.3000 
    241 H241       -0.0330  -17.4494  -55.9078 H         1 UNK         0.0600 
    242 H242       -0.3060  -15.9083  -59.0947 H         1 UNK         0.3800 
    243 H243        0.2915  -15.7910  -57.4645 H         1 UNK         0.3800 
    244 H244       -3.0596  -17.9093  -56.0069 H         1 UNK         0.0800 
    245 H245       -2.3228  -16.3458  -55.8001 H         1 UNK         0.0800 
    246 H246       -3.6790  -15.9049  -53.7189 H         1 UNK         0.0800 
    247 H247       -2.0535  -15.3020  -53.4969 H         1 UNK         0.0800 
@<TRIPOS>BOND
     1    1    2 1    
     2    1  127 1    
     3    1  128 1    
     4    1  129 1    
     5    2    3 2    
     6    2    4 am   BACKBONE|DICT|INTERRES
     7    4    5 1    
     8    4  130 1    
     9    5    6 1    
    10    5   65 1    
    11    5  131 1    
    12    6    7 1    
    13    6  132 1    
    14    6  133 1    
    15    7    8 1    
    16    8    9 1    
    17    8  134 1    
    18    8  135 1    
    19    9   10 ar   
    20    9   14 ar   
    21   10   11 ar   
    22   10  136 1    
    23   11   12 ar   
    24   11  126 1    
    25   12   13 ar   
    26   12  137 1    
    27   13   14 ar   
    28   13   15 1    
    29   14  138 1    
    30   15   16 1    
    31   15  139 1    
    32   15  140 1    
    33   16   17 1    
    34   17   18 1    
    35   17  141 1    
    36   17  142 1    
    37   18   19 1    
    38   18   67 1    
    39   18  143 1    
    40   19   20 am   BACKBONE|DICT|INTERRES
    41   19  144 1    
    42   20   21 2    
    43   20   22 1    
    44   22   23 1    
    45   22   24 1    
    46   22  145 1    
    47   23  146 1    
    48   23  147 1    
    49   23  148 1    
    50   24   25 am   BACKBONE|DICT|INTERRES
    51   24  149 1    
    52   25   26 2    
    53   25   27 1    
    54   27   28 1    
    55   27   29 1    
    56   27  150 1    
    57   28  151 1    
    58   28  152 1    
    59   28  153 1    
    60   29   30 am   BACKBONE|DICT|INTERRES
    61   29  154 1    
    62   30   31 2    
    63   30   32 1    
    64   32   33 1    
    65   32   34 1    
    66   32  155 1    
    67   33  156 1    
    68   33  157 1    
    69   33  158 1    
    70   34   35 am   BACKBONE|DICT|INTERRES
    71   34  159 1    
    72   35   36 2    
    73   35   37 1    
    74   37   38 1    
    75   37   39 1    
    76   37  160 1    
    77   38  161 1    
    78   38  162 1    
    79   38  163 1    
    80   39   40 am   BACKBONE|DICT|INTERRES
    81   39  164 1    
    82   40   41 2    
    83   40   42 1    
    84   42   43 1    
    85   42   44 1    
    86   42  165 1    
    87   43  166 1    
    88   43  167 1    
    89   43  168 1    
    90   44   45 am   BACKBONE|DICT|INTERRES
    91   44  169 1    
    92   45   46 2    
    93   45   47 1    
    94   47   48 1    
    95   47   49 1    
    96   47  170 1    
    97   48  171 1    
    98   48  172 1    
    99   48  173 1    
   100   49   50 am   BACKBONE|DICT|INTERRES
   101   49  174 1    
   102   50   51 2    
   103   50   52 1    
   104   52   53 1    
   105   52   54 1    
   106   52  175 1    
   107   53  176 1    
   108   53  177 1    
   109   53  178 1    
   110   54   55 am   BACKBONE|DICT|INTERRES
   111   54  179 1    
   112   55   56 2    
   113   55   57 1    
   114   57   58 1    
   115   57   59 1    
   116   57  180 1    
   117   58  181 1    
   118   58  182 1    
   119   58  183 1    
   120   59   60 am   BACKBONE|DICT|INTERRES
   121   59  184 1    
   122   60   61 2    
   123   60   62 1    
   124   62   63 1    
   125   62   64 1    
   126   62  185 1    
   127   63  186 1    
   128   63  187 1    
   129   63  188 1    
   130   64   65 am   BACKBONE|DICT|INTERRES
   131   64  189 1    
   132   65   66 2    
   133   67   68 2    
   134   67   69 am   BACKBONE|DICT|INTERRES
   135   69   70 1    
   136   69  190 1    
   137   70   71 1    
   138   70   72 1    
   139   70  191 1    
   140   71  192 1    
   141   71  193 1    
   142   71  194 1    
   143   72   73 2    
   144   72   74 am   BACKBONE|DICT|INTERRES
   145   74   75 1    
   146   74  195 1    
   147   75   76 1    
   148   75   77 1    
   149   75  196 1    
   150   76  197 1    
   151   76  198 1    
   152   76  199 1    
   153   77   78 2    
   154   77   79 am   BACKBONE|DICT|INTERRES
   155   79   80 1    
   156   79  200 1    
   157   80   81 1    
   158   80   82 1    
   159   80  201 1    
   160   81  202 1    
   161   81  203 1    
   162   81  204 1    
   163   82   83 2    
   164   82   84 am   BACKBONE|DICT|INTERRES
   165   84   85 1    
   166   84  205 1    
   167   85   86 1    
   168   85   87 1    
   169   85  206 1    
   170   86  207 1    
   171   86  208 1    
   172   86  209 1    
   173   87   88 2    
   174   87   89 am   BACKBONE|DICT|INTERRES
   175   89   90 1    
   176   89  210 1    
   177   90   91 1    
   178   90   92 1    
   179   90  211 1    
   180   91  212 1    
   181   91  213 1    
   182   91  214 1    
   183   92   93 2    
   184   92   94 am   BACKBONE|DICT|INTERRES
   185   94   95 1    
   186   94  215 1    
   187   95   96 1    
   188   95   97 1    
   189   95  216 1    
   190   96  217 1    
   191   96  218 1    
   192   96  219 1    
   193   97   98 2    
   194   97   99 am   BACKBONE|DICT|INTERRES
   195   99  100 1    
   196   99  220 1    
   197  100  101 1    
   198  100  102 1    
   199  100  221 1    
   200  101  222 1    
   201  101  223 1    
   202  101  224 1    
   203  102  103 2    
   204  102  104 am   BACKBONE|DICT|INTERRES
   205  104  105 1    
   206  104  225 1    
   207  105  106 1    
   208  105  107 1    
   209  105  226 1    
   210  106  227 1    
   211  106  228 1    
   212  106  229 1    
   213  107  108 2    
   214  107  109 am   BACKBONE|DICT|INTERRES
   215  109  110 1    
   216  109  230 1    
   217  110  111 1    
   218  110  112 1    
   219  110  231 1    
   220  111  232 1    
   221  111  233 1    
   222  111  234 1    
   223  112  113 2    
   224  112  114 am   BACKBONE|DICT|INTERRES
   225  114  115 1    
   226  114  235 1    
   227  115  116 1    
   228  115  117 1    
   229  115  236 1    
   230  116  237 1    
   231  116  238 1    
   232  116  239 1    
   233  117  118 2    
   234  117  119 am   BACKBONE|DICT|INTERRES
   235  119  120 1    
   236  119  240 1    
   237  120  121 1    
   238  120  124 1    
   239  120  241 1    
   240  121  122 am   BACKBONE|DICT|INTERRES
   241  121  123 2    
   242  122  242 1    
   243  122  243 1    
   244  124  125 1    
   245  124  244 1    
   246  124  245 1    
   247  125  126 1    
   248  126  246 1    
   249  126  247 1    
@<TRIPOS>SUBSTRUCTURE
     1 UNK         1 GROUP             0       ****    0 ROOT    
