@<TRIPOS>MOLECULE
3R540
247   249    1
SMALL
USER_CHARGES


@<TRIPOS>ATOM
      1 CA          3.1778  -10.1071  -48.1043 C.3       0 UNK        -0.1800 
      2 C           3.6087  -11.5273  -48.4418 C.2       0 UNK         0.5000 
      3 O           4.7583  -11.7444  -48.8252 O.2       0 UNK        -0.5000 
      4 N           2.6915  -12.4929  -48.3013 N.am      1 UNK        -0.5000 
      5 CA          2.9197  -13.9204  -48.5706 C.3       1 UNK         0.1400 
      6 C6          1.5937  -14.7135  -48.6445 C.3       23 UNK        -0.0398 
      7 S7          0.5178  -14.1245  -49.9920 S.3       23 UNK        -0.2404 
      8 C8          0.8955  -15.3383  -51.2950 C.3       23 UNK        -0.0205 
      9 C9          0.2802  -16.6996  -51.0060 C.ar      23 UNK        -0.0193 
     10 C10        -1.1060  -16.8582  -51.0606 C.ar      23 UNK        -0.1150 
     11 C11        -1.6922  -18.1078  -50.8450 C.ar      23 UNK        -0.0193 
     12 C12        -0.8739  -19.2043  -50.5523 C.ar      23 UNK        -0.1150 
     13 C13         0.5164  -19.0588  -50.4802 C.ar      23 UNK        -0.0193 
     14 C14         1.0874  -17.8035  -50.7139 C.ar      23 UNK        -0.1150 
     15 C15         1.4005  -20.2709  -50.2082 C.3       23 UNK        -0.0205 
     16 S16         2.4341  -20.1242  -48.7078 S.3       23 UNK        -0.2404 
     17 C17         1.2234  -19.9054  -47.3596 C.3       23 UNK        -0.0398 
     18 CA          0.6552  -21.2408  -46.8051 C.3       11 UNK         0.1400 
     19 N           0.3493  -21.1782  -45.3702 N.am      11 UNK        -0.5000 
     20 C          -0.0982  -22.2039  -44.6274 C.2       10 UNK         0.5000 
     21 O          -0.2084  -23.3552  -45.0465 O.2       10 UNK        -0.5000 
     22 CA         -0.5667  -21.8850  -43.1947 C.3       10 UNK         0.1400 
     23 CB          0.6075  -21.9254  -42.2063 C.3       10 UNK        -0.1800 
     24 N          -1.2637  -20.6000  -43.1044 N.am      10 UNK        -0.5000 
     25 C          -2.4277  -20.3315  -43.7150 C.2       9 UNK         0.5000 
     26 O          -3.0691  -21.1678  -44.3496 O.2       9 UNK        -0.5000 
     27 CA         -2.9344  -18.8785  -43.6606 C.3       9 UNK         0.1400 
     28 CB         -3.7067  -18.6133  -42.3604 C.3       9 UNK        -0.1800 
     29 N          -1.8539  -17.9020  -43.8075 N.am      9 UNK        -0.5000 
     30 C          -1.1020  -17.7621  -44.9089 C.2       8 UNK         0.5000 
     31 O          -1.2945  -18.3969  -45.9463 O.2       8 UNK        -0.5000 
     32 CA          0.1057  -16.8078  -44.8110 C.3       8 UNK         0.1400 
     33 CB         -0.3126  -15.3482  -45.0369 C.3       8 UNK        -0.1800 
     34 N           0.8021  -16.9317  -43.5279 N.am      8 UNK        -0.5000 
     35 C           1.4714  -18.0278  -43.1425 C.2       7 UNK         0.5000 
     36 O           1.6391  -19.0060  -43.8695 O.2       7 UNK        -0.5000 
     37 CA          1.9843  -18.0684  -41.6908 C.3       7 UNK         0.1400 
     38 CB          3.3827  -17.4504  -41.5572 C.3       7 UNK        -0.1800 
     39 N           1.0662  -17.4048  -40.7676 N.am      7 UNK        -0.5000 
     40 C          -0.1028  -17.9248  -40.3701 C.2       6 UNK         0.5000 
     41 O          -0.5051  -19.0353  -40.7141 O.2       6 UNK        -0.5000 
     42 CA         -0.9858  -17.0385  -39.4721 C.3       6 UNK         0.1400 
     43 CB         -0.5878  -17.1980  -37.9975 C.3       6 UNK        -0.1800 
     44 N          -0.9202  -15.6234  -39.8410 N.am      6 UNK        -0.5000 
     45 C          -1.3731  -15.1199  -40.9980 C.2       5 UNK         0.5000 
     46 O          -1.9414  -15.7919  -41.8568 O.2       5 UNK        -0.5000 
     47 CA         -1.0943  -13.6289  -41.2634 C.3       5 UNK         0.1400 
     48 CB         -2.2355  -12.7607  -40.7137 C.3       5 UNK        -0.1800 
     49 N           0.1799  -13.1727  -40.7004 N.am      5 UNK        -0.5000 
     50 C           1.3829  -13.6259  -41.0750 C.2       4 UNK         0.5000 
     51 O           1.5539  -14.4899  -41.9399 O.2       4 UNK        -0.5000 
     52 CA          2.5858  -13.0640  -40.3097 C.3       4 UNK         0.1400 
     53 CB          2.8040  -13.8403  -38.9994 C.3       4 UNK        -0.1800 
     54 N           3.7782  -13.1731  -41.1414 N.am      4 UNK        -0.5000 
     55 C           4.8083  -12.3192  -41.1311 C.2       3 UNK         0.5000 
     56 O           4.8716  -11.3428  -40.3823 O.2       3 UNK        -0.5000 
     57 CA          5.9764  -12.5927  -42.1026 C.3       3 UNK         0.1400 
     58 CB          7.2090  -13.0883  -41.3292 C.3       3 UNK        -0.1800 
     59 N           5.6739  -13.5585  -43.1631 N.am      3 UNK        -0.5000 
     60 C           4.8607  -13.3315  -44.2013 C.2       2 UNK         0.5000 
     61 O           4.2421  -12.2769  -44.3727 O.2       2 UNK        -0.5000 
     62 CA          4.7116  -14.4850  -45.2046 C.3       2 UNK         0.1400 
     63 CB          4.0557  -15.7160  -44.5553 C.3       2 UNK        -0.1800 
     64 N           3.9004  -14.0285  -46.3231 N.am      2 UNK        -0.5000 
     65 C           3.8593  -14.5791  -47.5401 C.2       1 UNK         0.5000 
     66 O           4.5159  -15.5691  -47.8654 O.2       1 UNK        -0.5000 
     67 C          -0.5791  -21.6870  -47.6107 C.2       11 UNK         0.5000 
     68 O          -0.4966  -22.6550  -48.3658 O.2       11 UNK        -0.5000 
     69 N          -1.7115  -21.0010  -47.3966 N.am      12 UNK        -0.5000 
     70 CA         -2.9960  -21.3113  -48.0222 C.3       12 UNK         0.1400 
     71 CB         -4.0264  -20.2326  -47.6603 C.3       12 UNK        -0.1800 
     72 C          -3.5112  -22.7199  -47.6788 C.2       12 UNK         0.5000 
     73 O          -3.9870  -23.4153  -48.5742 O.2       12 UNK        -0.5000 
     74 N          -3.3717  -23.1380  -46.4150 N.am      13 UNK        -0.5000 
     75 CA         -3.7214  -24.4815  -45.9536 C.3       13 UNK         0.1400 
     76 CB         -3.6178  -24.5459  -44.4223 C.3       13 UNK        -0.1800 
     77 C          -2.8649  -25.5811  -46.6108 C.2       13 UNK         0.5000 
     78 O          -3.4142  -26.5843  -47.0675 O.2       13 UNK        -0.5000 
     79 N          -1.5432  -25.3667  -46.6640 N.am      14 UNK        -0.5000 
     80 CA         -0.5745  -26.3003  -47.2387 C.3       14 UNK         0.1400 
     81 CB          0.8450  -25.8784  -46.8290 C.3       14 UNK        -0.1800 
     82 C          -0.6783  -26.4188  -48.7694 C.2       14 UNK         0.5000 
     83 O          -0.6116  -27.5292  -49.2977 O.2       14 UNK        -0.5000 
     84 N          -0.8351  -25.2783  -49.4531 N.am      15 UNK        -0.5000 
     85 CA         -0.8488  -25.1813  -50.9142 C.3       15 UNK         0.1400 
     86 CB         -0.2480  -23.8257  -51.3215 C.3       15 UNK        -0.1800 
     87 C          -2.2456  -25.3750  -51.5373 C.2       15 UNK         0.5000 
     88 O          -2.3761  -25.2219  -52.7527 O.2       15 UNK        -0.5000 
     89 N          -3.2659  -25.6673  -50.7156 N.am      16 UNK        -0.5000 
     90 CA         -4.6770  -25.8435  -51.0868 C.3       16 UNK         0.1400 
     91 CB         -4.8639  -27.1181  -51.9357 C.3       16 UNK        -0.1800 
     92 C          -5.2488  -24.5806  -51.7624 C.2       16 UNK         0.5000 
     93 O          -5.7453  -24.6347  -52.8898 O.2       16 UNK        -0.5000 
     94 N          -5.0898  -23.4466  -51.0669 N.am      17 UNK        -0.5000 
     95 CA         -5.3955  -22.0818  -51.4992 C.3       17 UNK         0.1400 
     96 CB         -6.9207  -21.8798  -51.6205 C.3       17 UNK        -0.1800 
     97 C          -4.6116  -21.6846  -52.7662 C.2       17 UNK         0.5000 
     98 O          -5.1665  -21.0327  -53.6476 O.2       17 UNK        -0.5000 
     99 N          -3.3439  -22.1209  -52.8385 N.am      18 UNK        -0.5000 
    100 CA        -2.4270  -21.9949  -53.9786 C.3       18 UNK         0.1400 
    101 CB        -2.0023  -20.5270  -54.1804 C.3       18 UNK        -0.1800 
    102 C         -3.0068  -22.6415  -55.2529 C.2       18 UNK         0.5000 
    103 O         -3.0827  -21.9966  -56.2987 O.2       18 UNK        -0.5000 
    104 N         -3.4589  -23.8967  -55.1153 N.am      19 UNK        -0.5000 
    105 CA        -4.2150  -24.6724  -56.1055 C.3       19 UNK         0.1400 
    106 CB        -3.3139  -25.0692  -57.2930 C.3       19 UNK        -0.1800 
    107 C         -5.5118  -23.9502  -56.5358 C.2       19 UNK         0.5000 
    108 O         -5.7865  -23.8109  -57.7288 O.2       19 UNK        -0.5000 
    109 N         -6.2597  -23.4747  -55.5308 N.am      20 UNK        -0.5000 
    110 CA        -7.5081  -22.7071  -55.6006 C.3       20 UNK         0.1400 
    111 CB        -8.6131  -23.5102  -56.3173 C.3       20 UNK        -0.1800 
    112 C         -7.3857  -21.2703  -56.1574 C.2       20 UNK         0.5000 
    113 O         -8.4070  -20.5856  -56.2449 O.2       20 UNK        -0.5000 
    114 N         -6.1726  -20.8008  -56.4872 N.am      21 UNK        -0.5000 
    115 CA        -5.9173  -19.4518  -57.0056 C.3       21 UNK         0.1400 
    116 CB        -4.4642  -19.3467  -57.4887 C.3       21 UNK        -0.1800 
    117 C         -6.2321  -18.3254  -56.0004 C.2       21 UNK         0.5000 
    118 O         -6.6242  -17.2363  -56.4224 O.2       21 UNK        -0.5000 
    119 N         -6.0852  -18.6083  -54.7003 N.am      22 UNK        -0.5000 
    120 CA        -6.4736  -17.7173  -53.5946 C.3       22 UNK         0.1400 
    121 C         -8.0004  -17.7367  -53.2788 C.2       22 UNK         0.5000 
    122 N         -8.8212  -18.5446  -53.9420 N.am      22 UNK        -0.7600 
    123 O         -8.4565  -16.9916  -52.4159 O.2       22 UNK        -0.5000 
    124 C124       -5.6381  -17.9724  -52.3102 C.3       23 UNK        -0.0398 
    125 S125       -3.8423  -17.8036  -52.5744 S.3       23 UNK        -0.2404 
    126 C126       -3.2059  -18.2592  -50.9285 C.3       23 UNK        -0.0205 
    127 H127        2.1307  -10.0614  -47.8038 H         1 UNK         0.0600 
    128 H128        3.3116   -9.4582  -48.9698 H         1 UNK         0.0600 
    129 H129        3.7834   -9.7167  -47.2863 H         1 UNK         0.0600 
    130 H130        1.7559  -12.2481  -48.0095 H         1 UNK         0.3000 
    131 H131        3.4144  -13.9999  -49.5412 H         1 UNK         0.0600 
    132 H132        1.7837  -15.7799  -48.7775 H         1 UNK         0.0800 
    133 H133        1.0425  -14.6241  -47.7073 H         1 UNK         0.0800 
    134 H134        0.5036  -14.9680  -52.2434 H         1 UNK         0.0800 
    135 H135        1.9766  -15.4146  -51.4212 H         1 UNK         0.0800 
    136 H136       -1.7317  -16.0065  -51.2884 H         1 UNK         0.1150 
    137 H137       -1.3158  -20.1769  -50.3968 H         1 UNK         0.1150 
    138 H138        2.1621  -17.6919  -50.6766 H         1 UNK         0.1150 
    139 H139        0.8045  -21.1806  -50.1463 H         1 UNK         0.0800 
    140 H140        2.0611  -20.4114  -51.0646 H         1 UNK         0.0800 
    141 H141        0.4418  -19.2145  -47.6783 H         1 UNK         0.0800 
    142 H142        1.7593  -19.3816  -46.5674 H         1 UNK         0.0800 
    143 H143        1.4171  -22.0153  -46.9154 H         1 UNK         0.0600 
    144 H144        0.4728  -20.2787  -44.9180 H         1 UNK         0.3000 
    145 H145       -1.2748  -22.6612  -42.8986 H         1 UNK         0.0600 
    146 H146        0.2753  -21.7215  -41.1883 H         1 UNK         0.0600 
    147 H147        1.0766  -22.9100  -42.2042 H         1 UNK         0.0600 
    148 H148        1.3785  -21.2000  -42.4605 H         1 UNK         0.0600 
    149 H149       -0.8326  -19.8825  -42.5318 H         1 UNK         0.3000 
    150 H150       -3.6233  -18.7380  -44.4960 H         1 UNK         0.0600 
    151 H151       -4.1210  -17.6051  -42.3470 H         1 UNK         0.0600 
    152 H152       -4.5396  -19.3092  -42.2534 H         1 UNK         0.0600 
    153 H153       -3.0714  -18.7250  -41.4822 H         1 UNK         0.0600 
    154 H154       -1.6840  -17.2873  -43.0163 H         1 UNK         0.3000 
    155 H155        0.8083  -17.0796  -45.6018 H         1 UNK         0.0600 
    156 H156       -1.0274  -15.0119  -44.2866 H         1 UNK         0.0600 
    157 H157       -0.7829  -15.2260  -46.0133 H         1 UNK         0.0600 
    158 H158        0.5494  -14.6813  -45.0020 H         1 UNK         0.0600 
    159 H159        0.7552  -16.1410  -42.8951 H         1 UNK         0.3000 
    160 H160        2.0622  -19.1183  -41.4013 H         1 UNK         0.0600 
    161 H161        3.3777  -16.3819  -41.7664 H         1 UNK         0.0600 
    162 H162        4.0843  -17.9240  -42.2447 H         1 UNK         0.0600 
    163 H163        3.7756  -17.5876  -40.5497 H         1 UNK         0.0600 
    164 H164        1.3023  -16.4643  -40.4886 H         1 UNK         0.3000 
    165 H165       -2.0192  -17.3725  -39.5864 H         1 UNK         0.0600 
    166 H166       -1.2544  -16.6327  -37.3460 H         1 UNK         0.0600 
    167 H167       -0.6436  -18.2430  -37.6895 H         1 UNK         0.0600 
    168 H168        0.4315  -16.8555  -37.8145 H         1 UNK         0.0600 
    169 H169       -0.4714  -14.9997  -39.1869 H         1 UNK         0.3000 
    170 H170       -1.0502  -13.4889  -42.3453 H         1 UNK         0.0600 
    171 H171       -3.1949  -13.0660  -41.1338 H         1 UNK         0.0600 
    172 H172       -2.3134  -12.8359  -39.6284 H         1 UNK         0.0600 
    173 H173       -2.0905  -11.7107  -40.9687 H         1 UNK         0.0600 
    174 H174        0.1239  -12.4703  -39.9767 H         1 UNK         0.3000 
    175 H175        2.3849  -12.0142  -40.0850 H         1 UNK         0.0600 
    176 H176        3.0080  -14.8955  -39.1865 H         1 UNK         0.0600 
    177 H177        3.6447  -13.4337  -38.4369 H         1 UNK         0.0600 
    178 H178        1.9264  -13.7826  -38.3546 H         1 UNK         0.0600 
    179 H179        3.7525  -13.9157  -41.8267 H         1 UNK         0.3000 
    180 H180        6.2312  -11.6412  -42.5741 H         1 UNK         0.0600 
    181 H181        7.0198  -14.0463  -40.8432 H         1 UNK         0.0600 
    182 H182        7.4970  -12.3782  -40.5528 H         1 UNK         0.0600 
    183 H183        8.0680  -13.2090  -41.9895 H         1 UNK         0.0600 
    184 H184        6.1407  -14.4514  -43.0946 H         1 UNK         0.3000 
    185 H185        5.7068  -14.7467  -45.5699 H         1 UNK         0.0600 
    186 H186        4.6992  -16.1346  -43.7827 H         1 UNK         0.0600 
    187 H187        3.1011  -15.4575  -44.0973 H         1 UNK         0.0600 
    188 H188        3.8733  -16.5097  -45.2799 H         1 UNK         0.0600 
    189 H189        3.3924  -13.1711  -46.1428 H         1 UNK         0.3000 
    190 H190       -1.6875  -20.2067  -46.7642 H         1 UNK         0.3000 
    191 H191       -2.8486  -21.2826  -49.1025 H         1 UNK         0.0600 
    192 H192       -3.6795  -19.2420  -47.9549 H         1 UNK         0.0600 
    193 H193       -4.9745  -20.4119  -48.1687 H         1 UNK         0.0600 
    194 H194       -4.2278  -20.2095  -46.5895 H         1 UNK         0.0600 
    195 H195       -3.0284  -22.4836  -45.7165 H         1 UNK         0.3000 
    196 H196       -4.7625  -24.6644  -46.2277 H         1 UNK         0.0600 
    197 H197       -3.9188  -25.5265  -44.0520 H         1 UNK         0.0600 
    198 H198       -4.2660  -23.8064  -43.9516 H         1 UNK         0.0600 
    199 H199       -2.5995  -24.3643  -44.0790 H         1 UNK         0.0600 
    200 H200       -1.1625  -24.5244  -46.2400 H         1 UNK         0.3000 
    201 H201       -0.7670  -27.2885  -46.8157 H         1 UNK         0.0600 
    202 H202        0.9591  -25.8829  -45.7449 H         1 UNK         0.0600 
    203 H203        1.0846  -24.8755  -47.1852 H         1 UNK         0.0600 
    204 H204        1.5911  -26.5611  -47.2377 H         1 UNK         0.0600 
    205 H205       -0.8496  -24.3960  -48.9446 H         1 UNK         0.3000 
    206 H206       -0.2064  -25.9617  -51.3273 H         1 UNK         0.0600 
    207 H207        0.7174  -23.6630  -50.8418 H         1 UNK         0.0600 
    208 H208       -0.0785  -23.7817  -52.3972 H         1 UNK         0.0600 
    209 H209       -0.9003  -22.9950  -51.0498 H         1 UNK         0.0600 
    210 H210       -3.0628  -25.7242  -49.7267 H         1 UNK         0.3000 
    211 H211       -5.2305  -25.9786  -50.1564 H         1 UNK         0.0600 
    212 H212       -4.3608  -27.0447  -52.9004 H         1 UNK         0.0600 
    213 H213       -5.9206  -27.3017  -52.1331 H         1 UNK         0.0600 
    214 H214       -4.4724  -27.9948  -51.4198 H         1 UNK         0.0600 
    215 H215       -4.6626  -23.5199  -50.1417 H         1 UNK         0.3000 
    216 H216       -5.0401  -21.4186  -50.7099 H         1 UNK         0.0600 
    217 H217       -7.1730  -20.8684  -51.9385 H         1 UNK         0.0600 
    218 H218       -7.4102  -22.0458  -50.6610 H         1 UNK         0.0600 
    219 H219       -7.3657  -22.5666  -52.3380 H         1 UNK         0.0600 
    220 H220       -3.0137  -22.6992  -52.0812 H         1 UNK         0.3000 
    221 H221       -1.5313  -22.5629  -53.7305 H         1 UNK         0.0600 
    222 H222       -2.8449  -19.8988  -54.4679 H         1 UNK         0.0600 
    223 H223       -1.5711  -20.1117  -53.2702 H         1 UNK         0.0600 
    224 H224       -1.2497  -20.4419  -54.9648 H         1 UNK         0.0600 
    225 H225       -3.3177  -24.3534  -54.2176 H         1 UNK         0.3000 
    226 H226       -4.5255  -25.5900  -55.6036 H         1 UNK         0.0600 
    227 H227       -2.4220  -25.5944  -56.9512 H         1 UNK         0.0600 
    228 H228       -3.8413  -25.7359  -57.9761 H         1 UNK         0.0600 
    229 H229       -2.9919  -24.2005  -57.8680 H         1 UNK         0.0600 
    230 H230       -5.9412  -23.6780  -54.5866 H         1 UNK         0.3000 
    231 H231       -7.8265  -22.5849  -54.5664 H         1 UNK         0.0600 
    232 H232       -8.4127  -23.6168  -57.3835 H         1 UNK         0.0600 
    233 H233       -9.5813  -23.0182  -56.2181 H         1 UNK         0.0600 
    234 H234       -8.7145  -24.5085  -55.8916 H         1 UNK         0.0600 
    235 H235       -5.3643  -21.3916  -56.3387 H         1 UNK         0.3000 
    236 H236       -6.5680  -19.3079  -57.8705 H         1 UNK         0.0600 
    237 H237       -4.2290  -20.1263  -58.2135 H         1 UNK         0.0600 
    238 H238       -4.2829  -18.3859  -57.9717 H         1 UNK         0.0600 
    239 H239       -3.7605  -19.4326  -56.6607 H         1 UNK         0.0600 
    240 H240       -5.7446  -19.5301  -54.4291 H         1 UNK         0.3000 
    241 H241       -6.2595  -16.6940  -53.9082 H         1 UNK         0.0600 
    242 H242       -9.8047  -18.5325  -53.7231 H         1 UNK         0.3800 
    243 H243       -8.4838  -19.1468  -54.6824 H         1 UNK         0.3800 
    244 H244       -5.9211  -17.2670  -51.5269 H         1 UNK         0.0800 
    245 H245       -5.8411  -18.9658  -51.9129 H         1 UNK         0.0800 
    246 H246       -3.5035  -19.2841  -50.7047 H         1 UNK         0.0800 
    247 H247       -3.6672  -17.6242  -50.1709 H         1 UNK         0.0800 
@<TRIPOS>BOND
     1    1    2 1    
     2    1  127 1    
     3    1  128 1    
     4    1  129 1    
     5    2    3 2    
     6    2    4 am   BACKBONE|DICT|INTERRES
     7    4    5 1    
     8    4  130 1    
     9    5    6 1    
    10    5   65 1    
    11    5  131 1    
    12    6    7 1    
    13    6  132 1    
    14    6  133 1    
    15    7    8 1    
    16    8    9 1    
    17    8  134 1    
    18    8  135 1    
    19    9   10 ar   
    20    9   14 ar   
    21   10   11 ar   
    22   10  136 1    
    23   11   12 ar   
    24   11  126 1    
    25   12   13 ar   
    26   12  137 1    
    27   13   14 ar   
    28   13   15 1    
    29   14  138 1    
    30   15   16 1    
    31   15  139 1    
    32   15  140 1    
    33   16   17 1    
    34   17   18 1    
    35   17  141 1    
    36   17  142 1    
    37   18   19 1    
    38   18   67 1    
    39   18  143 1    
    40   19   20 am   BACKBONE|DICT|INTERRES
    41   19  144 1    
    42   20   21 2    
    43   20   22 1    
    44   22   23 1    
    45   22   24 1    
    46   22  145 1    
    47   23  146 1    
    48   23  147 1    
    49   23  148 1    
    50   24   25 am   BACKBONE|DICT|INTERRES
    51   24  149 1    
    52   25   26 2    
    53   25   27 1    
    54   27   28 1    
    55   27   29 1    
    56   27  150 1    
    57   28  151 1    
    58   28  152 1    
    59   28  153 1    
    60   29   30 am   BACKBONE|DICT|INTERRES
    61   29  154 1    
    62   30   31 2    
    63   30   32 1    
    64   32   33 1    
    65   32   34 1    
    66   32  155 1    
    67   33  156 1    
    68   33  157 1    
    69   33  158 1    
    70   34   35 am   BACKBONE|DICT|INTERRES
    71   34  159 1    
    72   35   36 2    
    73   35   37 1    
    74   37   38 1    
    75   37   39 1    
    76   37  160 1    
    77   38  161 1    
    78   38  162 1    
    79   38  163 1    
    80   39   40 am   BACKBONE|DICT|INTERRES
    81   39  164 1    
    82   40   41 2    
    83   40   42 1    
    84   42   43 1    
    85   42   44 1    
    86   42  165 1    
    87   43  166 1    
    88   43  167 1    
    89   43  168 1    
    90   44   45 am   BACKBONE|DICT|INTERRES
    91   44  169 1    
    92   45   46 2    
    93   45   47 1    
    94   47   48 1    
    95   47   49 1    
    96   47  170 1    
    97   48  171 1    
    98   48  172 1    
    99   48  173 1    
   100   49   50 am   BACKBONE|DICT|INTERRES
   101   49  174 1    
   102   50   51 2    
   103   50   52 1    
   104   52   53 1    
   105   52   54 1    
   106   52  175 1    
   107   53  176 1    
   108   53  177 1    
   109   53  178 1    
   110   54   55 am   BACKBONE|DICT|INTERRES
   111   54  179 1    
   112   55   56 2    
   113   55   57 1    
   114   57   58 1    
   115   57   59 1    
   116   57  180 1    
   117   58  181 1    
   118   58  182 1    
   119   58  183 1    
   120   59   60 am   BACKBONE|DICT|INTERRES
   121   59  184 1    
   122   60   61 2    
   123   60   62 1    
   124   62   63 1    
   125   62   64 1    
   126   62  185 1    
   127   63  186 1    
   128   63  187 1    
   129   63  188 1    
   130   64   65 am   BACKBONE|DICT|INTERRES
   131   64  189 1    
   132   65   66 2    
   133   67   68 2    
   134   67   69 am   BACKBONE|DICT|INTERRES
   135   69   70 1    
   136   69  190 1    
   137   70   71 1    
   138   70   72 1    
   139   70  191 1    
   140   71  192 1    
   141   71  193 1    
   142   71  194 1    
   143   72   73 2    
   144   72   74 am   BACKBONE|DICT|INTERRES
   145   74   75 1    
   146   74  195 1    
   147   75   76 1    
   148   75   77 1    
   149   75  196 1    
   150   76  197 1    
   151   76  198 1    
   152   76  199 1    
   153   77   78 2    
   154   77   79 am   BACKBONE|DICT|INTERRES
   155   79   80 1    
   156   79  200 1    
   157   80   81 1    
   158   80   82 1    
   159   80  201 1    
   160   81  202 1    
   161   81  203 1    
   162   81  204 1    
   163   82   83 2    
   164   82   84 am   BACKBONE|DICT|INTERRES
   165   84   85 1    
   166   84  205 1    
   167   85   86 1    
   168   85   87 1    
   169   85  206 1    
   170   86  207 1    
   171   86  208 1    
   172   86  209 1    
   173   87   88 2    
   174   87   89 am   BACKBONE|DICT|INTERRES
   175   89   90 1    
   176   89  210 1    
   177   90   91 1    
   178   90   92 1    
   179   90  211 1    
   180   91  212 1    
   181   91  213 1    
   182   91  214 1    
   183   92   93 2    
   184   92   94 am   BACKBONE|DICT|INTERRES
   185   94   95 1    
   186   94  215 1    
   187   95   96 1    
   188   95   97 1    
   189   95  216 1    
   190   96  217 1    
   191   96  218 1    
   192   96  219 1    
   193   97   98 2    
   194   97   99 am   BACKBONE|DICT|INTERRES
   195   99  100 1    
   196   99  220 1    
   197  100  101 1    
   198  100  102 1    
   199  100  221 1    
   200  101  222 1    
   201  101  223 1    
   202  101  224 1    
   203  102  103 2    
   204  102  104 am   BACKBONE|DICT|INTERRES
   205  104  105 1    
   206  104  225 1    
   207  105  106 1    
   208  105  107 1    
   209  105  226 1    
   210  106  227 1    
   211  106  228 1    
   212  106  229 1    
   213  107  108 2    
   214  107  109 am   BACKBONE|DICT|INTERRES
   215  109  110 1    
   216  109  230 1    
   217  110  111 1    
   218  110  112 1    
   219  110  231 1    
   220  111  232 1    
   221  111  233 1    
   222  111  234 1    
   223  112  113 2    
   224  112  114 am   BACKBONE|DICT|INTERRES
   225  114  115 1    
   226  114  235 1    
   227  115  116 1    
   228  115  117 1    
   229  115  236 1    
   230  116  237 1    
   231  116  238 1    
   232  116  239 1    
   233  117  118 2    
   234  117  119 am   BACKBONE|DICT|INTERRES
   235  119  120 1    
   236  119  240 1    
   237  120  121 1    
   238  120  124 1    
   239  120  241 1    
   240  121  122 am   BACKBONE|DICT|INTERRES
   241  121  123 2    
   242  122  242 1    
   243  122  243 1    
   244  124  125 1    
   245  124  244 1    
   246  124  245 1    
   247  125  126 1    
   248  126  246 1    
   249  126  247 1    
@<TRIPOS>SUBSTRUCTURE
     1 UNK         1 GROUP             0       ****    0 ROOT    
