@<TRIPOS>MOLECULE
3R540
247   249    1
SMALL
USER_CHARGES


@<TRIPOS>ATOM
      1 CA          0.4140  -16.3011  -48.8263 C.3       0 UNK        -0.1800 
      2 C           1.0802  -14.9522  -49.0378 C.2       0 UNK         0.5000 
      3 O           0.4254  -13.9167  -48.9171 O.2       0 UNK        -0.5000 
      4 N           2.3767  -14.9637  -49.3617 N.am      1 UNK        -0.5000 
      5 CA          3.2119  -13.7697  -49.4991 C.3       1 UNK         0.1400 
      6 C6          4.4600  -14.0308  -50.3822 C.3       23 UNK        -0.0398 
      7 S7          5.5050  -15.4378  -49.8558 S.3       23 UNK        -0.2404 
      8 C8          5.3711  -16.5679  -51.2796 C.3       23 UNK        -0.0205 
      9 C9          4.0615  -17.3422  -51.2749 C.ar      23 UNK        -0.0193 
     10 C10         2.9764  -16.9151  -52.0465 C.ar      23 UNK        -0.1150 
     11 C11         1.7736  -17.6280  -52.0331 C.ar      23 UNK        -0.0193 
     12 C12         1.6673  -18.7857  -51.2573 C.ar      23 UNK        -0.1150 
     13 C13         2.7473  -19.2271  -50.4896 C.ar      23 UNK        -0.0193 
     14 C14         3.9397  -18.4984  -50.4995 C.ar      23 UNK        -0.1150 
     15 C15         2.6346  -20.4877  -49.6482 C.3       23 UNK        -0.0205 
     16 S16         1.9748  -20.1202  -47.9948 S.3       23 UNK        -0.2404 
     17 C17         0.1770  -20.3136  -48.2452 C.3       23 UNK        -0.0398 
     18 CA         -0.3464  -21.6086  -47.5816 C.3       11 UNK         0.1400 
     19 N          -0.2581  -21.5610  -46.1162 N.am      11 UNK        -0.5000 
     20 C          -0.4351  -22.6117  -45.3043 C.2       10 UNK         0.5000 
     21 O          -0.6745  -23.7465  -45.7092 O.2       10 UNK        -0.5000 
     22 CA         -0.3961  -22.3532  -43.7869 C.3       10 UNK         0.1400 
     23 CB          1.0482  -22.2811  -43.2698 C.3       10 UNK        -0.1800 
     24 N          -1.1327  -21.1489  -43.4024 N.am      10 UNK        -0.5000 
     25 C          -2.4570  -20.9989  -43.5519 C.2       9 UNK         0.5000 
     26 O          -3.1981  -21.8816  -43.9848 O.2       9 UNK        -0.5000 
     27 CA         -3.0475  -19.6173  -43.2141 C.3       9 UNK         0.1400 
     28 CB         -3.2664  -19.4698  -41.7013 C.3       9 UNK        -0.1800 
     29 N          -2.2198  -18.5144  -43.7041 N.am      9 UNK        -0.5000 
     30 C          -1.9400  -18.2939  -44.9963 C.2       8 UNK         0.5000 
     31 O          -2.4016  -18.9665  -45.9173 O.2       8 UNK        -0.5000 
     32 CA         -0.9179  -17.1865  -45.3113 C.3       8 UNK         0.1400 
     33 CB         -1.5716  -15.7979  -45.3022 C.3       8 UNK        -0.1800 
     34 N           0.2356  -17.2040  -44.4110 N.am      8 UNK        -0.5000 
     35 C           1.0847  -18.2366  -44.3080 C.2       7 UNK         0.5000 
     36 O           0.9953  -19.2596  -44.9814 O.2       7 UNK        -0.5000 
     37 CA          2.1719  -18.1435  -43.2275 C.3       7 UNK         0.1400 
     38 CB          3.3563  -17.2926  -43.7082 C.3       7 UNK        -0.1800 
     39 N           1.6322  -17.6076  -41.9786 N.am      7 UNK        -0.5000 
     40 C           0.7831  -18.2771  -41.1845 C.2       6 UNK         0.5000 
     41 O           0.4188  -19.4341  -41.3953 O.2       6 UNK        -0.5000 
     42 CA          0.2131  -17.5102  -39.9771 C.3       6 UNK         0.1400 
     43 CB          1.1765  -17.5859  -38.7834 C.3       6 UNK        -0.1800 
     44 N          -0.0696  -16.1072  -40.2845 N.am      6 UNK        -0.5000 
     45 C          -1.0121  -15.6941  -41.1441 C.2       5 UNK         0.5000 
     46 O          -1.7771  -16.4552  -41.7346 O.2       5 UNK        -0.5000 
     47 CA         -1.0790  -14.1816  -41.4274 C.3       5 UNK         0.1400 
     48 CB         -2.0191  -13.4871  -40.4315 C.3       5 UNK        -0.1800 
     49 N           0.2316  -13.5267  -41.3953 N.am      5 UNK        -0.5000 
     50 C           1.2458  -13.8039  -42.2248 C.2       4 UNK         0.5000 
     51 O           1.1820  -14.6517  -43.1173 O.2       4 UNK        -0.5000 
     52 CA          2.5489  -13.0127  -42.0019 C.3       4 UNK         0.1400 
     53 CB          3.7908  -13.9050  -42.1645 C.3       4 UNK        -0.1800 
     54 N           2.6633  -11.8784  -42.9149 N.am      4 UNK        -0.5000 
     55 C           1.9008  -10.7768  -42.8946 C.2       3 UNK         0.5000 
     56 O           1.0015  -10.5896  -42.0737 O.2       3 UNK        -0.5000 
     57 CA          2.2102   -9.6786  -43.9338 C.3       3 UNK         0.1400 
     58 CB          2.6850   -8.3939  -43.2346 C.3       3 UNK        -0.1800 
     59 N           3.2231  -10.0686  -44.9203 N.am      3 UNK        -0.5000 
     60 C           2.9817  -10.7826  -46.0270 C.2       2 UNK         0.5000 
     61 O           1.8610  -11.1955  -46.3325 O.2       2 UNK        -0.5000 
     62 CA          4.1948  -11.0237  -46.9539 C.3       2 UNK         0.1400 
     63 CB          5.4294  -11.5572  -46.1919 C.3       2 UNK        -0.1800 
     64 N           3.8795  -11.8683  -48.1134 N.am      2 UNK        -0.5000 
     65 C           3.5772  -13.1757  -48.1191 C.2       1 UNK         0.5000 
     66 O           3.5945  -13.8970  -47.1175 O.2       1 UNK        -0.5000 
     67 C          -1.7668  -21.9497  -48.0801 C.2       11 UNK         0.5000 
     68 O          -1.8989  -22.6376  -49.0940 O.2       11 UNK        -0.5000 
     69 N          -2.7999  -21.4945  -47.3578 N.am      12 UNK        -0.5000 
     70 CA         -4.1939  -21.8547  -47.6103 C.3       12 UNK         0.1400 
     71 CB         -5.1310  -20.8864  -46.8745 C.3       12 UNK        -0.1800 
     72 C          -4.4959  -23.3169  -47.2411 C.2       12 UNK         0.5000 
     73 O          -5.1573  -24.0076  -48.0160 O.2       12 UNK        -0.5000 
     74 N          -3.9787  -23.7723  -46.0906 N.am      13 UNK        -0.5000 
     75 CA         -4.0973  -25.1515  -45.6098 C.3       13 UNK         0.1400 
     76 CB         -3.6110  -25.2322  -44.1550 C.3       13 UNK        -0.1800 
     77 C          -3.3438  -26.1617  -46.4960 C.2       13 UNK         0.5000 
     78 O          -3.8677  -27.2422  -46.7686 O.2       13 UNK        -0.5000 
     79 N          -2.1455  -25.7778  -46.9573 N.am      14 UNK        -0.5000 
     80 CA         -1.3284  -26.5246  -47.9172 C.3       14 UNK         0.1400 
     81 CB          0.0975  -25.9517  -47.9139 C.3       14 UNK        -0.1800 
     82 C          -1.9023  -26.5090  -49.3478 C.2       14 UNK         0.5000 
     83 O          -1.5093  -27.3493  -50.1575 O.2       14 UNK        -0.5000 
     84 N          -2.8142  -25.5644  -49.6191 N.am      15 UNK        -0.5000 
     85 CA         -3.5200  -25.3227  -50.8743 C.3       15 UNK         0.1400 
     86 CB         -4.4458  -26.5083  -51.2214 C.3       15 UNK        -0.1800 
     87 C          -2.5567  -24.9426  -52.0134 C.2       15 UNK         0.5000 
     88 O          -2.3833  -25.7052  -52.9672 O.2       15 UNK        -0.5000 
     89 N          -1.9532  -23.7505  -51.8929 N.am      16 UNK        -0.5000 
     90 CA         -1.1648  -23.1060  -52.9512 C.3       16 UNK         0.1400 
     91 CB         -0.5374  -21.8174  -52.3999 C.3       16 UNK        -0.1800 
     92 C          -1.9949  -22.8272  -54.2260 C.2       16 UNK         0.5000 
     93 O          -1.4839  -22.9699  -55.3372 O.2       16 UNK        -0.5000 
     94 N          -3.2766  -22.5055  -54.0283 N.am      17 UNK        -0.5000 
     95 CA         -4.3687  -22.6664  -54.9828 C.3       17 UNK         0.1400 
     96 CB         -4.8895  -21.2850  -55.4046 C.3       17 UNK        -0.1800 
     97 C          -5.4643  -23.4972  -54.2884 C.2       17 UNK         0.5000 
     98 O          -5.3322  -23.7969  -53.0998 O.2       17 UNK        -0.5000 
     99 N          -6.5181  -23.8683  -55.0282 N.am      18 UNK        -0.5000 
    100 CA        -7.6379  -24.7098  -54.5838 C.3       18 UNK         0.1400 
    101 CB        -8.6376  -24.8530  -55.7443 C.3       18 UNK        -0.1800 
    102 C         -8.3275  -24.1998  -53.2972 C.2       18 UNK         0.5000 
    103 O         -9.2300  -23.3639  -53.3717 O.2       18 UNK        -0.5000 
    104 N         -7.8452  -24.6973  -52.1477 N.am      19 UNK        -0.5000 
    105 CA        -8.1873  -24.3037  -50.7766 C.3       19 UNK         0.1400 
    106 CB        -9.6198  -24.7590  -50.4284 C.3       19 UNK        -0.1800 
    107 C         -7.9422  -22.8042  -50.4886 C.2       19 UNK         0.5000 
    108 O         -8.7091  -22.1920  -49.7420 O.2       19 UNK        -0.5000 
    109 N         -6.8937  -22.2299  -51.0933 N.am      20 UNK        -0.5000 
    110 CA        -6.5786  -20.8066  -51.0224 C.3       20 UNK         0.1400 
    111 CB        -7.2893  -20.0744  -52.1732 C.3       20 UNK        -0.1800 
    112 C         -5.0637  -20.5796  -51.0801 C.2       20 UNK         0.5000 
    113 O         -4.3232  -21.4123  -51.6070 O.2       20 UNK        -0.5000 
    114 N         -4.6256  -19.4385  -50.5404 N.am      21 UNK        -0.5000 
    115 CA        -3.2388  -18.9855  -50.5630 C.3       21 UNK         0.1400 
    116 CB        -2.9721  -18.1535  -49.2991 C.3       21 UNK        -0.1800 
    117 C         -2.9786  -18.2021  -51.8629 C.2       21 UNK         0.5000 
    118 O         -2.9199  -16.9716  -51.8416 O.2       21 UNK        -0.5000 
    119 N         -2.8699  -18.9440  -52.9713 N.am      22 UNK        -0.5000 
    120 CA        -2.7575  -18.4538  -54.3577 C.3       22 UNK         0.1400 
    121 C         -4.0809  -17.8296  -54.9010 C.2       22 UNK         0.5000 
    122 N         -4.1136  -17.4213  -56.1631 N.am      22 UNK        -0.7600 
    123 O         -5.0958  -17.7384  -54.2138 O.2       22 UNK        -0.5000 
    124 C124       -1.5262  -17.5348  -54.6155 C.3       23 UNK        -0.0398 
    125 S125        0.0613  -18.2865  -54.1186 S.3       23 UNK        -0.2404 
    126 C126        0.5701  -17.1261  -52.8135 C.3       23 UNK        -0.0205 
    127 H127       -0.4951  -16.1792  -48.2395 H         1 UNK         0.0600 
    128 H128        1.0757  -16.9925  -48.3036 H         1 UNK         0.0600 
    129 H129        0.1400  -16.7390  -49.7838 H         1 UNK         0.0600 
    130 H130        2.8706  -15.8428  -49.4308 H         1 UNK         0.3000 
    131 H131        2.6146  -13.0153  -50.0165 H         1 UNK         0.0600 
    132 H132        5.0902  -13.1410  -50.4257 H         1 UNK         0.0800 
    133 H133        4.1346  -14.1929  -51.4098 H         1 UNK         0.0800 
    134 H134        5.4905  -16.0124  -52.2111 H         1 UNK         0.0800 
    135 H135        6.2042  -17.2715  -51.2434 H         1 UNK         0.0800 
    136 H136        3.0631  -16.0193  -52.6448 H         1 UNK         0.1150 
    137 H137        0.7386  -19.3367  -51.2530 H         1 UNK         0.1150 
    138 H138        4.7762  -18.8307  -49.9005 H         1 UNK         0.1150 
    139 H139        2.0176  -21.2341  -50.1500 H         1 UNK         0.0800 
    140 H140        3.6198  -20.9424  -49.5343 H         1 UNK         0.0800 
    141 H141       -0.3277  -19.4397  -47.8307 H         1 UNK         0.0800 
    142 H142       -0.0393  -20.3096  -49.3138 H         1 UNK         0.0800 
    143 H143        0.2926  -22.4300  -47.9128 H         1 UNK         0.0600 
    144 H144        0.0097  -20.6682  -45.7068 H         1 UNK         0.3000 
    145 H145       -0.8793  -23.2013  -43.2976 H         1 UNK         0.0600 
    146 H146        1.0734  -22.1482  -42.1881 H         1 UNK         0.0600 
    147 H147        1.5877  -23.2011  -43.4977 H         1 UNK         0.0600 
    148 H148        1.6028  -21.4588  -43.7202 H         1 UNK         0.0600 
    149 H149       -0.5907  -20.3858  -43.0134 H         1 UNK         0.3000 
    150 H150       -4.0195  -19.5445  -43.7061 H         1 UNK         0.0600 
    151 H151       -3.8990  -20.2715  -41.3183 H         1 UNK         0.0600 
    152 H152       -3.7579  -18.5259  -41.4650 H         1 UNK         0.0600 
    153 H153       -2.3252  -19.5025  -41.1523 H         1 UNK         0.0600 
    154 H154       -1.8461  -17.8780  -43.0051 H         1 UNK         0.3000 
    155 H155       -0.5409  -17.3802  -46.3151 H         1 UNK         0.0600 
    156 H156       -1.9783  -15.5499  -44.3222 H         1 UNK         0.0600 
    157 H157       -2.3917  -15.7507  -46.0197 H         1 UNK         0.0600 
    158 H158       -0.8546  -15.0229  -45.5749 H         1 UNK         0.0600 
    159 H159        0.3996  -16.3768  -43.8463 H         1 UNK         0.3000 
    160 H160        2.5418  -19.1523  -43.0323 H         1 UNK         0.0600 
    161 H161        3.0432  -16.2932  -44.0084 H         1 UNK         0.0600 
    162 H162        3.8332  -17.7531  -44.5743 H         1 UNK         0.0600 
    163 H163        4.1157  -17.1922  -42.9328 H         1 UNK         0.0600 
    164 H164        1.8351  -16.6411  -41.7728 H         1 UNK         0.3000 
    165 H165       -0.7250  -17.9905  -39.6907 H         1 UNK         0.0600 
    166 H166        2.1279  -17.0985  -38.9999 H         1 UNK         0.0600 
    167 H167        0.7484  -17.1107  -37.9006 H         1 UNK         0.0600 
    168 H168        1.3909  -18.6228  -38.5210 H         1 UNK         0.0600 
    169 H169        0.5113  -15.4134  -39.8377 H         1 UNK         0.3000 
    170 H170       -1.4897  -14.0517  -42.4305 H         1 UNK         0.0600 
    171 H171       -3.0116  -13.9394  -40.4512 H         1 UNK         0.0600 
    172 H172       -1.6463  -13.5569  -39.4088 H         1 UNK         0.0600 
    173 H173       -2.1398  -12.4311  -40.6742 H         1 UNK         0.0600 
    174 H174        0.3458  -12.7785  -40.7258 H         1 UNK         0.3000 
    175 H175        2.5489  -12.6311  -40.9787 H         1 UNK         0.0600 
    176 H176        3.7205  -14.7965  -41.5401 H         1 UNK         0.0600 
    177 H177        3.9200  -14.2323  -43.1966 H         1 UNK         0.0600 
    178 H178        4.6962  -13.3741  -41.8699 H         1 UNK         0.0600 
    179 H179        3.3568  -11.9567  -43.6431 H         1 UNK         0.3000 
    180 H180        1.2757   -9.4538  -44.4524 H         1 UNK         0.0600 
    181 H181        2.8538   -7.5923  -43.9541 H         1 UNK         0.0600 
    182 H182        1.9404   -8.0351  -42.5227 H         1 UNK         0.0600 
    183 H183        3.6135   -8.5542  -42.6852 H         1 UNK         0.0600 
    184 H184        4.1645   -9.7505  -44.7397 H         1 UNK         0.3000 
    185 H185        4.4594  -10.0490  -47.3665 H         1 UNK         0.0600 
    186 H186        6.2400  -11.8016  -46.8786 H         1 UNK         0.0600 
    187 H187        5.8183  -10.8147  -45.4948 H         1 UNK         0.0600 
    188 H188        5.1990  -12.4540  -45.6159 H         1 UNK         0.0600 
    189 H189        3.8072  -11.3655  -48.9868 H         1 UNK         0.3000 
    190 H190       -2.6188  -20.8679  -46.5799 H         1 UNK         0.3000 
    191 H191       -4.3776  -21.7524  -48.6786 H         1 UNK         0.0600 
    192 H192       -6.1755  -21.1275  -47.0760 H         1 UNK         0.0600 
    193 H193       -4.9672  -19.8581  -47.1961 H         1 UNK         0.0600 
    194 H194       -4.9861  -20.9247  -45.7950 H         1 UNK         0.0600 
    195 H195       -3.4886  -23.1216  -45.4833 H         1 UNK         0.3000 
    196 H196       -5.1555  -25.4205  -45.6278 H         1 UNK         0.0600 
    197 H197       -3.7168  -26.2445  -43.7630 H         1 UNK         0.0600 
    198 H198       -4.1889  -24.5707  -43.5093 H         1 UNK         0.0600 
    199 H199       -2.5611  -24.9528  -44.0648 H         1 UNK         0.0600 
    200 H200       -1.7451  -24.9084  -46.6089 H         1 UNK         0.3000 
    201 H201       -1.2817  -27.5655  -47.5908 H         1 UNK         0.0600 
    202 H202        0.1096  -24.9093  -48.2343 H         1 UNK         0.0600 
    203 H203        0.7468  -26.5105  -48.5889 H         1 UNK         0.0600 
    204 H204        0.5416  -26.0028  -46.9197 H         1 UNK         0.0600 
    205 H205       -3.0283  -24.9092  -48.8798 H         1 UNK         0.3000 
    206 H206       -4.1577  -24.4536  -50.7031 H         1 UNK         0.0600 
    207 H207       -5.1658  -26.6887  -50.4232 H         1 UNK         0.0600 
    208 H208       -5.0107  -26.3072  -52.1317 H         1 UNK         0.0600 
    209 H209       -3.8885  -27.4305  -51.3859 H         1 UNK         0.0600 
    210 H210       -2.1081  -23.2141  -51.0444 H         1 UNK         0.3000 
    211 H211       -0.3578  -23.7878  -53.2263 H         1 UNK         0.0600 
    212 H212       -1.2972  -21.1149  -52.0628 H         1 UNK         0.0600 
    213 H213        0.0630  -21.3163  -53.1602 H         1 UNK         0.0600 
    214 H214        0.1170  -22.0308  -51.5550 H         1 UNK         0.0600 
    215 H215       -3.6033  -22.4424  -53.0654 H         1 UNK         0.3000 
    216 H216       -4.0357  -23.2202  -55.8628 H         1 UNK         0.0600 
    217 H217       -5.7853  -21.3619  -56.0213 H         1 UNK         0.0600 
    218 H218       -4.1435  -20.7571  -55.9969 H         1 UNK         0.0600 
    219 H219       -5.1359  -20.6695  -54.5397 H         1 UNK         0.0600 
    220 H220       -6.5586  -23.5629  -55.9894 H         1 UNK         0.3000 
    221 H221       -7.2353  -25.7032  -54.3756 H         1 UNK         0.0600 
    222 H222       -9.0265  -23.8852  -56.0638 H         1 UNK         0.0600 
    223 H223       -8.1745  -25.3301  -56.6082 H         1 UNK         0.0600 
    224 H224       -9.4892  -25.4690  -55.4526 H         1 UNK         0.0600 
    225 H225       -7.0489  -25.3145  -52.2216 H         1 UNK         0.3000 
    226 H226       -7.5011  -24.8464  -50.1245 H         1 UNK         0.0600 
    227 H227       -9.7532  -25.8232  -50.6224 H         1 UNK         0.0600 
    228 H228       -9.8382  -24.5939  -49.3727 H         1 UNK         0.0600 
    229 H229      -10.3679  -24.2160  -51.0067 H         1 UNK         0.0600 
    230 H230       -6.2733  -22.7877  -51.6758 H         1 UNK         0.3000 
    231 H231       -6.9292  -20.4007  -50.0710 H         1 UNK         0.0600 
    232 H232       -7.0245  -19.0165  -52.1977 H         1 UNK         0.0600 
    233 H233       -8.3725  -20.1362  -52.0676 H         1 UNK         0.0600 
    234 H234       -7.0277  -20.5020  -53.1412 H         1 UNK         0.0600 
    235 H235       -5.2968  -18.7824  -50.1680 H         1 UNK         0.3000 
    236 H236       -2.5664  -19.8451  -50.5346 H         1 UNK         0.0600 
    237 H237       -3.5980  -17.2615  -49.2530 H         1 UNK         0.0600 
    238 H238       -3.1609  -18.7395  -48.4017 H         1 UNK         0.0600 
    239 H239       -1.9328  -17.8335  -49.2619 H         1 UNK         0.0600 
    240 H240       -3.0224  -19.9387  -52.8791 H         1 UNK         0.3000 
    241 H241       -2.6053  -19.3571  -54.9480 H         1 UNK         0.0600 
    242 H242       -3.3188  -17.5048  -56.7771 H         1 UNK         0.3800 
    243 H243       -4.9707  -17.0291  -56.5210 H         1 UNK         0.3800 
    244 H244       -1.6571  -16.5714  -54.1212 H         1 UNK         0.0800 
    245 H245       -1.4379  -17.3066  -55.6781 H         1 UNK         0.0800 
    246 H246        0.7773  -16.1541  -53.2638 H         1 UNK         0.0800 
    247 H247       -0.2548  -16.9733  -52.1189 H         1 UNK         0.0800 
@<TRIPOS>BOND
     1    1    2 1    
     2    1  127 1    
     3    1  128 1    
     4    1  129 1    
     5    2    3 2    
     6    2    4 am   BACKBONE|DICT|INTERRES
     7    4    5 1    
     8    4  130 1    
     9    5    6 1    
    10    5   65 1    
    11    5  131 1    
    12    6    7 1    
    13    6  132 1    
    14    6  133 1    
    15    7    8 1    
    16    8    9 1    
    17    8  134 1    
    18    8  135 1    
    19    9   10 ar   
    20    9   14 ar   
    21   10   11 ar   
    22   10  136 1    
    23   11   12 ar   
    24   11  126 1    
    25   12   13 ar   
    26   12  137 1    
    27   13   14 ar   
    28   13   15 1    
    29   14  138 1    
    30   15   16 1    
    31   15  139 1    
    32   15  140 1    
    33   16   17 1    
    34   17   18 1    
    35   17  141 1    
    36   17  142 1    
    37   18   19 1    
    38   18   67 1    
    39   18  143 1    
    40   19   20 am   BACKBONE|DICT|INTERRES
    41   19  144 1    
    42   20   21 2    
    43   20   22 1    
    44   22   23 1    
    45   22   24 1    
    46   22  145 1    
    47   23  146 1    
    48   23  147 1    
    49   23  148 1    
    50   24   25 am   BACKBONE|DICT|INTERRES
    51   24  149 1    
    52   25   26 2    
    53   25   27 1    
    54   27   28 1    
    55   27   29 1    
    56   27  150 1    
    57   28  151 1    
    58   28  152 1    
    59   28  153 1    
    60   29   30 am   BACKBONE|DICT|INTERRES
    61   29  154 1    
    62   30   31 2    
    63   30   32 1    
    64   32   33 1    
    65   32   34 1    
    66   32  155 1    
    67   33  156 1    
    68   33  157 1    
    69   33  158 1    
    70   34   35 am   BACKBONE|DICT|INTERRES
    71   34  159 1    
    72   35   36 2    
    73   35   37 1    
    74   37   38 1    
    75   37   39 1    
    76   37  160 1    
    77   38  161 1    
    78   38  162 1    
    79   38  163 1    
    80   39   40 am   BACKBONE|DICT|INTERRES
    81   39  164 1    
    82   40   41 2    
    83   40   42 1    
    84   42   43 1    
    85   42   44 1    
    86   42  165 1    
    87   43  166 1    
    88   43  167 1    
    89   43  168 1    
    90   44   45 am   BACKBONE|DICT|INTERRES
    91   44  169 1    
    92   45   46 2    
    93   45   47 1    
    94   47   48 1    
    95   47   49 1    
    96   47  170 1    
    97   48  171 1    
    98   48  172 1    
    99   48  173 1    
   100   49   50 am   BACKBONE|DICT|INTERRES
   101   49  174 1    
   102   50   51 2    
   103   50   52 1    
   104   52   53 1    
   105   52   54 1    
   106   52  175 1    
   107   53  176 1    
   108   53  177 1    
   109   53  178 1    
   110   54   55 am   BACKBONE|DICT|INTERRES
   111   54  179 1    
   112   55   56 2    
   113   55   57 1    
   114   57   58 1    
   115   57   59 1    
   116   57  180 1    
   117   58  181 1    
   118   58  182 1    
   119   58  183 1    
   120   59   60 am   BACKBONE|DICT|INTERRES
   121   59  184 1    
   122   60   61 2    
   123   60   62 1    
   124   62   63 1    
   125   62   64 1    
   126   62  185 1    
   127   63  186 1    
   128   63  187 1    
   129   63  188 1    
   130   64   65 am   BACKBONE|DICT|INTERRES
   131   64  189 1    
   132   65   66 2    
   133   67   68 2    
   134   67   69 am   BACKBONE|DICT|INTERRES
   135   69   70 1    
   136   69  190 1    
   137   70   71 1    
   138   70   72 1    
   139   70  191 1    
   140   71  192 1    
   141   71  193 1    
   142   71  194 1    
   143   72   73 2    
   144   72   74 am   BACKBONE|DICT|INTERRES
   145   74   75 1    
   146   74  195 1    
   147   75   76 1    
   148   75   77 1    
   149   75  196 1    
   150   76  197 1    
   151   76  198 1    
   152   76  199 1    
   153   77   78 2    
   154   77   79 am   BACKBONE|DICT|INTERRES
   155   79   80 1    
   156   79  200 1    
   157   80   81 1    
   158   80   82 1    
   159   80  201 1    
   160   81  202 1    
   161   81  203 1    
   162   81  204 1    
   163   82   83 2    
   164   82   84 am   BACKBONE|DICT|INTERRES
   165   84   85 1    
   166   84  205 1    
   167   85   86 1    
   168   85   87 1    
   169   85  206 1    
   170   86  207 1    
   171   86  208 1    
   172   86  209 1    
   173   87   88 2    
   174   87   89 am   BACKBONE|DICT|INTERRES
   175   89   90 1    
   176   89  210 1    
   177   90   91 1    
   178   90   92 1    
   179   90  211 1    
   180   91  212 1    
   181   91  213 1    
   182   91  214 1    
   183   92   93 2    
   184   92   94 am   BACKBONE|DICT|INTERRES
   185   94   95 1    
   186   94  215 1    
   187   95   96 1    
   188   95   97 1    
   189   95  216 1    
   190   96  217 1    
   191   96  218 1    
   192   96  219 1    
   193   97   98 2    
   194   97   99 am   BACKBONE|DICT|INTERRES
   195   99  100 1    
   196   99  220 1    
   197  100  101 1    
   198  100  102 1    
   199  100  221 1    
   200  101  222 1    
   201  101  223 1    
   202  101  224 1    
   203  102  103 2    
   204  102  104 am   BACKBONE|DICT|INTERRES
   205  104  105 1    
   206  104  225 1    
   207  105  106 1    
   208  105  107 1    
   209  105  226 1    
   210  106  227 1    
   211  106  228 1    
   212  106  229 1    
   213  107  108 2    
   214  107  109 am   BACKBONE|DICT|INTERRES
   215  109  110 1    
   216  109  230 1    
   217  110  111 1    
   218  110  112 1    
   219  110  231 1    
   220  111  232 1    
   221  111  233 1    
   222  111  234 1    
   223  112  113 2    
   224  112  114 am   BACKBONE|DICT|INTERRES
   225  114  115 1    
   226  114  235 1    
   227  115  116 1    
   228  115  117 1    
   229  115  236 1    
   230  116  237 1    
   231  116  238 1    
   232  116  239 1    
   233  117  118 2    
   234  117  119 am   BACKBONE|DICT|INTERRES
   235  119  120 1    
   236  119  240 1    
   237  120  121 1    
   238  120  124 1    
   239  120  241 1    
   240  121  122 am   BACKBONE|DICT|INTERRES
   241  121  123 2    
   242  122  242 1    
   243  122  243 1    
   244  124  125 1    
   245  124  244 1    
   246  124  245 1    
   247  125  126 1    
   248  126  246 1    
   249  126  247 1    
@<TRIPOS>SUBSTRUCTURE
     1 UNK         1 GROUP             0       ****    0 ROOT    
