@<TRIPOS>MOLECULE
3R540
247   249    1
SMALL
USER_CHARGES


@<TRIPOS>ATOM
      1 CA          1.4573  -11.5463  -47.4153 C.3       0 UNK        -0.1800 
      2 C           2.9423  -11.8211  -47.2183 C.2       0 UNK         0.5000 
      3 O           3.6481  -10.9958  -46.6384 O.2       0 UNK        -0.5000 
      4 N           3.4171  -12.9691  -47.7118 N.am      1 UNK        -0.5000 
      5 CA          4.7898  -13.4596  -47.5591 C.3       1 UNK         0.1400 
      6 C6          5.1071  -14.5928  -48.5695 C.3       23 UNK        -0.0398 
      7 S7          3.8686  -15.9418  -48.6016 S.3       23 UNK        -0.2404 
      8 C8          3.1845  -15.7253  -50.2742 C.3       23 UNK        -0.0205 
      9 C9          2.0351  -16.6811  -50.5562 C.ar      23 UNK        -0.0193 
     10 C10         0.7872  -16.1876  -50.9460 C.ar      23 UNK        -0.1150 
     11 C11        -0.2556  -17.0621  -51.2635 C.ar      23 UNK        -0.0193 
     12 C12        -0.0510  -18.4421  -51.1547 C.ar      23 UNK        -0.1150 
     13 C13         1.1946  -18.9534  -50.7738 C.ar      23 UNK        -0.0193 
     14 C14         2.2350  -18.0626  -50.4878 C.ar      23 UNK        -0.1150 
     15 C15         1.4105  -20.4667  -50.7465 C.3       23 UNK        -0.0205 
     16 S16         2.5480  -21.0616  -49.4429 S.3       23 UNK        -0.2404 
     17 C17         1.6585  -20.5682  -47.9288 C.3       23 UNK        -0.0398 
     18 CA          0.8878  -21.7227  -47.2443 C.3       11 UNK         0.1400 
     19 N           0.4093  -21.3265  -45.9188 N.am      11 UNK        -0.5000 
     20 C          -0.1918  -22.1333  -45.0338 C.2       10 UNK         0.5000 
     21 O          -0.3387  -23.3441  -45.1997 O.2       10 UNK        -0.5000 
     22 CA         -0.7820  -21.4609  -43.7797 C.3       10 UNK         0.1400 
     23 CB          0.2989  -21.2428  -42.7112 C.3       10 UNK        -0.1800 
     24 N          -1.4450  -20.1906  -44.0875 N.am      10 UNK        -0.5000 
     25 C          -2.5313  -20.0815  -44.8668 C.2       9 UNK         0.5000 
     26 O          -3.1209  -21.0483  -45.3462 O.2       9 UNK        -0.5000 
     27 CA         -3.0199  -18.6640  -45.2079 C.3       9 UNK         0.1400 
     28 CB         -3.9023  -18.1055  -44.0825 C.3       9 UNK        -0.1800 
     29 N          -1.9220  -17.7397  -45.4919 N.am      9 UNK        -0.5000 
     30 C          -1.0936  -17.8463  -46.5405 C.2       8 UNK         0.5000 
     31 O          -1.2097  -18.7124  -47.4071 O.2       8 UNK        -0.5000 
     32 CA          0.0980  -16.8672  -46.5977 C.3       8 UNK         0.1400 
     33 CB         -0.3166  -15.5064  -47.1727 C.3       8 UNK        -0.1800 
     34 N           0.7237  -16.6792  -45.2868 N.am      8 UNK        -0.5000 
     35 C           1.3388  -17.6605  -44.6119 C.2       7 UNK         0.5000 
     36 O           1.4881  -18.7994  -45.0540 O.2       7 UNK        -0.5000 
     37 CA          1.8184  -17.3446  -43.1856 C.3       7 UNK         0.1400 
     38 CB          3.2211  -16.7320  -43.1943 C.3       7 UNK        -0.1800 
     39 N           0.8936  -16.4741  -42.4599 N.am      7 UNK        -0.5000 
     40 C          -0.3138  -16.8708  -42.0356 C.2       6 UNK         0.5000 
     41 O          -0.7447  -18.0154  -42.1781 O.2       6 UNK        -0.5000 
     42 CA         -1.2076  -15.7983  -41.3897 C.3       6 UNK         0.1400 
     43 CB         -0.7826  -15.5250  -39.9392 C.3       6 UNK        -0.1800 
     44 N          -1.2102  -14.5473  -42.1487 N.am      6 UNK        -0.5000 
     45 C          -1.7194  -14.4167  -43.3825 C.2       5 UNK         0.5000 
     46 O          -2.2580  -15.3350  -43.9957 O.2       5 UNK        -0.5000 
     47 CA         -1.5884  -13.0440  -44.0659 C.3       5 UNK         0.1400 
     48 CB         -2.8533  -12.2049  -43.8335 C.3       5 UNK        -0.1800 
     49 N          -0.4198  -12.2785  -43.6351 N.am      5 UNK        -0.5000 
     50 C           0.8552  -12.6533  -43.8029 C.2       4 UNK         0.5000 
     51 O           1.1806  -13.7137  -44.3413 O.2       4 UNK        -0.5000 
     52 CA          1.9344  -11.6658  -43.3019 C.3       4 UNK         0.1400 
     53 CB          1.3946  -10.5935  -42.3283 C.3       4 UNK        -0.1800 
     54 N           3.1013  -12.3146  -42.7048 N.am      4 UNK        -0.5000 
     55 C           3.1341  -13.2166  -41.7160 C.2       3 UNK         0.5000 
     56 O           2.1292  -13.7231  -41.2111 O.2       3 UNK        -0.5000 
     57 CA          4.5436  -13.6024  -41.2110 C.3       3 UNK         0.1400 
     58 CB          4.5097  -14.6254  -40.0608 C.3       3 UNK        -0.1800 
     59 N           5.4052  -14.1068  -42.2849 N.am      3 UNK        -0.5000 
     60 C           6.0202  -13.3544  -43.2082 C.2       2 UNK         0.5000 
     61 O           5.9580  -12.1230  -43.2240 O.2       2 UNK        -0.5000 
     62 CA          6.8206  -14.0722  -44.3172 C.3       2 UNK         0.1400 
     63 CB          6.9159  -15.6054  -44.1490 C.3       2 UNK        -0.1800 
     64 N           6.3185  -13.7298  -45.6541 N.am      2 UNK        -0.5000 
     65 C           5.0682  -13.9077  -46.1089 C.2       1 UNK         0.5000 
     66 O           4.1670  -14.4266  -45.4515 O.2       1 UNK        -0.5000 
     67 C          -0.2657  -22.2541  -48.1212 C.2       11 UNK         0.5000 
     68 O          -0.1480  -23.3412  -48.6854 O.2       11 UNK        -0.5000 
     69 N          -1.3734  -21.5029  -48.1902 N.am      12 UNK        -0.5000 
     70 CA         -2.5815  -21.8824  -48.9225 C.3       12 UNK         0.1400 
     71 CB         -3.5678  -20.7116  -48.9183 C.3       12 UNK        -0.1800 
     72 C          -3.2453  -23.1618  -48.3814 C.2       12 UNK         0.5000 
     73 O          -3.6983  -23.9862  -49.1747 O.2       12 UNK        -0.5000 
     74 N          -3.2600  -23.3290  -47.0521 N.am      13 UNK        -0.5000 
     75 CA         -3.7336  -24.5352  -46.3735 C.3       13 UNK         0.1400 
     76 CB         -3.8127  -24.2887  -44.8597 C.3       13 UNK        -0.1800 
     77 C          -2.8630  -25.7644  -46.6898 C.2       13 UNK         0.5000 
     78 O          -3.4077  -26.8242  -46.9989 O.2       13 UNK        -0.5000 
     79 N          -1.5328  -25.5930  -46.6653 N.am      14 UNK        -0.5000 
     80 CA         -0.5539  -26.6163  -47.0465 C.3       14 UNK         0.1400 
     81 CB          0.8604  -26.1325  -46.6927 C.3       14 UNK        -0.1800 
     82 C          -0.6438  -27.0108  -48.5346 C.2       14 UNK         0.5000 
     83 O          -0.4636  -28.1827  -48.8664 O.2       14 UNK        -0.5000 
     84 N          -0.9682  -26.0361  -49.3942 N.am      15 UNK        -0.5000 
     85 CA         -1.2430  -26.2142  -50.8217 C.3       15 UNK         0.1400 
     86 CB         -1.0720  -24.8590  -51.5281 C.3       15 UNK        -0.1800 
     87 C          -2.6372  -26.8122  -51.1181 C.2       15 UNK         0.5000 
     88 O          -2.9387  -27.0642  -52.2855 O.2       15 UNK        -0.5000 
     89 N          -3.4598  -27.0207  -50.0773 N.am      16 UNK        -0.5000 
     90 CA         -4.8292  -27.5435  -50.1068 C.3       16 UNK         0.1400 
     91 CB         -4.8463  -29.0158  -50.5682 C.3       16 UNK        -0.1800 
     92 C          -5.7868  -26.6394  -50.9089 C.2       16 UNK         0.5000 
     93 O          -6.5533  -27.1260  -51.7415 O.2       16 UNK        -0.5000 
     94 N          -5.6885  -25.3251  -50.6643 N.am      17 UNK        -0.5000 
     95 CA         -6.4260  -24.2060  -51.2654 C.3       17 UNK         0.1400 
     96 CB         -7.9491  -24.3648  -51.0993 C.3       17 UNK        -0.1800 
     97 C          -6.0505  -23.8928  -52.7263 C.2       17 UNK         0.5000 
     98 O          -6.1907  -22.7391  -53.1319 O.2       17 UNK        -0.5000 
     99 N          -5.5600  -24.8907  -53.4749 N.am      18 UNK        -0.5000 
    100 CA        -5.0458  -24.8149  -54.8451 C.3       18 UNK         0.1400 
    101 CB        -3.6459  -24.1620  -54.8321 C.3       18 UNK        -0.1800 
    102 C         -6.0415  -24.1483  -55.8226 C.2       18 UNK         0.5000 
    103 O         -7.2397  -24.4342  -55.7617 O.2       18 UNK        -0.5000 
    104 N         -5.5467  -23.2574  -56.6900 N.am      19 UNK        -0.5000 
    105 CA        -6.3335  -22.4477  -57.6199 C.3       19 UNK         0.1400 
    106 CB        -5.4803  -22.1691  -58.8712 C.3       19 UNK        -0.1800 
    107 C         -6.8369  -21.1573  -56.9376 C.2       19 UNK         0.5000 
    108 O         -6.5567  -20.0574  -57.4174 O.2       19 UNK        -0.5000 
    109 N         -7.5572  -21.3248  -55.8185 N.am      20 UNK        -0.5000 
    110 CA        -8.1213  -20.2824  -54.9530 C.3       20 UNK         0.1400 
    111 CB        -9.2381  -19.5074  -55.6838 C.3       20 UNK        -0.1800 
    112 C         -7.0353  -19.3654  -54.3516 C.2       20 UNK         0.5000 
    113 O         -7.0619  -18.1471  -54.5421 O.2       20 UNK        -0.5000 
    114 N         -6.0834  -19.9877  -53.6465 N.am      21 UNK        -0.5000 
    115 CA        -4.9997  -19.3344  -52.9153 C.3       21 UNK         0.1400 
    116 CB        -3.9365  -20.3961  -52.5746 C.3       21 UNK        -0.1800 
    117 C         -5.4868  -18.5970  -51.6476 C.2       21 UNK         0.5000 
    118 O         -6.6652  -18.6646  -51.2918 O.2       21 UNK        -0.5000 
    119 N         -4.5352  -17.9259  -50.9893 N.am      22 UNK        -0.5000 
    120 CA        -4.5962  -17.0632  -49.7905 C.3       22 UNK         0.1400 
    121 C         -5.3379  -17.5944  -48.5175 C.2       22 UNK         0.5000 
    122 N         -6.1432  -18.6418  -48.5870 N.am      22 UNK        -0.7600 
    123 O         -5.2037  -17.0233  -47.4395 O.2       22 UNK        -0.5000 
    124 C124       -3.1579  -16.5770  -49.4479 C.3       23 UNK        -0.0398 
    125 S125       -2.4751  -15.4280  -50.6907 S.3       23 UNK        -0.2404 
    126 C126       -1.5604  -16.5185  -51.8315 C.3       23 UNK        -0.0205 
    127 H127        0.9334  -12.4162  -47.8118 H         1 UNK         0.0600 
    128 H128        1.3196  -10.7191  -48.1115 H         1 UNK         0.0600 
    129 H129        0.9916  -11.2743  -46.4689 H         1 UNK         0.0600 
    130 H130        2.7788  -13.6344  -48.1226 H         1 UNK         0.3000 
    131 H131        5.4603  -12.6257  -47.7782 H         1 UNK         0.0600 
    132 H132        5.1904  -14.1613  -49.5678 H         1 UNK         0.0800 
    133 H133        6.0869  -15.0296  -48.3680 H         1 UNK         0.0800 
    134 H134        2.8603  -14.6905  -50.3956 H         1 UNK         0.0800 
    135 H135        3.9719  -15.8942  -51.0101 H         1 UNK         0.0800 
    136 H136        0.6333  -15.1216  -51.0397 H         1 UNK         0.1150 
    137 H137       -0.8487  -19.1242  -51.4111 H         1 UNK         0.1150 
    138 H138        3.2110  -18.4397  -50.2176 H         1 UNK         0.1150 
    139 H139        0.4553  -20.9825  -50.6412 H         1 UNK         0.0800 
    140 H140        1.8125  -20.7688  -51.7141 H         1 UNK         0.0800 
    141 H141        0.9997  -19.7288  -48.1452 H         1 UNK         0.0800 
    142 H142        2.4090  -20.1773  -47.2407 H         1 UNK         0.0800 
    143 H143        1.5864  -22.5480  -47.0915 H         1 UNK         0.0600 
    144 H144        0.5410  -20.3504  -45.6676 H         1 UNK         0.3000 
    145 H145       -1.5341  -22.1348  -43.3646 H         1 UNK         0.0600 
    146 H146       -0.1232  -20.8055  -41.8062 H         1 UNK         0.0600 
    147 H147        0.7635  -22.1886  -42.4301 H         1 UNK         0.0600 
    148 H148        1.0901  -20.5826  -43.0647 H         1 UNK         0.0600 
    149 H149       -1.0496  -19.3524  -43.6743 H         1 UNK         0.3000 
    150 H150       -3.6313  -18.7398  -46.1082 H         1 UNK         0.0600 
    151 H151       -4.7235  -18.7862  -43.8552 H         1 UNK         0.0600 
    152 H152       -4.3433  -17.1508  -44.3699 H         1 UNK         0.0600 
    153 H153       -3.3363  -17.9513  -43.1635 H         1 UNK         0.0600 
    154 H154       -1.8125  -16.9601  -44.8489 H         1 UNK         0.3000 
    155 H155        0.8505  -17.2943  -47.2646 H         1 UNK         0.0600 
    156 H156       -1.1421  -15.0654  -46.6146 H         1 UNK         0.0600 
    157 H157        0.5162  -14.8034  -47.1584 H         1 UNK         0.0600 
    158 H158       -0.6349  -15.6087  -48.2099 H         1 UNK         0.0600 
    159 H159        0.6879  -15.7513  -44.8792 H         1 UNK         0.3000 
    160 H160        1.8814  -18.2949  -42.6516 H         1 UNK         0.0600 
    161 H161        3.1910  -15.6848  -43.4899 H         1 UNK         0.0600 
    162 H162        3.8774  -17.2576  -43.8889 H         1 UNK         0.0600 
    163 H163        3.6779  -16.7953  -42.2090 H         1 UNK         0.0600 
    164 H164        1.1722  -15.5094  -42.3248 H         1 UNK         0.3000 
    165 H165       -2.2292  -16.1842  -41.3747 H         1 UNK         0.0600 
    166 H166       -1.4584  -14.8188  -39.4568 H         1 UNK         0.0600 
    167 H167       -0.7975  -16.4429  -39.3501 H         1 UNK         0.0600 
    168 H168        0.2265  -15.1160  -39.8821 H         1 UNK         0.0600 
    169 H169       -0.7452  -13.7556  -41.7287 H         1 UNK         0.3000 
    170 H170       -1.4895  -13.2188  -45.1387 H         1 UNK         0.0600 
    171 H171       -2.9919  -11.9693  -42.7776 H         1 UNK         0.0600 
    172 H172       -2.8120  -11.2660  -44.3860 H         1 UNK         0.0600 
    173 H173       -3.7430  -12.7391  -44.1702 H         1 UNK         0.0600 
    174 H174       -0.6045  -11.3962  -43.1803 H         1 UNK         0.3000 
    175 H175        2.3024  -11.1497  -44.1887 H         1 UNK         0.0600 
    176 H176        2.1950   -9.9326  -41.9950 H         1 UNK         0.0600 
    177 H177        0.9475  -11.0414  -41.4396 H         1 UNK         0.0600 
    178 H178        0.6445   -9.9595  -42.8023 H         1 UNK         0.0600 
    179 H179        3.9997  -12.0258  -43.0791 H         1 UNK         0.3000 
    180 H180        4.9924  -12.6902  -40.8121 H         1 UNK         0.0600 
    181 H181        4.0351  -15.5600  -40.3553 H         1 UNK         0.0600 
    182 H182        3.9506  -14.2331  -39.2105 H         1 UNK         0.0600 
    183 H183        5.5147  -14.8553  -39.7067 H         1 UNK         0.0600 
    184 H184        5.4699  -15.1100  -42.3708 H         1 UNK         0.3000 
    185 H185        7.8348  -13.6747  -44.2574 H         1 UNK         0.0600 
    186 H186        7.3542  -15.8725  -43.1866 H         1 UNK         0.0600 
    187 H187        5.9430  -16.0899  -44.2217 H         1 UNK         0.0600 
    188 H188        7.5536  -16.0393  -44.9192 H         1 UNK         0.0600 
    189 H189        6.9867  -13.2683  -46.2552 H         1 UNK         0.3000 
    190 H190       -1.3836  -20.5957  -47.7306 H         1 UNK         0.3000 
    191 H191       -2.2928  -22.0737  -49.9578 H         1 UNK         0.0600 
    192 H192       -3.1262  -19.8301  -49.3809 H         1 UNK         0.0600 
    193 H193       -4.4736  -20.9576  -49.4731 H         1 UNK         0.0600 
    194 H194       -3.8681  -20.4420  -47.9060 H         1 UNK         0.0600 
    195 H195       -2.9419  -22.5659  -46.4600 H         1 UNK         0.3000 
    196 H196       -4.7436  -24.7430  -46.7333 H         1 UNK         0.0600 
    197 H197       -4.1925  -25.1692  -44.3404 H         1 UNK         0.0600 
    198 H198       -4.4838  -23.4608  -44.6306 H         1 UNK         0.0600 
    199 H199       -2.8365  -24.0536  -44.4362 H         1 UNK         0.0600 
    200 H200       -1.1590  -24.6974  -46.3637 H         1 UNK         0.3000 
    201 H201       -0.7627  -27.5108  -46.4562 H         1 UNK         0.0600 
    202 H202        0.9494  -25.9229  -45.6266 H         1 UNK         0.0600 
    203 H203        1.1238  -25.2237  -47.2340 H         1 UNK         0.0600 
    204 H204        1.6056  -26.8897  -46.9393 H         1 UNK         0.0600 
    205 H205       -1.0131  -25.0838  -49.0433 H         1 UNK         0.3000 
    206 H206       -0.5017  -26.9038  -51.2298 H         1 UNK         0.0600 
    207 H207       -0.0963  -24.4212  -51.3160 H         1 UNK         0.0600 
    208 H208       -1.1462  -24.9703  -52.6099 H         1 UNK         0.0600 
    209 H209       -1.8350  -24.1451  -51.2179 H         1 UNK         0.0600 
    210 H210       -3.1243  -26.7622  -49.1576 H         1 UNK         0.3000 
    211 H211       -5.1858  -27.5208  -49.0762 H         1 UNK         0.0600 
    212 H212       -4.5466  -29.1200  -51.6112 H         1 UNK         0.0600 
    213 H213       -5.8453  -29.4425  -50.4718 H         1 UNK         0.0600 
    214 H214       -4.1743  -29.6248  -49.9635 H         1 UNK         0.0600 
    215 H215       -4.9543  -25.0256  -50.0241 H         1 UNK         0.3000 
    216 H216       -6.1285  -23.3296  -50.6871 H         1 UNK         0.0600 
    217 H217       -8.4685  -23.4614  -51.4213 H         1 UNK         0.0600 
    218 H218       -8.2168  -24.5398  -50.0573 H         1 UNK         0.0600 
    219 H219       -8.3419  -25.1906  -51.6927 H         1 UNK         0.0600 
    220 H220       -5.5616  -25.8134  -53.0574 H         1 UNK         0.3000 
    221 H221       -4.9298  -25.8448  -55.1850 H         1 UNK         0.0600 
    222 H222       -3.6887  -23.1129  -54.5379 H         1 UNK         0.0600 
    223 H223       -2.9900  -24.6737  -54.1284 H         1 UNK         0.0600 
    224 H224       -3.1657  -24.2214  -55.8094 H         1 UNK         0.0600 
    225 H225       -4.5593  -23.0506  -56.6490 H         1 UNK         0.3000 
    226 H226       -7.2136  -23.0093  -57.9399 H         1 UNK         0.0600 
    227 H227       -5.1701  -23.0977  -59.3506 H         1 UNK         0.0600 
    228 H228       -6.0435  -21.5974  -59.6099 H         1 UNK         0.0600 
    229 H229       -4.5815  -21.6005  -58.6291 H         1 UNK         0.0600 
    230 H230       -7.6829  -22.2764  -55.4935 H         1 UNK         0.3000 
    231 H231       -8.5826  -20.8010  -54.1110 H         1 UNK         0.0600 
    232 H232       -8.8543  -18.9389  -56.5313 H         1 UNK         0.0600 
    233 H233       -9.7242  -18.8004  -55.0107 H         1 UNK         0.0600 
    234 H234      -10.0083  -20.1834  -56.0550 H         1 UNK         0.0600 
    235 H235       -6.1543  -20.9970  -53.5225 H         1 UNK         0.3000 
    236 H236       -4.5466  -18.5923  -53.5759 H         1 UNK         0.0600 
    237 H237       -3.0628  -19.9574  -52.0934 H         1 UNK         0.0600 
    238 H238       -4.3315  -21.1594  -51.9039 H         1 UNK         0.0600 
    239 H239       -3.5834  -20.8979  -53.4753 H         1 UNK         0.0600 
    240 H240       -3.6111  -17.9712  -51.3857 H         1 UNK         0.3000 
    241 H241       -5.1792  -16.1892  -50.0842 H         1 UNK         0.0600 
    242 H242       -6.3953  -18.9950  -49.5052 H         1 UNK         0.3800 
    243 H243       -6.6303  -18.9577  -47.7648 H         1 UNK         0.3800 
    244 H244       -3.1381  -16.0354  -48.5010 H         1 UNK         0.0800 
    245 H245       -2.4832  -17.4238  -49.3203 H         1 UNK         0.0800 
    246 H246       -2.2008  -17.3275  -52.1787 H         1 UNK         0.0800 
    247 H247       -1.3199  -15.9386  -52.7237 H         1 UNK         0.0800 
@<TRIPOS>BOND
     1    1    2 1    
     2    1  127 1    
     3    1  128 1    
     4    1  129 1    
     5    2    3 2    
     6    2    4 am   BACKBONE|DICT|INTERRES
     7    4    5 1    
     8    4  130 1    
     9    5    6 1    
    10    5   65 1    
    11    5  131 1    
    12    6    7 1    
    13    6  132 1    
    14    6  133 1    
    15    7    8 1    
    16    8    9 1    
    17    8  134 1    
    18    8  135 1    
    19    9   10 ar   
    20    9   14 ar   
    21   10   11 ar   
    22   10  136 1    
    23   11   12 ar   
    24   11  126 1    
    25   12   13 ar   
    26   12  137 1    
    27   13   14 ar   
    28   13   15 1    
    29   14  138 1    
    30   15   16 1    
    31   15  139 1    
    32   15  140 1    
    33   16   17 1    
    34   17   18 1    
    35   17  141 1    
    36   17  142 1    
    37   18   19 1    
    38   18   67 1    
    39   18  143 1    
    40   19   20 am   BACKBONE|DICT|INTERRES
    41   19  144 1    
    42   20   21 2    
    43   20   22 1    
    44   22   23 1    
    45   22   24 1    
    46   22  145 1    
    47   23  146 1    
    48   23  147 1    
    49   23  148 1    
    50   24   25 am   BACKBONE|DICT|INTERRES
    51   24  149 1    
    52   25   26 2    
    53   25   27 1    
    54   27   28 1    
    55   27   29 1    
    56   27  150 1    
    57   28  151 1    
    58   28  152 1    
    59   28  153 1    
    60   29   30 am   BACKBONE|DICT|INTERRES
    61   29  154 1    
    62   30   31 2    
    63   30   32 1    
    64   32   33 1    
    65   32   34 1    
    66   32  155 1    
    67   33  156 1    
    68   33  157 1    
    69   33  158 1    
    70   34   35 am   BACKBONE|DICT|INTERRES
    71   34  159 1    
    72   35   36 2    
    73   35   37 1    
    74   37   38 1    
    75   37   39 1    
    76   37  160 1    
    77   38  161 1    
    78   38  162 1    
    79   38  163 1    
    80   39   40 am   BACKBONE|DICT|INTERRES
    81   39  164 1    
    82   40   41 2    
    83   40   42 1    
    84   42   43 1    
    85   42   44 1    
    86   42  165 1    
    87   43  166 1    
    88   43  167 1    
    89   43  168 1    
    90   44   45 am   BACKBONE|DICT|INTERRES
    91   44  169 1    
    92   45   46 2    
    93   45   47 1    
    94   47   48 1    
    95   47   49 1    
    96   47  170 1    
    97   48  171 1    
    98   48  172 1    
    99   48  173 1    
   100   49   50 am   BACKBONE|DICT|INTERRES
   101   49  174 1    
   102   50   51 2    
   103   50   52 1    
   104   52   53 1    
   105   52   54 1    
   106   52  175 1    
   107   53  176 1    
   108   53  177 1    
   109   53  178 1    
   110   54   55 am   BACKBONE|DICT|INTERRES
   111   54  179 1    
   112   55   56 2    
   113   55   57 1    
   114   57   58 1    
   115   57   59 1    
   116   57  180 1    
   117   58  181 1    
   118   58  182 1    
   119   58  183 1    
   120   59   60 am   BACKBONE|DICT|INTERRES
   121   59  184 1    
   122   60   61 2    
   123   60   62 1    
   124   62   63 1    
   125   62   64 1    
   126   62  185 1    
   127   63  186 1    
   128   63  187 1    
   129   63  188 1    
   130   64   65 am   BACKBONE|DICT|INTERRES
   131   64  189 1    
   132   65   66 2    
   133   67   68 2    
   134   67   69 am   BACKBONE|DICT|INTERRES
   135   69   70 1    
   136   69  190 1    
   137   70   71 1    
   138   70   72 1    
   139   70  191 1    
   140   71  192 1    
   141   71  193 1    
   142   71  194 1    
   143   72   73 2    
   144   72   74 am   BACKBONE|DICT|INTERRES
   145   74   75 1    
   146   74  195 1    
   147   75   76 1    
   148   75   77 1    
   149   75  196 1    
   150   76  197 1    
   151   76  198 1    
   152   76  199 1    
   153   77   78 2    
   154   77   79 am   BACKBONE|DICT|INTERRES
   155   79   80 1    
   156   79  200 1    
   157   80   81 1    
   158   80   82 1    
   159   80  201 1    
   160   81  202 1    
   161   81  203 1    
   162   81  204 1    
   163   82   83 2    
   164   82   84 am   BACKBONE|DICT|INTERRES
   165   84   85 1    
   166   84  205 1    
   167   85   86 1    
   168   85   87 1    
   169   85  206 1    
   170   86  207 1    
   171   86  208 1    
   172   86  209 1    
   173   87   88 2    
   174   87   89 am   BACKBONE|DICT|INTERRES
   175   89   90 1    
   176   89  210 1    
   177   90   91 1    
   178   90   92 1    
   179   90  211 1    
   180   91  212 1    
   181   91  213 1    
   182   91  214 1    
   183   92   93 2    
   184   92   94 am   BACKBONE|DICT|INTERRES
   185   94   95 1    
   186   94  215 1    
   187   95   96 1    
   188   95   97 1    
   189   95  216 1    
   190   96  217 1    
   191   96  218 1    
   192   96  219 1    
   193   97   98 2    
   194   97   99 am   BACKBONE|DICT|INTERRES
   195   99  100 1    
   196   99  220 1    
   197  100  101 1    
   198  100  102 1    
   199  100  221 1    
   200  101  222 1    
   201  101  223 1    
   202  101  224 1    
   203  102  103 2    
   204  102  104 am   BACKBONE|DICT|INTERRES
   205  104  105 1    
   206  104  225 1    
   207  105  106 1    
   208  105  107 1    
   209  105  226 1    
   210  106  227 1    
   211  106  228 1    
   212  106  229 1    
   213  107  108 2    
   214  107  109 am   BACKBONE|DICT|INTERRES
   215  109  110 1    
   216  109  230 1    
   217  110  111 1    
   218  110  112 1    
   219  110  231 1    
   220  111  232 1    
   221  111  233 1    
   222  111  234 1    
   223  112  113 2    
   224  112  114 am   BACKBONE|DICT|INTERRES
   225  114  115 1    
   226  114  235 1    
   227  115  116 1    
   228  115  117 1    
   229  115  236 1    
   230  116  237 1    
   231  116  238 1    
   232  116  239 1    
   233  117  118 2    
   234  117  119 am   BACKBONE|DICT|INTERRES
   235  119  120 1    
   236  119  240 1    
   237  120  121 1    
   238  120  124 1    
   239  120  241 1    
   240  121  122 am   BACKBONE|DICT|INTERRES
   241  121  123 2    
   242  122  242 1    
   243  122  243 1    
   244  124  125 1    
   245  124  244 1    
   246  124  245 1    
   247  125  126 1    
   248  126  246 1    
   249  126  247 1    
@<TRIPOS>SUBSTRUCTURE
     1 UNK         1 GROUP             0       ****    0 ROOT    
