@<TRIPOS>MOLECULE
3R540
247   249    1
SMALL
USER_CHARGES


@<TRIPOS>ATOM
      1 CA          2.3075  -12.1553  -50.3020 C.3       0 UNK        -0.1800 
      2 C           1.4369  -12.8905  -49.2938 C.2       0 UNK         0.5000 
      3 O           1.0188  -12.3016  -48.2977 O.2       0 UNK        -0.5000 
      4 N           1.1343  -14.1672  -49.5625 N.am      1 UNK        -0.5000 
      5 CA          0.3666  -15.0694  -48.6887 C.3       1 UNK         0.1400 
      6 C6          0.6123  -16.5554  -49.0479 C.3       23 UNK        -0.0398 
      7 S7          2.3156  -17.0634  -48.6401 S.3       23 UNK        -0.2404 
      8 C8          3.0703  -17.2223  -50.2959 C.3       23 UNK        -0.0205 
      9 C9          2.5674  -18.3911  -51.1453 C.ar      23 UNK        -0.0193 
     10 C10         2.7619  -18.3429  -52.5296 C.ar      23 UNK        -0.1150 
     11 C11         2.3572  -19.4008  -53.3479 C.ar      23 UNK        -0.0193 
     12 C12         1.7408  -20.5137  -52.7700 C.ar      23 UNK        -0.1150 
     13 C13         1.5273  -20.5802  -51.3898 C.ar      23 UNK        -0.0193 
     14 C14         1.9598  -19.5224  -50.5843 C.ar      23 UNK        -0.1150 
     15 C15         0.8691  -21.8139  -50.7782 C.3       23 UNK        -0.0205 
     16 S16        -0.7191  -21.4466  -49.9576 S.3       23 UNK        -0.2404 
     17 C17        -0.2110  -21.2879  -48.2109 C.3       23 UNK        -0.0398 
     18 CA         -0.4284  -22.5764  -47.3806 C.3       11 UNK         0.1400 
     19 N           0.3317  -22.5383  -46.1281 N.am      11 UNK        -0.5000 
     20 C           0.4700  -23.5631  -45.2753 C.2       10 UNK         0.5000 
     21 O          -0.0090  -24.6794  -45.4658 O.2       10 UNK        -0.5000 
     22 CA          1.2184  -23.2784  -43.9610 C.3       10 UNK         0.1400 
     23 CB          2.7373  -23.2415  -44.1853 C.3       10 UNK        -0.1800 
     24 N           0.7763  -22.0326  -43.3343 N.am      10 UNK        -0.5000 
     25 C          -0.4648  -21.8201  -42.8726 C.2       9 UNK         0.5000 
     26 O          -1.3444  -22.6823  -42.8573 O.2       9 UNK        -0.5000 
     27 CA         -0.7929  -20.3909  -42.4003 C.3       9 UNK         0.1400 
     28 CB         -0.2900  -20.1537  -40.9688 C.3       9 UNK        -0.1800 
     29 N          -0.2432  -19.3655  -43.2886 N.am      9 UNK        -0.5000 
     30 C          -0.5917  -19.2045  -44.5732 C.2       8 UNK         0.5000 
     31 O          -1.4543  -19.8728  -45.1382 O.2       8 UNK        -0.5000 
     32 CA          0.1941  -18.1618  -45.3812 C.3       8 UNK         0.1400 
     33 CB         -0.3483  -16.7501  -45.1281 C.3       8 UNK        -0.1800 
     34 N           1.6246  -18.2095  -45.0853 N.am      8 UNK        -0.5000 
     35 C           2.4299  -19.2239  -45.4313 C.2       7 UNK         0.5000 
     36 O           2.0514  -20.2134  -46.0560 O.2       7 UNK        -0.5000 
     37 CA          3.8915  -19.1399  -44.9577 C.3       7 UNK         0.1400 
     38 CB          4.7266  -18.2962  -45.9322 C.3       7 UNK        -0.1800 
     39 N           4.0092  -18.5855  -43.6085 N.am      7 UNK        -0.5000 
     40 C           3.5469  -19.1807  -42.4989 C.2       6 UNK         0.5000 
     41 O           3.0201  -20.2931  -42.4880 O.2       6 UNK        -0.5000 
     42 CA          3.6334  -18.3625  -41.1955 C.3       6 UNK         0.1400 
     43 CB          5.0066  -18.5420  -40.5318 C.3       6 UNK        -0.1800 
     44 N           3.3737  -16.9338  -41.4076 N.am      6 UNK        -0.5000 
     45 C           2.2069  -16.4424  -41.8437 C.2       5 UNK         0.5000 
     46 O           1.2150  -17.1431  -42.0668 O.2       5 UNK        -0.5000 
     47 CA          2.1555  -14.9370  -42.1404 C.3       5 UNK         0.1400 
     48 CB          2.9198  -14.6275  -43.4450 C.3       5 UNK        -0.1800 
     49 N           0.7542  -14.5536  -42.2718 N.am      5 UNK        -0.5000 
     50 C           0.2675  -13.3141  -42.3719 C.2       4 UNK         0.5000 
     51 O           0.9545  -12.2921  -42.3010 O.2       4 UNK        -0.5000 
     52 CA         -1.2565  -13.1987  -42.5693 C.3       4 UNK         0.1400 
     53 CB         -1.9432  -12.7601  -41.2667 C.3       4 UNK        -0.1800 
     54 N          -1.6000  -12.2569  -43.6362 N.am      4 UNK        -0.5000 
     55 C          -1.3068  -12.4414  -44.9297 C.2       3 UNK         0.5000 
     56 O          -0.7344  -13.4437  -45.3629 O.2       3 UNK        -0.5000 
     57 CA         -1.7064  -11.3092  -45.8924 C.3       3 UNK         0.1400 
     58 CB         -0.6330  -10.2097  -45.9044 C.3       3 UNK        -0.1800 
     59 N          -1.8498  -11.8410  -47.2455 N.am      3 UNK        -0.5000 
     60 C          -2.9923  -12.3107  -47.7675 C.2       2 UNK         0.5000 
     61 O          -4.0911  -12.1924  -47.2236 O.2       2 UNK        -0.5000 
     62 CA         -2.8939  -13.0566  -49.1163 C.3       2 UNK         0.1400 
     63 CB         -3.1663  -12.1014  -50.2880 C.3       2 UNK        -0.1800 
     64 N          -1.5855  -13.6817  -49.3062 N.am      2 UNK        -0.5000 
     65 C          -1.1430  -14.7389  -48.6109 C.2       1 UNK         0.5000 
     66 O          -1.8788  -15.4337  -47.9102 O.2       1 UNK        -0.5000 
     67 C          -1.9226  -22.8857  -47.1419 C.2       11 UNK         0.5000 
     68 O          -2.4881  -23.7179  -47.8500 O.2       11 UNK        -0.5000 
     69 N          -2.5267  -22.2613  -46.1202 N.am      12 UNK        -0.5000 
     70 CA         -3.9053  -22.4931  -45.6846 C.3       12 UNK         0.1400 
     71 CB         -4.2749  -21.5105  -44.5643 C.3       12 UNK        -0.1800 
     72 C          -4.1730  -23.9461  -45.2594 C.2       12 UNK         0.5000 
     73 O          -5.2210  -24.4904  -45.6071 O.2       12 UNK        -0.5000 
     74 N          -3.2118  -24.5520  -44.5528 N.am      13 UNK        -0.5000 
     75 CA         -3.2558  -25.9553  -44.1524 C.3       13 UNK         0.1400 
     76 CB         -2.2351  -26.1936  -43.0284 C.3       13 UNK        -0.1800 
     77 C          -3.0092  -26.9159  -45.3315 C.2       13 UNK         0.5000 
     78 O          -3.7367  -27.8997  -45.4732 O.2       13 UNK        -0.5000 
     79 N          -1.9739  -26.6343  -46.1331 N.am      14 UNK        -0.5000 
     80 CA         -1.4707  -27.5382  -47.1659 C.3       14 UNK         0.1400 
     81 CB          0.0074  -27.2178  -47.4405 C.3       14 UNK        -0.1800 
     82 C          -2.2675  -27.5058  -48.4805 C.2       14 UNK         0.5000 
     83 O          -2.5149  -28.5689  -49.0522 O.2       14 UNK        -0.5000 
     84 N          -2.6012  -26.3032  -48.9658 N.am      15 UNK        -0.5000 
     85 CA         -3.0617  -26.0755  -50.3395 C.3       15 UNK         0.1400 
     86 CB         -1.9375  -25.3574  -51.1049 C.3       15 UNK        -0.1800 
     87 C          -4.3746  -25.2785  -50.4362 C.2       15 UNK         0.5000 
     88 O          -4.9584  -25.2465  -51.5191 O.2       15 UNK        -0.5000 
     89 N          -4.8123  -24.6666  -49.3264 N.am      16 UNK        -0.5000 
     90 CA         -5.9444  -23.7451  -49.1923 C.3       16 UNK         0.1400 
     91 CB         -7.2710  -24.3520  -49.6957 C.3       16 UNK        -0.1800 
     92 C          -5.6230  -22.3839  -49.8367 C.2       16 UNK         0.5000 
     93 O          -5.9892  -22.1224  -50.9856 O.2       16 UNK        -0.5000 
     94 N          -4.9378  -21.5331  -49.0588 N.am      17 UNK        -0.5000 
     95 CA         -4.4703  -20.1810  -49.3911 C.3       17 UNK         0.1400 
     96 CB         -3.8759  -19.5360  -48.1294 C.3       17 UNK        -0.1800 
     97 C          -5.5267  -19.2417  -50.0034 C.2       17 UNK         0.5000 
     98 O          -5.1600  -18.3569  -50.7729 O.2       17 UNK        -0.5000 
     99 N          -6.8139  -19.4798  -49.7111 N.am      18 UNK        -0.5000 
    100 CA        -7.9634  -18.8024  -50.3207 C.3       18 UNK         0.1400 
    101 CB        -9.2555  -19.3984  -49.7417 C.3       18 UNK        -0.1800 
    102 C         -7.9856  -18.8635  -51.8645 C.2       18 UNK         0.5000 
    103 O         -8.5115  -17.9442  -52.4938 O.2       18 UNK        -0.5000 
    104 N         -7.3882  -19.9175  -52.4368 N.am      19 UNK        -0.5000 
    105 CA        -7.1002  -20.0407  -53.8635 C.3       19 UNK         0.1400 
    106 CB        -7.7849  -21.3065  -54.4028 C.3       19 UNK        -0.1800 
    107 C         -5.5841  -20.1001  -54.1282 C.2       19 UNK         0.5000 
    108 O         -5.1247  -19.5492  -55.1292 O.2       19 UNK        -0.5000 
    109 N         -4.8343  -20.7880  -53.2559 N.am      20 UNK        -0.5000 
    110 CA        -3.4498  -21.1894  -53.5064 C.3       20 UNK         0.1400 
    111 CB        -3.1544  -22.4598  -52.6972 C.3       20 UNK        -0.1800 
    112 C         -2.3723  -20.1253  -53.2295 C.2       20 UNK         0.5000 
    113 O         -1.2282  -20.3722  -53.5983 O.2       20 UNK        -0.5000 
    114 N         -2.7110  -18.9914  -52.5951 N.am      21 UNK        -0.5000 
    115 CA        -1.7514  -17.9788  -52.1186 C.3       21 UNK         0.1400 
    116 CB        -2.4886  -16.9510  -51.2453 C.3       21 UNK        -0.1800 
    117 C         -0.9203  -17.2404  -53.1911 C.2       21 UNK         0.5000 
    118 O         -0.0137  -16.4922  -52.8216 O.2       21 UNK        -0.5000 
    119 N         -1.2493  -17.4207  -54.4764 N.am      22 UNK        -0.5000 
    120 CA        -0.5492  -16.8384  -55.6374 C.3       22 UNK         0.1400 
    121 C         -0.7261  -15.2963  -55.8013 C.2       22 UNK         0.5000 
    122 N         -1.6748  -14.6613  -55.1234 N.am      22 UNK        -0.7600 
    123 O         -0.0192  -14.6647  -56.5825 O.2       22 UNK        -0.5000 
    124 C124        0.9421  -17.2781  -55.7429 C.3       23 UNK        -0.0398 
    125 S125        1.1435  -19.0899  -55.8499 S.3       23 UNK        -0.2404 
    126 C126        2.6373  -19.3735  -54.8457 C.3       23 UNK        -0.0205 
    127 H127        3.2229  -11.8082  -49.8227 H         1 UNK         0.0600 
    128 H128        1.7768  -11.2879  -50.6943 H         1 UNK         0.0600 
    129 H129        2.5841  -12.7940  -51.1413 H         1 UNK         0.0600 
    130 H130        1.4785  -14.5835  -50.4157 H         1 UNK         0.3000 
    131 H131        0.7356  -14.9128  -47.6729 H         1 UNK         0.0600 
    132 H132       -0.0560  -17.2144  -48.4922 H         1 UNK         0.0800 
    133 H133        0.4054  -16.7400  -50.1024 H         1 UNK         0.0800 
    134 H134        4.1469  -17.3385  -50.1666 H         1 UNK         0.0800 
    135 H135        2.9251  -16.2855  -50.8352 H         1 UNK         0.0800 
    136 H136        3.2447  -17.4825  -52.9710 H         1 UNK         0.1150 
    137 H137        1.4230  -21.3297  -53.4036 H         1 UNK         0.1150 
    138 H138        1.8241  -19.5857  -49.5169 H         1 UNK         0.1150 
    139 H139        1.5588  -22.2890  -50.0795 H         1 UNK         0.0800 
    140 H140        0.6729  -22.5552  -51.5542 H         1 UNK         0.0800 
    141 H141       -0.7277  -20.4385  -47.7641 H         1 UNK         0.0800 
    142 H142        0.8452  -21.0269  -48.1896 H         1 UNK         0.0800 
    143 H143       -0.0218  -23.4112  -47.9557 H         1 UNK         0.0600 
    144 H144        0.7998  -21.6619  -45.9139 H         1 UNK         0.3000 
    145 H145        0.9988  -24.0955  -43.2707 H         1 UNK         0.0600 
    146 H146        3.2703  -23.1064  -43.2440 H         1 UNK         0.0600 
    147 H147        3.0885  -24.1743  -44.6279 H         1 UNK         0.0600 
    148 H148        3.0296  -22.4309  -44.8525 H         1 UNK         0.0600 
    149 H149        1.4631  -21.2890  -43.2572 H         1 UNK         0.3000 
    150 H150       -1.8793  -20.2821  -42.4010 H         1 UNK         0.0600 
    151 H151       -0.7224  -20.8791  -40.2787 H         1 UNK         0.0600 
    152 H152       -0.5660  -19.1605  -40.6139 H         1 UNK         0.0600 
    153 H153        0.7943  -20.2423  -40.9015 H         1 UNK         0.0600 
    154 H154        0.4445  -18.7343  -42.8887 H         1 UNK         0.3000 
    155 H155        0.0633  -18.3909  -46.4401 H         1 UNK         0.0600 
    156 H156       -0.3433  -16.4914  -44.0710 H         1 UNK         0.0600 
    157 H157        0.2376  -16.0002  -45.6572 H         1 UNK         0.0600 
    158 H158       -1.3781  -16.6633  -45.4759 H         1 UNK         0.0600 
    159 H159        2.0010  -17.4570  -44.5308 H         1 UNK         0.3000 
    160 H160        4.2978  -20.1534  -44.9461 H         1 UNK         0.0600 
    161 H161        4.6662  -18.6977  -46.9449 H         1 UNK         0.0600 
    162 H162        4.3814  -17.2621  -45.9704 H         1 UNK         0.0600 
    163 H163        5.7789  -18.2899  -45.6480 H         1 UNK         0.0600 
    164 H164        4.4347  -17.6745  -43.5245 H         1 UNK         0.3000 
    165 H165        2.8718  -18.7460  -40.5132 H         1 UNK         0.0600 
    166 H166        5.0491  -18.0312  -39.5696 H         1 UNK         0.0600 
    167 H167        5.2156  -19.5968  -40.3478 H         1 UNK         0.0600 
    168 H168        5.8116  -18.1517  -41.1557 H         1 UNK         0.0600 
    169 H169        4.1455  -16.3035  -41.2425 H         1 UNK         0.3000 
    170 H170        2.6003  -14.3959  -41.3032 H         1 UNK         0.0600 
    171 H171        3.9582  -14.9552  -43.3859 H         1 UNK         0.0600 
    172 H172        2.4653  -15.1229  -44.3040 H         1 UNK         0.0600 
    173 H173        2.9384  -13.5580  -43.6539 H         1 UNK         0.0600 
    174 H174        0.1284  -15.3498  -42.2923 H         1 UNK         0.3000 
    175 H175       -1.6513  -14.1778  -42.8501 H         1 UNK         0.0600 
    176 H176       -1.6093  -11.7716  -40.9486 H         1 UNK         0.0600 
    177 H177       -3.0267  -12.7285  -41.3821 H         1 UNK         0.0600 
    178 H178       -1.7236  -13.4569  -40.4566 H         1 UNK         0.0600 
    179 H179       -2.0344  -11.3925  -43.3483 H         1 UNK         0.3000 
    180 H180       -2.6503  -10.8737  -45.5579 H         1 UNK         0.0600 
    181 H181        0.3409  -10.6012  -46.2015 H         1 UNK         0.0600 
    182 H182       -0.5183   -9.7629  -44.9160 H         1 UNK         0.0600 
    183 H183       -0.8967   -9.4087  -46.5951 H         1 UNK         0.0600 
    184 H184       -0.9769  -12.0478  -47.7192 H         1 UNK         0.3000 
    185 H185       -3.6569  -13.8380  -49.1248 H         1 UNK         0.0600 
    186 H186       -3.1520  -12.6318  -51.2404 H         1 UNK         0.0600 
    187 H187       -4.1477  -11.6355  -50.1906 H         1 UNK         0.0600 
    188 H188       -2.4261  -11.3017  -50.3364 H         1 UNK         0.0600 
    189 H189       -0.9175  -13.1749  -49.8678 H         1 UNK         0.3000 
    190 H190       -2.0126  -21.5414  -45.6157 H         1 UNK         0.3000 
    191 H191       -4.5591  -22.2824  -46.5283 H         1 UNK         0.0600 
    192 H192       -3.6474  -21.6459  -43.6842 H         1 UNK         0.0600 
    193 H193       -5.3109  -21.6464  -44.2516 H         1 UNK         0.0600 
    194 H194       -4.1686  -20.4772  -44.8946 H         1 UNK         0.0600 
    195 H195       -2.3911  -24.0207  -44.2857 H         1 UNK         0.3000 
    196 H196       -4.2493  -26.1676  -43.7514 H         1 UNK         0.0600 
    197 H197       -2.2577  -27.2313  -42.6935 H         1 UNK         0.0600 
    198 H198       -2.4505  -25.5667  -42.1628 H         1 UNK         0.0600 
    199 H199       -1.2171  -25.9742  -43.3518 H         1 UNK         0.0600 
    200 H200       -1.3982  -25.8210  -45.9255 H         1 UNK         0.3000 
    201 H201       -1.5165  -28.5590  -46.7798 H         1 UNK         0.0600 
    202 H202        0.6070  -27.3182  -46.5356 H         1 UNK         0.0600 
    203 H203        0.1365  -26.2015  -47.8155 H         1 UNK         0.0600 
    204 H204        0.4248  -27.8979  -48.1842 H         1 UNK         0.0600 
    205 H205       -2.3907  -25.4689  -48.4231 H         1 UNK         0.3000 
    206 H206       -3.2513  -27.0260  -50.8419 H         1 UNK         0.0600 
    207 H207       -1.0129  -25.9342  -51.0824 H         1 UNK         0.0600 
    208 H208       -2.2045  -25.2181  -52.1527 H         1 UNK         0.0600 
    209 H209       -1.7291  -24.3743  -50.6805 H         1 UNK         0.0600 
    210 H210       -4.2035  -24.7140  -48.5186 H         1 UNK         0.3000 
    211 H211       -6.0688  -23.5788  -48.1216 H         1 UNK         0.0600 
    212 H212       -7.2871  -24.4851  -50.7774 H         1 UNK         0.0600 
    213 H213       -8.1092  -23.7018  -49.4434 H         1 UNK         0.0600 
    214 H214       -7.4607  -25.3213  -49.2348 H         1 UNK         0.0600 
    215 H215       -4.6482  -21.8682  -48.1543 H         1 UNK         0.3000 
    216 H216       -3.6721  -20.2896  -50.1271 H         1 UNK         0.0600 
    217 H217       -3.5235  -18.5231  -48.3275 H         1 UNK         0.0600 
    218 H218       -3.0228  -20.0997  -47.7602 H         1 UNK         0.0600 
    219 H219       -4.6096  -19.4738  -47.3250 H         1 UNK         0.0600 
    220 H220       -7.0239  -20.2317  -49.0725 H         1 UNK         0.3000 
    221 H221       -7.9107  -17.7495  -50.0369 H         1 UNK         0.0600 
    222 H222       -9.3426  -20.4622  -49.9668 H         1 UNK         0.0600 
    223 H223       -9.2961  -19.2784  -48.6590 H         1 UNK         0.0600 
    224 H224      -10.1345  -18.9022  -50.1553 H         1 UNK         0.0600 
    225 H225       -6.9944  -20.6322  -51.8335 H         1 UNK         0.3000 
    226 H226       -7.4913  -19.1824  -54.4136 H         1 UNK         0.0600 
    227 H227       -8.8666  -21.2493  -54.2808 H         1 UNK         0.0600 
    228 H228       -7.5836  -21.4378  -55.4667 H         1 UNK         0.0600 
    229 H229       -7.4373  -22.2032  -53.8876 H         1 UNK         0.0600 
    230 H230       -5.2837  -21.2371  -52.4628 H         1 UNK         0.3000 
    231 H231       -3.3593  -21.4527  -54.5626 H         1 UNK         0.0600 
    232 H232       -2.1499  -22.8319  -52.9024 H         1 UNK         0.0600 
    233 H233       -3.8526  -23.2566  -52.9515 H         1 UNK         0.0600 
    234 H234       -3.2208  -22.2813  -51.6244 H         1 UNK         0.0600 
    235 H235       -3.6778  -18.8531  -52.3266 H         1 UNK         0.3000 
    236 H236       -1.0258  -18.4954  -51.4864 H         1 UNK         0.0600 
    237 H237       -2.7886  -17.3872  -50.2940 H         1 UNK         0.0600 
    238 H238       -1.8590  -16.0940  -51.0112 H         1 UNK         0.0600 
    239 H239       -3.3782  -16.5638  -51.7427 H         1 UNK         0.0600 
    240 H240       -2.0056  -18.0552  -54.6862 H         1 UNK         0.3000 
    241 H241       -1.0597  -17.2532  -56.5070 H         1 UNK         0.0600 
    242 H242       -1.7915  -13.6677  -55.2446 H         1 UNK         0.3800 
    243 H243       -2.2697  -15.1644  -54.4855 H         1 UNK         0.3800 
    244 H244        1.4032  -16.8577  -56.6378 H         1 UNK         0.0800 
    245 H245        1.5164  -16.8901  -54.9013 H         1 UNK         0.0800 
    246 H246        3.0700  -20.3316  -55.1369 H         1 UNK         0.0800 
    247 H247        3.3885  -18.6204  -55.0884 H         1 UNK         0.0800 
@<TRIPOS>BOND
     1    1    2 1    
     2    1  127 1    
     3    1  128 1    
     4    1  129 1    
     5    2    3 2    
     6    2    4 am   BACKBONE|DICT|INTERRES
     7    4    5 1    
     8    4  130 1    
     9    5    6 1    
    10    5   65 1    
    11    5  131 1    
    12    6    7 1    
    13    6  132 1    
    14    6  133 1    
    15    7    8 1    
    16    8    9 1    
    17    8  134 1    
    18    8  135 1    
    19    9   10 ar   
    20    9   14 ar   
    21   10   11 ar   
    22   10  136 1    
    23   11   12 ar   
    24   11  126 1    
    25   12   13 ar   
    26   12  137 1    
    27   13   14 ar   
    28   13   15 1    
    29   14  138 1    
    30   15   16 1    
    31   15  139 1    
    32   15  140 1    
    33   16   17 1    
    34   17   18 1    
    35   17  141 1    
    36   17  142 1    
    37   18   19 1    
    38   18   67 1    
    39   18  143 1    
    40   19   20 am   BACKBONE|DICT|INTERRES
    41   19  144 1    
    42   20   21 2    
    43   20   22 1    
    44   22   23 1    
    45   22   24 1    
    46   22  145 1    
    47   23  146 1    
    48   23  147 1    
    49   23  148 1    
    50   24   25 am   BACKBONE|DICT|INTERRES
    51   24  149 1    
    52   25   26 2    
    53   25   27 1    
    54   27   28 1    
    55   27   29 1    
    56   27  150 1    
    57   28  151 1    
    58   28  152 1    
    59   28  153 1    
    60   29   30 am   BACKBONE|DICT|INTERRES
    61   29  154 1    
    62   30   31 2    
    63   30   32 1    
    64   32   33 1    
    65   32   34 1    
    66   32  155 1    
    67   33  156 1    
    68   33  157 1    
    69   33  158 1    
    70   34   35 am   BACKBONE|DICT|INTERRES
    71   34  159 1    
    72   35   36 2    
    73   35   37 1    
    74   37   38 1    
    75   37   39 1    
    76   37  160 1    
    77   38  161 1    
    78   38  162 1    
    79   38  163 1    
    80   39   40 am   BACKBONE|DICT|INTERRES
    81   39  164 1    
    82   40   41 2    
    83   40   42 1    
    84   42   43 1    
    85   42   44 1    
    86   42  165 1    
    87   43  166 1    
    88   43  167 1    
    89   43  168 1    
    90   44   45 am   BACKBONE|DICT|INTERRES
    91   44  169 1    
    92   45   46 2    
    93   45   47 1    
    94   47   48 1    
    95   47   49 1    
    96   47  170 1    
    97   48  171 1    
    98   48  172 1    
    99   48  173 1    
   100   49   50 am   BACKBONE|DICT|INTERRES
   101   49  174 1    
   102   50   51 2    
   103   50   52 1    
   104   52   53 1    
   105   52   54 1    
   106   52  175 1    
   107   53  176 1    
   108   53  177 1    
   109   53  178 1    
   110   54   55 am   BACKBONE|DICT|INTERRES
   111   54  179 1    
   112   55   56 2    
   113   55   57 1    
   114   57   58 1    
   115   57   59 1    
   116   57  180 1    
   117   58  181 1    
   118   58  182 1    
   119   58  183 1    
   120   59   60 am   BACKBONE|DICT|INTERRES
   121   59  184 1    
   122   60   61 2    
   123   60   62 1    
   124   62   63 1    
   125   62   64 1    
   126   62  185 1    
   127   63  186 1    
   128   63  187 1    
   129   63  188 1    
   130   64   65 am   BACKBONE|DICT|INTERRES
   131   64  189 1    
   132   65   66 2    
   133   67   68 2    
   134   67   69 am   BACKBONE|DICT|INTERRES
   135   69   70 1    
   136   69  190 1    
   137   70   71 1    
   138   70   72 1    
   139   70  191 1    
   140   71  192 1    
   141   71  193 1    
   142   71  194 1    
   143   72   73 2    
   144   72   74 am   BACKBONE|DICT|INTERRES
   145   74   75 1    
   146   74  195 1    
   147   75   76 1    
   148   75   77 1    
   149   75  196 1    
   150   76  197 1    
   151   76  198 1    
   152   76  199 1    
   153   77   78 2    
   154   77   79 am   BACKBONE|DICT|INTERRES
   155   79   80 1    
   156   79  200 1    
   157   80   81 1    
   158   80   82 1    
   159   80  201 1    
   160   81  202 1    
   161   81  203 1    
   162   81  204 1    
   163   82   83 2    
   164   82   84 am   BACKBONE|DICT|INTERRES
   165   84   85 1    
   166   84  205 1    
   167   85   86 1    
   168   85   87 1    
   169   85  206 1    
   170   86  207 1    
   171   86  208 1    
   172   86  209 1    
   173   87   88 2    
   174   87   89 am   BACKBONE|DICT|INTERRES
   175   89   90 1    
   176   89  210 1    
   177   90   91 1    
   178   90   92 1    
   179   90  211 1    
   180   91  212 1    
   181   91  213 1    
   182   91  214 1    
   183   92   93 2    
   184   92   94 am   BACKBONE|DICT|INTERRES
   185   94   95 1    
   186   94  215 1    
   187   95   96 1    
   188   95   97 1    
   189   95  216 1    
   190   96  217 1    
   191   96  218 1    
   192   96  219 1    
   193   97   98 2    
   194   97   99 am   BACKBONE|DICT|INTERRES
   195   99  100 1    
   196   99  220 1    
   197  100  101 1    
   198  100  102 1    
   199  100  221 1    
   200  101  222 1    
   201  101  223 1    
   202  101  224 1    
   203  102  103 2    
   204  102  104 am   BACKBONE|DICT|INTERRES
   205  104  105 1    
   206  104  225 1    
   207  105  106 1    
   208  105  107 1    
   209  105  226 1    
   210  106  227 1    
   211  106  228 1    
   212  106  229 1    
   213  107  108 2    
   214  107  109 am   BACKBONE|DICT|INTERRES
   215  109  110 1    
   216  109  230 1    
   217  110  111 1    
   218  110  112 1    
   219  110  231 1    
   220  111  232 1    
   221  111  233 1    
   222  111  234 1    
   223  112  113 2    
   224  112  114 am   BACKBONE|DICT|INTERRES
   225  114  115 1    
   226  114  235 1    
   227  115  116 1    
   228  115  117 1    
   229  115  236 1    
   230  116  237 1    
   231  116  238 1    
   232  116  239 1    
   233  117  118 2    
   234  117  119 am   BACKBONE|DICT|INTERRES
   235  119  120 1    
   236  119  240 1    
   237  120  121 1    
   238  120  124 1    
   239  120  241 1    
   240  121  122 am   BACKBONE|DICT|INTERRES
   241  121  123 2    
   242  122  242 1    
   243  122  243 1    
   244  124  125 1    
   245  124  244 1    
   246  124  245 1    
   247  125  126 1    
   248  126  246 1    
   249  126  247 1    
@<TRIPOS>SUBSTRUCTURE
     1 UNK         1 GROUP             0       ****    0 ROOT    
