@<TRIPOS>MOLECULE
3R540
247   249    1
SMALL
USER_CHARGES


@<TRIPOS>ATOM
      1 CA         -4.7793  -16.4503  -41.9033 C.3       0 UNK        -0.1800 
      2 C          -4.6178  -14.9385  -41.9817 C.2       0 UNK         0.5000 
      3 O          -4.7424  -14.2529  -40.9664 O.2       0 UNK        -0.5000 
      4 N          -4.3541  -14.4189  -43.1856 N.am      1 UNK        -0.5000 
      5 CA         -4.0828  -13.0054  -43.4608 C.3       1 UNK         0.1400 
      6 C6         -4.2034  -12.6882  -44.9758 C.3       23 UNK        -0.0398 
      7 S7         -3.1889  -13.7691  -46.0428 S.3       23 UNK        -0.2404 
      8 C8         -3.3843  -12.9670  -47.6675 C.3       23 UNK        -0.0205 
      9 C9         -2.6435  -13.7420  -48.7480 C.ar      23 UNK        -0.0193 
     10 C10        -3.3280  -14.2870  -49.8393 C.ar      23 UNK        -0.1150 
     11 C11        -2.6456  -15.0507  -50.7926 C.ar      23 UNK        -0.0193 
     12 C12        -1.2742  -15.2791  -50.6424 C.ar      23 UNK        -0.1150 
     13 C13        -0.5876  -14.7579  -49.5444 C.ar      23 UNK        -0.0193 
     14 C14        -1.2680  -13.9522  -48.6294 C.ar      23 UNK        -0.1150 
     15 C15         0.8702  -15.1159  -49.3008 C.3       23 UNK        -0.0205 
     16 S16         1.0891  -16.8227  -48.6714 S.3       23 UNK        -0.2404 
     17 C17        -0.3013  -17.0803  -47.5064 C.3       23 UNK        -0.0398 
     18 CA         -1.3877  -18.0017  -48.1099 C.3       11 UNK         0.1400 
     19 N          -0.9240  -19.3902  -48.2096 N.am      11 UNK        -0.5000 
     20 C          -1.5818  -20.3732  -48.8376 C.2       10 UNK         0.5000 
     21 O          -2.6430  -20.2151  -49.4362 O.2       10 UNK        -0.5000 
     22 CA         -0.9892  -21.7848  -48.7240 C.3       10 UNK         0.1400 
     23 CB          0.1816  -21.9799  -49.6952 C.3       10 UNK        -0.1800 
     24 N          -0.5565  -22.0779  -47.3600 N.am      10 UNK        -0.5000 
     25 C          -1.3962  -22.2879  -46.3373 C.2       9 UNK         0.5000 
     26 O          -2.6204  -22.2836  -46.4472 O.2       9 UNK        -0.5000 
     27 CA         -0.7658  -22.5014  -44.9509 C.3       9 UNK         0.1400 
     28 CB         -0.3947  -23.9785  -44.7530 C.3       9 UNK        -0.1800 
     29 N           0.4128  -21.6618  -44.7291 N.am      9 UNK        -0.5000 
     30 C           0.3821  -20.3231  -44.6613 C.2       8 UNK         0.5000 
     31 O          -0.6445  -19.6540  -44.7629 O.2       8 UNK        -0.5000 
     32 CA          1.7325  -19.6067  -44.5097 C.3       8 UNK         0.1400 
     33 CB          2.1637  -19.5624  -43.0368 C.3       8 UNK        -0.1800 
     34 N           2.8059  -20.1899  -45.3149 N.am      8 UNK        -0.5000 
     35 C           2.7999  -20.3118  -46.6488 C.2       7 UNK         0.5000 
     36 O           1.8131  -20.0721  -47.3466 O.2       7 UNK        -0.5000 
     37 CA          4.1369  -20.7285  -47.2982 C.3       7 UNK         0.1400 
     38 CB          4.0457  -20.8241  -48.8321 C.3       7 UNK        -0.1800 
     39 N           5.1882  -19.7724  -46.9466 N.am      7 UNK        -0.5000 
     40 C           5.8712  -19.7536  -45.7930 C.2       6 UNK         0.5000 
     41 O           5.7842  -20.6351  -44.9372 O.2       6 UNK        -0.5000 
     42 CA          6.7322  -18.5040  -45.5177 C.3       6 UNK         0.1400 
     43 CB          8.1594  -18.7025  -46.0496 C.3       6 UNK        -0.1800 
     44 N           6.1666  -17.2776  -46.0922 N.am      6 UNK        -0.5000 
     45 C           4.9786  -16.7497  -45.7601 C.2       5 UNK         0.5000 
     46 O           4.2587  -17.2097  -44.8710 O.2       5 UNK        -0.5000 
     47 CA          4.5207  -15.5250  -46.5787 C.3       5 UNK         0.1400 
     48 CB          4.7228  -15.7373  -48.0918 C.3       5 UNK        -0.1800 
     49 N           3.1065  -15.2367  -46.3527 N.am      5 UNK        -0.5000 
     50 C           2.6140  -14.4733  -45.3713 C.2       4 UNK         0.5000 
     51 O           3.3028  -13.8915  -44.5295 O.2       4 UNK        -0.5000 
     52 CA          1.0783  -14.3461  -45.3363 C.3       4 UNK         0.1400 
     53 CB          0.4695  -15.2934  -44.2919 C.3       4 UNK        -0.1800 
     54 N           0.6105  -12.9802  -45.0957 N.am      4 UNK        -0.5000 
     55 C           0.9007  -11.9202  -45.8668 C.2       3 UNK         0.5000 
     56 O           1.5776  -12.0000  -46.8931 O.2       3 UNK        -0.5000 
     57 CA          0.3225  -10.5454  -45.4659 C.3       3 UNK         0.1400 
     58 CB         -0.4214   -9.8947  -46.6447 C.3       3 UNK        -0.1800 
     59 N          -0.5908  -10.6027  -44.3246 N.am      3 UNK        -0.5000 
     60 C          -0.2332  -10.5742  -43.0344 C.2       2 UNK         0.5000 
     61 O           0.9327  -10.4818  -42.6503 O.2       2 UNK        -0.5000 
     62 CA         -1.3723  -10.6769  -41.9981 C.3       2 UNK         0.1400 
     63 CB         -1.7079   -9.2890  -41.4308 C.3       2 UNK        -0.1800 
     64 N          -2.5999  -11.2832  -42.5285 N.am      2 UNK        -0.5000 
     65 C          -2.7148  -12.5689  -42.8887 C.2       1 UNK         0.5000 
     66 O          -1.7842  -13.3749  -42.8155 O.2       1 UNK        -0.5000 
     67 C          -2.7226  -17.8851  -47.3379 C.2       11 UNK         0.5000 
     68 O          -3.5979  -17.1223  -47.7436 O.2       11 UNK        -0.5000 
     69 N          -2.8817  -18.6779  -46.2687 N.am      12 UNK        -0.5000 
     70 CA         -4.1265  -18.8077  -45.5067 C.3       12 UNK         0.1400 
     71 CB         -3.8066  -19.4428  -44.1439 C.3       12 UNK        -0.1800 
     72 C          -5.2173  -19.6266  -46.2308 C.2       12 UNK         0.5000 
     73 O          -6.3671  -19.6060  -45.7897 O.2       12 UNK        -0.5000 
     74 N          -4.8393  -20.3441  -47.2997 N.am      13 UNK        -0.5000 
     75 CA         -5.6429  -21.2849  -48.0866 C.3       13 UNK         0.1400 
     76 CB         -6.7511  -20.5444  -48.8633 C.3       13 UNK        -0.1800 
     77 C          -6.1668  -22.4767  -47.2549 C.2       13 UNK         0.5000 
     78 O          -7.2746  -22.9636  -47.4893 O.2       13 UNK        -0.5000 
     79 N          -5.3530  -22.9254  -46.2936 N.am      14 UNK        -0.5000 
     80 CA         -5.6226  -24.0563  -45.4142 C.3       14 UNK         0.1400 
     81 CB         -4.8632  -23.8369  -44.0964 C.3       14 UNK        -0.1800 
     82 C          -5.1746  -25.3697  -46.0736 C.2       14 UNK         0.5000 
     83 O          -4.2359  -25.3667  -46.8725 O.2       14 UNK        -0.5000 
     84 N          -5.8452  -26.4742  -45.7140 N.am      15 UNK        -0.5000 
     85 CA         -5.5243  -27.8655  -46.0765 C.3       15 UNK         0.1400 
     86 CB         -4.2441  -28.3107  -45.3384 C.3       15 UNK        -0.1800 
     87 C          -5.4421  -28.1449  -47.5964 C.2       15 UNK         0.5000 
     88 O          -4.7727  -29.0941  -48.0076 O.2       15 UNK        -0.5000 
     89 N          -6.1056  -27.2994  -48.4003 N.am      16 UNK        -0.5000 
     90 CA         -6.0651  -27.2451  -49.8667 C.3       16 UNK         0.1400 
     91 CB         -6.6896  -28.5130  -50.4861 C.3       16 UNK        -0.1800 
     92 C          -4.6641  -26.9254  -50.4417 C.2       16 UNK         0.5000 
     93 O          -4.3968  -27.2354  -51.6037 O.2       16 UNK        -0.5000 
     94 N          -3.7984  -26.2821  -49.6422 N.am      17 UNK        -0.5000 
     95 CA         -2.4337  -25.9009  -50.0206 C.3       17 UNK         0.1400 
     96 CB         -1.6023  -25.6852  -48.7450 C.3       17 UNK        -0.1800 
     97 C          -2.3689  -24.6490  -50.9171 C.2       17 UNK         0.5000 
     98 O          -1.2839  -24.3073  -51.3863 O.2       17 UNK        -0.5000 
     99 N          -3.5145  -23.9828  -51.1315 N.am      18 UNK        -0.5000 
    100 CA        -3.6835  -22.7080  -51.8383 C.3       18 UNK         0.1400 
    101 CB        -5.1825  -22.3990  -51.9600 C.3       18 UNK        -0.1800 
    102 C         -3.0173  -22.6221  -53.2226 C.2       18 UNK         0.5000 
    103 O         -2.5668  -21.5443  -53.6079 O.2       18 UNK        -0.5000 
    104 N         -2.9162  -23.7551  -53.9290 N.am      19 UNK        -0.5000 
    105 CA        -2.2380  -23.8874  -55.2210 C.3       19 UNK         0.1400 
    106 CB        -2.4201  -25.3261  -55.7275 C.3       19 UNK        -0.1800 
    107 C         -0.7399  -23.5102  -55.1996 C.2       19 UNK         0.5000 
    108 O         -0.1957  -23.1620  -56.2478 O.2       19 UNK        -0.5000 
    109 N         -0.1028  -23.5711  -54.0214 N.am      20 UNK        -0.5000 
    110 CA         1.3031  -23.2227  -53.8203 C.3       20 UNK         0.1400 
    111 CB         1.8463  -24.0248  -52.6267 C.3       20 UNK        -0.1800 
    112 C          1.5535  -21.7115  -53.6275 C.2       20 UNK         0.5000 
    113 O          2.7199  -21.3153  -53.5971 O.2       20 UNK        -0.5000 
    114 N          0.4975  -20.8938  -53.4957 N.am      21 UNK        -0.5000 
    115 CA         0.6079  -19.4464  -53.3042 C.3       21 UNK         0.1400 
    116 CB         0.5110  -19.0948  -51.8076 C.3       21 UNK        -0.1800 
    117 C         -0.4394  -18.7024  -54.1423 C.2       21 UNK         0.5000 
    118 O         -0.0808  -18.0498  -55.1235 O.2       21 UNK        -0.5000 
    119 N         -1.7077  -18.7966  -53.7309 N.am      22 UNK        -0.5000 
    120 CA        -2.8482  -18.1037  -54.3498 C.3       22 UNK         0.1400 
    121 C         -3.2889  -18.7019  -55.7145 C.2       22 UNK         0.5000 
    122 N         -3.1000  -19.9941  -55.9465 N.am      22 UNK        -0.7600 
    123 O         -3.8038  -17.9852  -56.5683 O.2       22 UNK        -0.5000 
    124 C124       -4.0651  -18.0036  -53.3905 C.3       23 UNK        -0.0398 
    125 S125       -3.6373  -17.4469  -51.7054 S.3       23 UNK        -0.2404 
    126 C126       -3.3846  -15.6654  -51.9686 C.3       23 UNK        -0.0205 
    127 H127       -5.7091  -16.7048  -41.3947 H         1 UNK         0.0600 
    128 H128       -3.9518  -16.8882  -41.3451 H         1 UNK         0.0600 
    129 H129       -4.8016  -16.9042  -42.8938 H         1 UNK         0.0600 
    130 H130       -4.2220  -15.0335  -43.9759 H         1 UNK         0.3000 
    131 H131       -4.8490  -12.4236  -42.9438 H         1 UNK         0.0600 
    132 H132       -3.9513  -11.6455  -45.1762 H         1 UNK         0.0800 
    133 H133       -5.2437  -12.8028  -45.2834 H         1 UNK         0.0800 
    134 H134       -3.0015  -11.9475  -47.6266 H         1 UNK         0.0800 
    135 H135       -4.4470  -12.8957  -47.9041 H         1 UNK         0.0800 
    136 H136       -4.3939  -14.1367  -49.9360 H         1 UNK         0.1150 
    137 H137       -0.7532  -15.9034  -51.3546 H         1 UNK         0.1150 
    138 H138       -0.7434  -13.5407  -47.7802 H         1 UNK         0.1150 
    139 H139        1.4280  -15.0134  -50.2326 H         1 UNK         0.0800 
    140 H140        1.3238  -14.4093  -48.6048 H         1 UNK         0.0800 
    141 H141       -0.7274  -16.1234  -47.2120 H         1 UNK         0.0800 
    142 H142        0.0948  -17.5176  -46.5891 H         1 UNK         0.0800 
    143 H143       -1.5960  -17.6624  -49.1266 H         1 UNK         0.0600 
    144 H144       -0.0255  -19.6016  -47.7836 H         1 UNK         0.3000 
    145 H145       -1.7723  -22.4963  -48.9907 H         1 UNK         0.0600 
    146 H146        0.6148  -22.9741  -49.5896 H         1 UNK         0.0600 
    147 H147       -0.1537  -21.8782  -50.7276 H         1 UNK         0.0600 
    148 H148        0.9723  -21.2486  -49.5349 H         1 UNK         0.0600 
    149 H149        0.4339  -22.0131  -47.1742 H         1 UNK         0.3000 
    150 H150       -1.5152  -22.2352  -44.2026 H         1 UNK         0.0600 
    151 H151       -1.2628  -24.6219  -44.9057 H         1 UNK         0.0600 
    152 H152       -0.0289  -24.1616  -43.7426 H         1 UNK         0.0600 
    153 H153        0.3769  -24.2985  -45.4543 H         1 UNK         0.0600 
    154 H154        1.3039  -22.1289  -44.6478 H         1 UNK         0.3000 
    155 H155        1.5984  -18.5796  -44.8531 H         1 UNK         0.0600 
    156 H156        2.3619  -20.5602  -42.6438 H         1 UNK         0.0600 
    157 H157        1.3886  -19.1105  -42.4163 H         1 UNK         0.0600 
    158 H158        3.0676  -18.9658  -42.9106 H         1 UNK         0.0600 
    159 H159        3.6752  -20.3880  -44.8337 H         1 UNK         0.3000 
    160 H160        4.4000  -21.7161  -46.9140 H         1 UNK         0.0600 
    161 H161        3.7366  -19.8783  -49.2797 H         1 UNK         0.0600 
    162 H162        3.3229  -21.5830  -49.1327 H         1 UNK         0.0600 
    163 H163        5.0049  -21.1036  -49.2678 H         1 UNK         0.0600 
    164 H164        5.2993  -18.9875  -47.5708 H         1 UNK         0.3000 
    165 H165        6.7846  -18.3723  -44.4350 H         1 UNK         0.0600 
    166 H166        8.7987  -17.8587  -45.7895 H         1 UNK         0.0600 
    167 H167        8.6144  -19.5969  -45.6216 H         1 UNK         0.0600 
    168 H168        8.1739  -18.8142  -47.1345 H         1 UNK         0.0600 
    169 H169        6.7077  -16.8357  -46.8212 H         1 UNK         0.3000 
    170 H170        5.1204  -14.6683  -46.2647 H         1 UNK         0.0600 
    171 H171        5.7795  -15.8064  -48.3513 H         1 UNK         0.0600 
    172 H172        4.2350  -16.6488  -48.4403 H         1 UNK         0.0600 
    173 H173        4.3128  -14.9039  -48.6632 H         1 UNK         0.0600 
    174 H174        2.4651  -15.7175  -46.9676 H         1 UNK         0.3000 
    175 H175        0.6977  -14.6355  -46.3130 H         1 UNK         0.0600 
    176 H176        0.7212  -14.9847  -43.2766 H         1 UNK         0.0600 
    177 H177       -0.6172  -15.3240  -44.3750 H         1 UNK         0.0600 
    178 H178        0.8328  -16.3127  -44.4242 H         1 UNK         0.0600 
    179 H179        0.0400  -12.8407  -44.2728 H         1 UNK         0.3000 
    180 H180        1.1700   -9.9062  -45.2104 H         1 UNK         0.0600 
    181 H181       -0.8012   -8.9087  -46.3762 H         1 UNK         0.0600 
    182 H182       -1.2648  -10.5025  -46.9710 H         1 UNK         0.0600 
    183 H183        0.2380   -9.7613  -47.5033 H         1 UNK         0.0600 
    184 H184       -1.5722  -10.6876  -44.5408 H         1 UNK         0.3000 
    185 H185       -1.0116  -11.3024  -41.1787 H         1 UNK         0.0600 
    186 H186       -0.8234   -8.8186  -40.9991 H         1 UNK         0.0600 
    187 H187       -2.0912   -8.6204  -42.2027 H         1 UNK         0.0600 
    188 H188       -2.4560   -9.3555  -40.6407 H         1 UNK         0.0600 
    189 H189       -3.4013  -10.6731  -42.6070 H         1 UNK         0.3000 
    190 H190       -2.0932  -19.2279  -45.9378 H         1 UNK         0.3000 
    191 H191       -4.5298  -17.8083  -45.3316 H         1 UNK         0.0600 
    192 H192       -4.7018  -19.5208  -43.5257 H         1 UNK         0.0600 
    193 H193       -3.0813  -18.8463  -43.5901 H         1 UNK         0.0600 
    194 H194       -3.3982  -20.4477  -44.2573 H         1 UNK         0.0600 
    195 H195       -3.8700  -20.2791  -47.5828 H         1 UNK         0.3000 
    196 H196       -4.9576  -21.7145  -48.8176 H         1 UNK         0.0600 
    197 H197       -7.4921  -20.1063  -48.1945 H         1 UNK         0.0600 
    198 H198       -6.3324  -19.7434  -49.4731 H         1 UNK         0.0600 
    199 H199       -7.2800  -21.2202  -49.5359 H         1 UNK         0.0600 
    200 H200       -4.4053  -22.5536  -46.2578 H         1 UNK         0.3000 
    201 H201       -6.6924  -24.1055  -45.2007 H         1 UNK         0.0600 
    202 H202       -3.7848  -23.7968  -44.2559 H         1 UNK         0.0600 
    203 H203       -5.0612  -24.6439  -43.3899 H         1 UNK         0.0600 
    204 H204       -5.1645  -22.9041  -43.6189 H         1 UNK         0.0600 
    205 H205       -6.6198  -26.3701  -45.0729 H         1 UNK         0.3000 
    206 H206       -6.3489  -28.4758  -45.7056 H         1 UNK         0.0600 
    207 H207       -4.3229  -28.1286  -44.2666 H         1 UNK         0.0600 
    208 H208       -4.0620  -29.3779  -45.4701 H         1 UNK         0.0600 
    209 H209       -3.3641  -27.7802  -45.7044 H         1 UNK         0.0600 
    210 H210       -6.6205  -26.5540  -47.9531 H         1 UNK         0.3000 
    211 H211       -6.6972  -26.4022  -50.1494 H         1 UNK         0.0600 
    212 H212       -6.8152  -28.4012  -51.5637 H         1 UNK         0.0600 
    213 H213       -7.6754  -28.7129  -50.0662 H         1 UNK         0.0600 
    214 H214       -6.0692  -29.3942  -50.3216 H         1 UNK         0.0600 
    215 H215       -4.0754  -26.0500  -48.6913 H         1 UNK         0.3000 
    216 H216       -1.9850  -26.7237  -50.5807 H         1 UNK         0.0600 
    217 H217       -1.9739  -24.8436  -48.1599 H         1 UNK         0.0600 
    218 H218       -0.5587  -25.4783  -48.9855 H         1 UNK         0.0600 
    219 H219       -1.6204  -26.5688  -48.1069 H         1 UNK         0.0600 
    220 H220       -4.3448  -24.3662  -50.7069 H         1 UNK         0.3000 
    221 H221       -3.2238  -21.9390  -51.2193 H         1 UNK         0.0600 
    222 H222       -5.6720  -22.4055  -50.9878 H         1 UNK         0.0600 
    223 H223       -5.6918  -23.1271  -52.5928 H         1 UNK         0.0600 
    224 H224       -5.3434  -21.4126  -52.3974 H         1 UNK         0.0600 
    225 H225       -3.2918  -24.6012  -53.5260 H         1 UNK         0.3000 
    226 H226       -2.7314  -23.2120  -55.9226 H         1 UNK         0.0600 
    227 H227       -1.9717  -26.0505  -55.0463 H         1 UNK         0.0600 
    228 H228       -3.4756  -25.5759  -55.8372 H         1 UNK         0.0600 
    229 H229       -1.9529  -25.4601  -56.7041 H         1 UNK         0.0600 
    230 H230       -0.6172  -23.8555  -53.1921 H         1 UNK         0.3000 
    231 H231        1.8692  -23.5273  -54.7031 H         1 UNK         0.0600 
    232 H232        1.3403  -23.7587  -51.7002 H         1 UNK         0.0600 
    233 H233        2.9117  -23.8424  -52.4815 H         1 UNK         0.0600 
    234 H234        1.7188  -25.0963  -52.7805 H         1 UNK         0.0600 
    235 H235       -0.4393  -21.2725  -53.5772 H         1 UNK         0.3000 
    236 H236        1.5795  -19.0964  -53.6595 H         1 UNK         0.0600 
    237 H237        1.3376  -19.5308  -51.2469 H         1 UNK         0.0600 
    238 H238        0.5542  -18.0159  -51.6551 H         1 UNK         0.0600 
    239 H239       -0.4191  -19.4493  -51.3651 H         1 UNK         0.0600 
    240 H240       -1.9333  -19.3964  -52.9503 H         1 UNK         0.3000 
    241 H241       -2.5201  -17.0852  -54.5633 H         1 UNK         0.0600 
    242 H242       -3.3764  -20.3924  -56.8291 H         1 UNK         0.3800 
    243 H243       -2.7486  -20.5858  -55.1989 H         1 UNK         0.3800 
    244 H244       -4.5441  -18.9795  -53.2917 H         1 UNK         0.0800 
    245 H245       -4.8226  -17.3335  -53.8006 H         1 UNK         0.0800 
    246 H246       -4.3499  -15.1802  -52.1206 H         1 UNK         0.0800 
    247 H247       -2.8042  -15.4972  -52.8759 H         1 UNK         0.0800 
@<TRIPOS>BOND
     1    1    2 1    
     2    1  127 1    
     3    1  128 1    
     4    1  129 1    
     5    2    3 2    
     6    2    4 am   BACKBONE|DICT|INTERRES
     7    4    5 1    
     8    4  130 1    
     9    5    6 1    
    10    5   65 1    
    11    5  131 1    
    12    6    7 1    
    13    6  132 1    
    14    6  133 1    
    15    7    8 1    
    16    8    9 1    
    17    8  134 1    
    18    8  135 1    
    19    9   10 ar   
    20    9   14 ar   
    21   10   11 ar   
    22   10  136 1    
    23   11   12 ar   
    24   11  126 1    
    25   12   13 ar   
    26   12  137 1    
    27   13   14 ar   
    28   13   15 1    
    29   14  138 1    
    30   15   16 1    
    31   15  139 1    
    32   15  140 1    
    33   16   17 1    
    34   17   18 1    
    35   17  141 1    
    36   17  142 1    
    37   18   19 1    
    38   18   67 1    
    39   18  143 1    
    40   19   20 am   BACKBONE|DICT|INTERRES
    41   19  144 1    
    42   20   21 2    
    43   20   22 1    
    44   22   23 1    
    45   22   24 1    
    46   22  145 1    
    47   23  146 1    
    48   23  147 1    
    49   23  148 1    
    50   24   25 am   BACKBONE|DICT|INTERRES
    51   24  149 1    
    52   25   26 2    
    53   25   27 1    
    54   27   28 1    
    55   27   29 1    
    56   27  150 1    
    57   28  151 1    
    58   28  152 1    
    59   28  153 1    
    60   29   30 am   BACKBONE|DICT|INTERRES
    61   29  154 1    
    62   30   31 2    
    63   30   32 1    
    64   32   33 1    
    65   32   34 1    
    66   32  155 1    
    67   33  156 1    
    68   33  157 1    
    69   33  158 1    
    70   34   35 am   BACKBONE|DICT|INTERRES
    71   34  159 1    
    72   35   36 2    
    73   35   37 1    
    74   37   38 1    
    75   37   39 1    
    76   37  160 1    
    77   38  161 1    
    78   38  162 1    
    79   38  163 1    
    80   39   40 am   BACKBONE|DICT|INTERRES
    81   39  164 1    
    82   40   41 2    
    83   40   42 1    
    84   42   43 1    
    85   42   44 1    
    86   42  165 1    
    87   43  166 1    
    88   43  167 1    
    89   43  168 1    
    90   44   45 am   BACKBONE|DICT|INTERRES
    91   44  169 1    
    92   45   46 2    
    93   45   47 1    
    94   47   48 1    
    95   47   49 1    
    96   47  170 1    
    97   48  171 1    
    98   48  172 1    
    99   48  173 1    
   100   49   50 am   BACKBONE|DICT|INTERRES
   101   49  174 1    
   102   50   51 2    
   103   50   52 1    
   104   52   53 1    
   105   52   54 1    
   106   52  175 1    
   107   53  176 1    
   108   53  177 1    
   109   53  178 1    
   110   54   55 am   BACKBONE|DICT|INTERRES
   111   54  179 1    
   112   55   56 2    
   113   55   57 1    
   114   57   58 1    
   115   57   59 1    
   116   57  180 1    
   117   58  181 1    
   118   58  182 1    
   119   58  183 1    
   120   59   60 am   BACKBONE|DICT|INTERRES
   121   59  184 1    
   122   60   61 2    
   123   60   62 1    
   124   62   63 1    
   125   62   64 1    
   126   62  185 1    
   127   63  186 1    
   128   63  187 1    
   129   63  188 1    
   130   64   65 am   BACKBONE|DICT|INTERRES
   131   64  189 1    
   132   65   66 2    
   133   67   68 2    
   134   67   69 am   BACKBONE|DICT|INTERRES
   135   69   70 1    
   136   69  190 1    
   137   70   71 1    
   138   70   72 1    
   139   70  191 1    
   140   71  192 1    
   141   71  193 1    
   142   71  194 1    
   143   72   73 2    
   144   72   74 am   BACKBONE|DICT|INTERRES
   145   74   75 1    
   146   74  195 1    
   147   75   76 1    
   148   75   77 1    
   149   75  196 1    
   150   76  197 1    
   151   76  198 1    
   152   76  199 1    
   153   77   78 2    
   154   77   79 am   BACKBONE|DICT|INTERRES
   155   79   80 1    
   156   79  200 1    
   157   80   81 1    
   158   80   82 1    
   159   80  201 1    
   160   81  202 1    
   161   81  203 1    
   162   81  204 1    
   163   82   83 2    
   164   82   84 am   BACKBONE|DICT|INTERRES
   165   84   85 1    
   166   84  205 1    
   167   85   86 1    
   168   85   87 1    
   169   85  206 1    
   170   86  207 1    
   171   86  208 1    
   172   86  209 1    
   173   87   88 2    
   174   87   89 am   BACKBONE|DICT|INTERRES
   175   89   90 1    
   176   89  210 1    
   177   90   91 1    
   178   90   92 1    
   179   90  211 1    
   180   91  212 1    
   181   91  213 1    
   182   91  214 1    
   183   92   93 2    
   184   92   94 am   BACKBONE|DICT|INTERRES
   185   94   95 1    
   186   94  215 1    
   187   95   96 1    
   188   95   97 1    
   189   95  216 1    
   190   96  217 1    
   191   96  218 1    
   192   96  219 1    
   193   97   98 2    
   194   97   99 am   BACKBONE|DICT|INTERRES
   195   99  100 1    
   196   99  220 1    
   197  100  101 1    
   198  100  102 1    
   199  100  221 1    
   200  101  222 1    
   201  101  223 1    
   202  101  224 1    
   203  102  103 2    
   204  102  104 am   BACKBONE|DICT|INTERRES
   205  104  105 1    
   206  104  225 1    
   207  105  106 1    
   208  105  107 1    
   209  105  226 1    
   210  106  227 1    
   211  106  228 1    
   212  106  229 1    
   213  107  108 2    
   214  107  109 am   BACKBONE|DICT|INTERRES
   215  109  110 1    
   216  109  230 1    
   217  110  111 1    
   218  110  112 1    
   219  110  231 1    
   220  111  232 1    
   221  111  233 1    
   222  111  234 1    
   223  112  113 2    
   224  112  114 am   BACKBONE|DICT|INTERRES
   225  114  115 1    
   226  114  235 1    
   227  115  116 1    
   228  115  117 1    
   229  115  236 1    
   230  116  237 1    
   231  116  238 1    
   232  116  239 1    
   233  117  118 2    
   234  117  119 am   BACKBONE|DICT|INTERRES
   235  119  120 1    
   236  119  240 1    
   237  120  121 1    
   238  120  124 1    
   239  120  241 1    
   240  121  122 am   BACKBONE|DICT|INTERRES
   241  121  123 2    
   242  122  242 1    
   243  122  243 1    
   244  124  125 1    
   245  124  244 1    
   246  124  245 1    
   247  125  126 1    
   248  126  246 1    
   249  126  247 1    
@<TRIPOS>SUBSTRUCTURE
     1 UNK         1 GROUP             0       ****    0 ROOT    
