@<TRIPOS>MOLECULE
3R540
247   249    1
SMALL
USER_CHARGES


@<TRIPOS>ATOM
      1 CA          6.2003   -9.8879  -47.0935 C.3       0 UNK        -0.1800 
      2 C           5.1000  -10.5239  -46.2581 C.2       0 UNK         0.5000 
      3 O           5.2630  -10.6768  -45.0481 O.2       0 UNK        -0.5000 
      4 N           3.9733  -10.8752  -46.8921 N.am      1 UNK        -0.5000 
      5 CA          2.8119  -11.5639  -46.3046 C.3       1 UNK         0.1400 
      6 C6          1.7386  -11.8728  -47.3747 C.3       23 UNK        -0.0398 
      7 S7          2.3411  -12.9887  -48.6888 S.3       23 UNK        -0.2404 
      8 C8          1.5453  -14.5426  -48.1825 C.3       23 UNK        -0.0205 
      9 C9          1.5231  -15.5720  -49.2992 C.ar      23 UNK        -0.0193 
     10 C10         0.6405  -15.4103  -50.3710 C.ar      23 UNK        -0.1150 
     11 C11         0.5624  -16.3613  -51.3925 C.ar      23 UNK        -0.0193 
     12 C12         1.3905  -17.4885  -51.3236 C.ar      23 UNK        -0.1150 
     13 C13         2.2532  -17.6807  -50.2412 C.ar      23 UNK        -0.0193 
     14 C14         2.3293  -16.7115  -49.2373 C.ar      23 UNK        -0.1150 
     15 C15         3.0614  -18.9667  -50.1424 C.3       23 UNK        -0.0205 
     16 S16         2.4116  -20.1122  -48.8772 S.3       23 UNK        -0.2404 
     17 C17         0.5986  -19.9919  -49.0960 C.3       23 UNK        -0.0398 
     18 CA         -0.1723  -21.1250  -48.3789 C.3       11 UNK         0.1400 
     19 N           0.0573  -21.1356  -46.9291 N.am      11 UNK        -0.5000 
     20 C          -0.2611  -22.1564  -46.1227 C.2       10 UNK         0.5000 
     21 O          -0.8053  -23.1876  -46.5143 O.2       10 UNK        -0.5000 
     22 CA          0.0328  -21.9865  -44.6223 C.3       10 UNK         0.1400 
     23 CB          1.5322  -22.1535  -44.3348 C.3       10 UNK        -0.1800 
     24 N          -0.4431  -20.7100  -44.0875 N.am      10 UNK        -0.5000 
     25 C          -1.7307  -20.3374  -44.0523 C.2       9 UNK         0.5000 
     26 O          -2.6537  -21.0356  -44.4704 O.2       9 UNK        -0.5000 
     27 CA         -2.0421  -18.9392  -43.4880 C.3       9 UNK         0.1400 
     28 CB         -1.9976  -18.9448  -41.9527 C.3       9 UNK        -0.1800 
     29 N          -1.1414  -17.9085  -44.0007 N.am      9 UNK        -0.5000 
     30 C          -1.0484  -17.5522  -45.2897 C.2       8 UNK         0.5000 
     31 O          -1.7479  -18.0227  -46.1862 O.2       8 UNK        -0.5000 
     32 CA          0.0600  -16.5455  -45.6454 C.3       8 UNK         0.1400 
     33 CB         -0.3437  -15.1157  -45.2483 C.3       8 UNK        -0.1800 
     34 N           1.3454  -16.8863  -45.0325 N.am      8 UNK        -0.5000 
     35 C           1.9890  -18.0488  -45.2186 C.2       7 UNK         0.5000 
     36 O           1.5874  -18.9431  -45.9585 O.2       7 UNK        -0.5000 
     37 CA          3.2589  -18.2801  -44.3872 C.3       7 UNK         0.1400 
     38 CB          4.4666  -17.5798  -45.0270 C.3       7 UNK        -0.1800 
     39 N           3.0785  -17.8330  -43.0057 N.am      7 UNK        -0.5000 
     40 C           2.2758  -18.4443  -42.1208 C.2       6 UNK         0.5000 
     41 O           1.6530  -19.4776  -42.3634 O.2       6 UNK        -0.5000 
     42 CA          2.1029  -17.7621  -40.7515 C.3       6 UNK         0.1400 
     43 CB          3.2539  -18.1390  -39.8071 C.3       6 UNK        -0.1800 
     44 N           2.0205  -16.3057  -40.8615 N.am      6 UNK        -0.5000 
     45 C           1.0171  -15.6455  -41.4576 C.2       5 UNK         0.5000 
     46 O           0.0173  -16.1969  -41.9169 O.2       5 UNK        -0.5000 
     47 CA          1.1845  -14.1213  -41.6083 C.3       5 UNK         0.1400 
     48 CB          0.5782  -13.3849  -40.4055 C.3       5 UNK        -0.1800 
     49 N           2.5811  -13.7118  -41.7699 N.am      5 UNK        -0.5000 
     50 C           3.3631  -14.0408  -42.8054 C.2       4 UNK         0.5000 
     51 O           2.9808  -14.7442  -43.7429 O.2       4 UNK        -0.5000 
     52 CA          4.8088  -13.5047  -42.7653 C.3       4 UNK         0.1400 
     53 CB          5.6282  -13.9055  -44.0046 C.3       4 UNK        -0.1800 
     54 N           4.8450  -12.0498  -42.6312 N.am      4 UNK        -0.5000 
     55 C           4.6938  -11.3588  -41.4937 C.2       3 UNK         0.5000 
     56 O           4.4762  -11.8852  -40.4015 O.2       3 UNK        -0.5000 
     57 CA          4.7578   -9.8282  -41.6076 C.3       3 UNK         0.1400 
     58 CB          6.2052   -9.3549  -41.8164 C.3       3 UNK        -0.1800 
     59 N           3.9321   -9.3716  -42.7231 N.am      3 UNK        -0.5000 
     60 C           2.6640   -8.9535  -42.6111 C.2       2 UNK         0.5000 
     61 O           2.0804   -8.8109  -41.5360 O.2       2 UNK        -0.5000 
     62 CA          1.9115   -8.6541  -43.9236 C.3       2 UNK         0.1400 
     63 CB          2.0733   -7.1768  -44.3129 C.3       2 UNK        -0.1800 
     64 N           2.3517   -9.4937  -45.0393 N.am      2 UNK        -0.5000 
     65 C           2.1606  -10.8187  -45.1172 C.2       1 UNK         0.5000 
     66 O           1.5075  -11.4582  -44.2930 O.2       1 UNK        -0.5000 
     67 C          -1.6746  -21.0793  -48.7382 C.2       11 UNK         0.5000 
     68 O          -2.0516  -21.5906  -49.7931 O.2       11 UNK        -0.5000 
     69 N          -2.5056  -20.4921  -47.8636 N.am      12 UNK        -0.5000 
     70 CA         -3.9633  -20.4959  -47.9884 C.3       12 UNK         0.1400 
     71 CB         -4.5606  -19.3716  -47.1296 C.3       12 UNK        -0.1800 
     72 C          -4.5877  -21.8529  -47.6144 C.2       12 UNK         0.5000 
     73 O          -5.5776  -22.2444  -48.2291 O.2       12 UNK        -0.5000 
     74 N          -4.0185  -22.5397  -46.6139 N.am      13 UNK        -0.5000 
     75 CA         -4.4516  -23.8665  -46.1706 C.3       13 UNK         0.1400 
     76 CB         -3.8951  -24.1402  -44.7653 C.3       13 UNK        -0.1800 
     77 C          -4.0338  -24.9836  -47.1445 C.2       13 UNK         0.5000 
     78 O          -4.7901  -25.9392  -47.3344 O.2       13 UNK        -0.5000 
     79 N          -2.8426  -24.8402  -47.7415 N.am      14 UNK        -0.5000 
     80 CA         -2.2640  -25.7415  -48.7382 C.3       14 UNK         0.1400 
     81 CB         -0.8746  -25.2173  -49.1342 C.3       14 UNK        -0.1800 
     82 C          -3.1420  -25.9112  -49.9920 C.2       14 UNK         0.5000 
     83 O          -3.9509  -25.0363  -50.3080 O.2       14 UNK        -0.5000 
     84 N          -2.9497  -27.0418  -50.6865 N.am      15 UNK        -0.5000 
     85 CA         -3.6663  -27.4529  -51.8994 C.3       15 UNK         0.1400 
     86 CB         -3.2995  -26.5375  -53.0865 C.3       15 UNK        -0.1800 
     87 C          -5.1881  -27.5590  -51.6718 C.2       15 UNK         0.5000 
     88 O          -5.9669  -27.0355  -52.4671 O.2       15 UNK        -0.5000 
     89 N          -5.5721  -28.2144  -50.5650 N.am      16 UNK        -0.5000 
     90 CA         -6.9494  -28.4597  -50.1199 C.3       16 UNK         0.1400 
     91 CB         -7.6392  -29.4783  -51.0525 C.3       16 UNK        -0.1800 
     92 C          -7.7572  -27.1557  -49.9500 C.2       16 UNK         0.5000 
     93 O          -8.8310  -27.0108  -50.5374 O.2       16 UNK        -0.5000 
     94 N          -7.1993  -26.2249  -49.1616 N.am      17 UNK        -0.5000 
     95 CA         -7.7002  -24.8690  -48.9182 C.3       17 UNK         0.1400 
     96 CB         -9.0586  -24.8918  -48.1851 C.3       17 UNK        -0.1800 
     97 C          -7.7020  -24.0106  -50.2010 C.2       17 UNK         0.5000 
     98 O          -8.7095  -23.3801  -50.5291 O.2       17 UNK        -0.5000 
     99 N          -6.5549  -24.0125  -50.8935 N.am      18 UNK        -0.5000 
    100 CA        -6.2273  -23.2375  -52.0886 C.3       18 UNK         0.1400 
    101 CB        -6.1311  -21.7359  -51.7534 C.3       18 UNK        -0.1800 
    102 C         -7.1338  -23.5308  -53.2997 C.2       18 UNK         0.5000 
    103 O         -7.5684  -22.6028  -53.9861 O.2       18 UNK        -0.5000 
    104 N         -7.3877  -24.8184  -53.5665 N.am      19 UNK        -0.5000 
    105 CA        -8.0924  -25.2900  -54.7559 C.3       19 UNK         0.1400 
    106 CB        -8.5713  -26.7344  -54.5286 C.3       19 UNK        -0.1800 
    107 C         -7.1694  -25.1642  -55.9829 C.2       19 UNK         0.5000 
    108 O         -6.3488  -26.0506  -56.2277 O.2       19 UNK        -0.5000 
    109 N         -7.2966  -24.0339  -56.6933 N.am      20 UNK        -0.5000 
    110 CA        -6.4678  -23.5961  -57.8222 C.3       20 UNK         0.1400 
    111 CB        -6.6325  -24.5389  -59.0338 C.3       20 UNK        -0.1800 
    112 C         -4.9954  -23.3696  -57.4146 C.2       20 UNK         0.5000 
    113 O         -4.0798  -23.8423  -58.0916 O.2       20 UNK        -0.5000 
    114 N         -4.7996  -22.6427  -56.3081 N.am      21 UNK        -0.5000 
    115 CA        -3.4984  -22.2395  -55.7780 C.3       21 UNK         0.1400 
    116 CB        -3.0126  -23.2784  -54.7518 C.3       21 UNK        -0.1800 
    117 C         -3.5980  -20.8241  -55.1807 C.2       21 UNK         0.5000 
    118 O         -4.6516  -20.1896  -55.2786 O.2       21 UNK        -0.5000 
    119 N         -2.4865  -20.3468  -54.6051 N.am      22 UNK        -0.5000 
    120 CA        -2.3187  -18.9881  -54.0589 C.3       22 UNK         0.1400 
    121 C         -3.3124  -18.6129  -52.9224 C.2       22 UNK         0.5000 
    122 N         -3.5587  -19.4967  -51.9641 N.am      22 UNK        -0.7600 
    123 O         -3.8600  -17.5142  -52.9093 O.2       22 UNK        -0.5000 
    124 C124       -0.8523  -18.7449  -53.6065 C.3       23 UNK        -0.0398 
    125 S125       -0.2186  -17.0899  -54.0491 S.3       23 UNK        -0.2404 
    126 C126       -0.4642  -16.1399  -52.5069 C.3       23 UNK        -0.0205 
    127 H127        6.4251   -8.8894  -46.7187 H         1 UNK         0.0600 
    128 H128        5.9160   -9.8031  -48.1425 H         1 UNK         0.0600 
    129 H129        7.1081  -10.4880  -47.0337 H         1 UNK         0.0600 
    130 H130        3.9125  -10.7221  -47.8890 H         1 UNK         0.3000 
    131 H131        3.1726  -12.5141  -45.9055 H         1 UNK         0.0600 
    132 H132        0.8494  -12.3084  -46.9154 H         1 UNK         0.0800 
    133 H133        1.4008  -10.9487  -47.8474 H         1 UNK         0.0800 
    134 H134        0.5139  -14.3451  -47.8894 H         1 UNK         0.0800 
    135 H135        2.0575  -14.9328  -47.3014 H         1 UNK         0.0800 
    136 H136        0.0012  -14.5387  -50.4019 H         1 UNK         0.1150 
    137 H137        1.3565  -18.2438  -52.0925 H         1 UNK         0.1150 
    138 H138        2.9891  -16.8641  -48.3945 H         1 UNK         0.1150 
    139 H139        3.0812  -19.4820  -51.1038 H         1 UNK         0.0800 
    140 H140        4.0987  -18.7271  -49.9048 H         1 UNK         0.0800 
    141 H141        0.3858  -20.0103  -50.1664 H         1 UNK         0.0800 
    142 H142        0.2670  -19.0194  -48.7263 H         1 UNK         0.0800 
    143 H143        0.2076  -22.0717  -48.7691 H         1 UNK         0.0600 
    144 H144        0.5352  -20.3233  -46.5408 H         1 UNK         0.3000 
    145 H145       -0.4982  -22.7803  -44.0929 H         1 UNK         0.0600 
    146 H146        1.7343  -22.1219  -43.2641 H         1 UNK         0.0600 
    147 H147        1.8959  -23.1124  -44.7059 H         1 UNK         0.0600 
    148 H148        2.1244  -21.3723  -44.8109 H         1 UNK         0.0600 
    149 H149        0.2601  -20.0921  -43.6954 H         1 UNK         0.3000 
    150 H150       -3.0561  -18.6764  -43.7964 H         1 UNK         0.0600 
    151 H151       -2.6758  -19.6952  -41.5447 H         1 UNK         0.0600 
    152 H152       -2.2982  -17.9786  -41.5471 H         1 UNK         0.0600 
    153 H153       -0.9977  -19.1662  -41.5785 H         1 UNK         0.0600 
    154 H154       -0.5540  -17.4362  -43.3197 H         1 UNK         0.3000 
    155 H155        0.1980  -16.5814  -46.7271 H         1 UNK         0.0600 
    156 H156       -1.1892  -14.7741  -45.8462 H         1 UNK         0.0600 
    157 H157        0.4726  -14.4089  -45.3978 H         1 UNK         0.0600 
    158 H158       -0.6426  -15.0531  -44.2028 H         1 UNK         0.0600 
    159 H159        1.7703  -16.1891  -44.4293 H         1 UNK         0.3000 
    160 H160        3.4639  -19.3524  -44.3713 H         1 UNK         0.0600 
    161 H161        5.3641  -17.6987  -44.4200 H         1 UNK         0.0600 
    162 H162        4.2908  -16.5141  -45.1695 H         1 UNK         0.0600 
    163 H163        4.6788  -18.0038  -46.0094 H         1 UNK         0.0600 
    164 H164        3.5075  -16.9558  -42.7525 H         1 UNK         0.3000 
    165 H165        1.1694  -18.1233  -40.3147 H         1 UNK         0.0600 
    166 H166        3.1008  -17.7198  -38.8125 H         1 UNK         0.0600 
    167 H167        3.3265  -19.2216  -39.6946 H         1 UNK         0.0600 
    168 H168        4.2154  -17.7821  -40.1782 H         1 UNK         0.0600 
    169 H169        2.7994  -15.7731  -40.5036 H         1 UNK         0.3000 
    170 H170        0.6433  -13.8142  -42.5055 H         1 UNK         0.0600 
    171 H171       -0.4713  -13.6512  -40.2732 H         1 UNK         0.0600 
    172 H172        1.0997  -13.6284  -39.4790 H         1 UNK         0.0600 
    173 H173        0.6241  -12.3042  -40.5430 H         1 UNK         0.0600 
    174 H174        2.9773  -13.1168  -41.0503 H         1 UNK         0.3000 
    175 H175        5.2937  -13.9484  -41.8934 H         1 UNK         0.0600 
    176 H176        5.1632  -13.5604  -44.9283 H         1 UNK         0.0600 
    177 H177        6.6348  -13.4889  -43.9633 H         1 UNK         0.0600 
    178 H178        5.7322  -14.9883  -44.0693 H         1 UNK         0.0600 
    179 H179        5.0015  -11.5335  -43.4947 H         1 UNK         0.3000 
    180 H180        4.3971   -9.4021  -40.6690 H         1 UNK         0.0600 
    181 H181        6.6300   -9.7396  -42.7445 H         1 UNK         0.0600 
    182 H182        6.8458   -9.6874  -40.9987 H         1 UNK         0.0600 
    183 H183        6.2602   -8.2668  -41.8508 H         1 UNK         0.0600 
    184 H184        4.3164   -9.5140  -43.6501 H         1 UNK         0.3000 
    185 H185        0.8511   -8.8484  -43.7495 H         1 UNK         0.0600 
    186 H186        1.7312   -6.5222  -43.5102 H         1 UNK         0.0600 
    187 H187        3.1146   -6.9263  -44.5196 H         1 UNK         0.0600 
    188 H188        1.4866   -6.9356  -45.1995 H         1 UNK         0.0600 
    189 H189        2.8954   -9.0448  -45.7619 H         1 UNK         0.3000 
    190 H190       -2.1198  -20.0359  -47.0454 H         1 UNK         0.3000 
    191 H191       -4.2213  -20.2915  -49.0292 H         1 UNK         0.0600 
    192 H192       -4.3097  -19.4921  -46.0754 H         1 UNK         0.0600 
    193 H193       -5.6482  -19.3543  -47.2093 H         1 UNK         0.0600 
    194 H194       -4.1963  -18.3959  -47.4512 H         1 UNK         0.0600 
    195 H195       -3.2531  -22.1158  -46.1006 H         1 UNK         0.3000 
    196 H196       -5.5418  -23.8712  -46.1077 H         1 UNK         0.0600 
    197 H197       -4.2117  -25.1188  -44.4025 H         1 UNK         0.0600 
    198 H198       -4.2499  -23.3975  -44.0504 H         1 UNK         0.0600 
    199 H199       -2.8048  -24.1206  -44.7529 H         1 UNK         0.0600 
    200 H200       -2.2680  -24.0477  -47.4722 H         1 UNK         0.3000 
    201 H201       -2.1497  -26.7190  -48.2658 H         1 UNK         0.0600 
    202 H202       -0.2094  -25.1685  -48.2722 H         1 UNK         0.0600 
    203 H203       -0.9352  -24.2194  -49.5698 H         1 UNK         0.0600 
    204 H204       -0.3998  -25.8677  -49.8698 H         1 UNK         0.0600 
    205 H205       -2.2596  -27.6987  -50.3495 H         1 UNK         0.3000 
    206 H206       -3.3219  -28.4593  -52.1415 H         1 UNK         0.0600 
    207 H207       -2.2208  -26.4940  -53.2352 H         1 UNK         0.0600 
    208 H208       -3.7420  -26.9019  -54.0145 H         1 UNK         0.0600 
    209 H209       -3.6583  -25.5202  -52.9344 H         1 UNK         0.0600 
    210 H210       -4.8483  -28.5714  -49.9574 H         1 UNK         0.3000 
    211 H211       -6.8829  -28.9125  -49.1296 H         1 UNK         0.0600 
    212 H212       -7.7649  -29.0847  -52.0619 H         1 UNK         0.0600 
    213 H213       -8.6294  -29.7411  -50.6787 H         1 UNK         0.0600 
    214 H214       -7.0638  -30.4013  -51.1223 H         1 UNK         0.0600 
    215 H215       -6.3040  -26.4271  -48.7289 H         1 UNK         0.3000 
    216 H216       -6.9840  -24.4063  -48.2408 H         1 UNK         0.0600 
    217 H217       -9.3528  -23.8849  -47.8872 H         1 UNK         0.0600 
    218 H218       -9.0073  -25.4957  -47.2793 H         1 UNK         0.0600 
    219 H219       -9.8567  -25.2908  -48.8112 H         1 UNK         0.0600 
    220 H220       -5.7743  -24.5552  -50.5313 H         1 UNK         0.3000 
    221 H221       -5.2315  -23.5705  -52.3741 H         1 UNK         0.0600 
    222 H222       -7.0939  -21.3254  -51.4487 H         1 UNK         0.0600 
    223 H223       -5.4207  -21.5623  -50.9456 H         1 UNK         0.0600 
    224 H224       -5.7887  -21.1633  -52.6162 H         1 UNK         0.0600 
    225 H225       -6.9459  -25.5406  -53.0004 H         1 UNK         0.3000 
    226 H226       -8.9782  -24.6703  -54.9114 H         1 UNK         0.0600 
    227 H227       -9.1501  -27.0893  -55.3819 H         1 UNK         0.0600 
    228 H228       -7.7391  -27.4247  -54.3892 H         1 UNK         0.0600 
    229 H229       -9.2098  -26.8035  -53.6474 H         1 UNK         0.0600 
    230 H230       -7.9617  -23.3497  -56.3575 H         1 UNK         0.3000 
    231 H231       -6.8510  -22.6190  -58.1197 H         1 UNK         0.0600 
    232 H232       -7.6825  -24.6583  -59.3004 H         1 UNK         0.0600 
    233 H233       -6.2205  -25.5297  -58.8405 H         1 UNK         0.0600 
    234 H234       -6.1196  -24.1393  -59.9094 H         1 UNK         0.0600 
    235 H235       -5.5957  -22.2300  -55.8379 H         1 UNK         0.3000 
    236 H236       -2.7763  -22.1862  -56.5954 H         1 UNK         0.0600 
    237 H237       -3.0627  -24.2891  -55.1575 H         1 UNK         0.0600 
    238 H238       -1.9759  -23.1007  -54.4651 H         1 UNK         0.0600 
    239 H239       -3.6108  -23.2503  -53.8440 H         1 UNK         0.0600 
    240 H240       -1.6726  -20.9418  -54.5650 H         1 UNK         0.3000 
    241 H241       -2.5357  -18.3179  -54.8933 H         1 UNK         0.0600 
    242 H242       -4.2070  -19.2477  -51.2364 H         1 UNK         0.3800 
    243 H243       -3.1001  -20.3943  -51.9410 H         1 UNK         0.3800 
    244 H244       -0.7292  -18.9345  -52.5390 H         1 UNK         0.0800 
    245 H245       -0.1821  -19.4518  -54.0976 H         1 UNK         0.0800 
    246 H246       -0.4586  -15.0832  -52.7785 H         1 UNK         0.0800 
    247 H247       -1.4596  -16.3440  -52.1116 H         1 UNK         0.0800 
@<TRIPOS>BOND
     1    1    2 1    
     2    1  127 1    
     3    1  128 1    
     4    1  129 1    
     5    2    3 2    
     6    2    4 am   BACKBONE|DICT|INTERRES
     7    4    5 1    
     8    4  130 1    
     9    5    6 1    
    10    5   65 1    
    11    5  131 1    
    12    6    7 1    
    13    6  132 1    
    14    6  133 1    
    15    7    8 1    
    16    8    9 1    
    17    8  134 1    
    18    8  135 1    
    19    9   10 ar   
    20    9   14 ar   
    21   10   11 ar   
    22   10  136 1    
    23   11   12 ar   
    24   11  126 1    
    25   12   13 ar   
    26   12  137 1    
    27   13   14 ar   
    28   13   15 1    
    29   14  138 1    
    30   15   16 1    
    31   15  139 1    
    32   15  140 1    
    33   16   17 1    
    34   17   18 1    
    35   17  141 1    
    36   17  142 1    
    37   18   19 1    
    38   18   67 1    
    39   18  143 1    
    40   19   20 am   BACKBONE|DICT|INTERRES
    41   19  144 1    
    42   20   21 2    
    43   20   22 1    
    44   22   23 1    
    45   22   24 1    
    46   22  145 1    
    47   23  146 1    
    48   23  147 1    
    49   23  148 1    
    50   24   25 am   BACKBONE|DICT|INTERRES
    51   24  149 1    
    52   25   26 2    
    53   25   27 1    
    54   27   28 1    
    55   27   29 1    
    56   27  150 1    
    57   28  151 1    
    58   28  152 1    
    59   28  153 1    
    60   29   30 am   BACKBONE|DICT|INTERRES
    61   29  154 1    
    62   30   31 2    
    63   30   32 1    
    64   32   33 1    
    65   32   34 1    
    66   32  155 1    
    67   33  156 1    
    68   33  157 1    
    69   33  158 1    
    70   34   35 am   BACKBONE|DICT|INTERRES
    71   34  159 1    
    72   35   36 2    
    73   35   37 1    
    74   37   38 1    
    75   37   39 1    
    76   37  160 1    
    77   38  161 1    
    78   38  162 1    
    79   38  163 1    
    80   39   40 am   BACKBONE|DICT|INTERRES
    81   39  164 1    
    82   40   41 2    
    83   40   42 1    
    84   42   43 1    
    85   42   44 1    
    86   42  165 1    
    87   43  166 1    
    88   43  167 1    
    89   43  168 1    
    90   44   45 am   BACKBONE|DICT|INTERRES
    91   44  169 1    
    92   45   46 2    
    93   45   47 1    
    94   47   48 1    
    95   47   49 1    
    96   47  170 1    
    97   48  171 1    
    98   48  172 1    
    99   48  173 1    
   100   49   50 am   BACKBONE|DICT|INTERRES
   101   49  174 1    
   102   50   51 2    
   103   50   52 1    
   104   52   53 1    
   105   52   54 1    
   106   52  175 1    
   107   53  176 1    
   108   53  177 1    
   109   53  178 1    
   110   54   55 am   BACKBONE|DICT|INTERRES
   111   54  179 1    
   112   55   56 2    
   113   55   57 1    
   114   57   58 1    
   115   57   59 1    
   116   57  180 1    
   117   58  181 1    
   118   58  182 1    
   119   58  183 1    
   120   59   60 am   BACKBONE|DICT|INTERRES
   121   59  184 1    
   122   60   61 2    
   123   60   62 1    
   124   62   63 1    
   125   62   64 1    
   126   62  185 1    
   127   63  186 1    
   128   63  187 1    
   129   63  188 1    
   130   64   65 am   BACKBONE|DICT|INTERRES
   131   64  189 1    
   132   65   66 2    
   133   67   68 2    
   134   67   69 am   BACKBONE|DICT|INTERRES
   135   69   70 1    
   136   69  190 1    
   137   70   71 1    
   138   70   72 1    
   139   70  191 1    
   140   71  192 1    
   141   71  193 1    
   142   71  194 1    
   143   72   73 2    
   144   72   74 am   BACKBONE|DICT|INTERRES
   145   74   75 1    
   146   74  195 1    
   147   75   76 1    
   148   75   77 1    
   149   75  196 1    
   150   76  197 1    
   151   76  198 1    
   152   76  199 1    
   153   77   78 2    
   154   77   79 am   BACKBONE|DICT|INTERRES
   155   79   80 1    
   156   79  200 1    
   157   80   81 1    
   158   80   82 1    
   159   80  201 1    
   160   81  202 1    
   161   81  203 1    
   162   81  204 1    
   163   82   83 2    
   164   82   84 am   BACKBONE|DICT|INTERRES
   165   84   85 1    
   166   84  205 1    
   167   85   86 1    
   168   85   87 1    
   169   85  206 1    
   170   86  207 1    
   171   86  208 1    
   172   86  209 1    
   173   87   88 2    
   174   87   89 am   BACKBONE|DICT|INTERRES
   175   89   90 1    
   176   89  210 1    
   177   90   91 1    
   178   90   92 1    
   179   90  211 1    
   180   91  212 1    
   181   91  213 1    
   182   91  214 1    
   183   92   93 2    
   184   92   94 am   BACKBONE|DICT|INTERRES
   185   94   95 1    
   186   94  215 1    
   187   95   96 1    
   188   95   97 1    
   189   95  216 1    
   190   96  217 1    
   191   96  218 1    
   192   96  219 1    
   193   97   98 2    
   194   97   99 am   BACKBONE|DICT|INTERRES
   195   99  100 1    
   196   99  220 1    
   197  100  101 1    
   198  100  102 1    
   199  100  221 1    
   200  101  222 1    
   201  101  223 1    
   202  101  224 1    
   203  102  103 2    
   204  102  104 am   BACKBONE|DICT|INTERRES
   205  104  105 1    
   206  104  225 1    
   207  105  106 1    
   208  105  107 1    
   209  105  226 1    
   210  106  227 1    
   211  106  228 1    
   212  106  229 1    
   213  107  108 2    
   214  107  109 am   BACKBONE|DICT|INTERRES
   215  109  110 1    
   216  109  230 1    
   217  110  111 1    
   218  110  112 1    
   219  110  231 1    
   220  111  232 1    
   221  111  233 1    
   222  111  234 1    
   223  112  113 2    
   224  112  114 am   BACKBONE|DICT|INTERRES
   225  114  115 1    
   226  114  235 1    
   227  115  116 1    
   228  115  117 1    
   229  115  236 1    
   230  116  237 1    
   231  116  238 1    
   232  116  239 1    
   233  117  118 2    
   234  117  119 am   BACKBONE|DICT|INTERRES
   235  119  120 1    
   236  119  240 1    
   237  120  121 1    
   238  120  124 1    
   239  120  241 1    
   240  121  122 am   BACKBONE|DICT|INTERRES
   241  121  123 2    
   242  122  242 1    
   243  122  243 1    
   244  124  125 1    
   245  124  244 1    
   246  124  245 1    
   247  125  126 1    
   248  126  246 1    
   249  126  247 1    
@<TRIPOS>SUBSTRUCTURE
     1 UNK         1 GROUP             0       ****    0 ROOT    
