@<TRIPOS>MOLECULE
3R540
247   249    1
SMALL
USER_CHARGES


@<TRIPOS>ATOM
      1 CA          6.8829  -15.3088  -46.3294 C.3       0 UNK        -0.1800 
      2 C           5.9417  -14.1266  -46.5096 C.2       0 UNK         0.5000 
      3 O           6.1887  -13.2765  -47.3642 O.2       0 UNK        -0.5000 
      4 N           4.8694  -14.0763  -45.7052 N.am      1 UNK        -0.5000 
      5 CA          3.8443  -13.0200  -45.6891 C.3       1 UNK         0.1400 
      6 C6          3.0328  -12.8953  -47.0092 C.3       23 UNK        -0.0398 
      7 S7          2.1659  -14.4326  -47.4763 S.3       23 UNK        -0.2404 
      8 C8          3.0955  -14.9107  -48.9693 C.3       23 UNK        -0.0205 
      9 C9          2.4192  -16.0340  -49.7445 C.ar      23 UNK        -0.0193 
     10 C10         1.3392  -15.7442  -50.5836 C.ar      23 UNK        -0.1150 
     11 C11         0.7444  -16.7486  -51.3519 C.ar      23 UNK        -0.0193 
     12 C12         1.2388  -18.0544  -51.2783 C.ar      23 UNK        -0.1150 
     13 C13         2.3220  -18.3594  -50.4499 C.ar      23 UNK        -0.0193 
     14 C14         2.9036  -17.3458  -49.6787 C.ar      23 UNK        -0.1150 
     15 C15         2.9088  -19.7652  -50.4474 C.3       23 UNK        -0.0205 
     16 S16         2.4234  -20.7374  -48.9890 S.3       23 UNK        -0.2404 
     17 C17         0.7141  -21.2384  -49.3906 C.3       23 UNK        -0.0398 
     18 CA          0.2126  -22.3750  -48.4627 C.3       11 UNK         0.1400 
     19 N           0.1999  -21.9941  -47.0456 N.am      11 UNK        -0.5000 
     20 C          -0.0513  -22.8249  -46.0238 C.2       10 UNK         0.5000 
     21 O          -0.2504  -24.0309  -46.1576 O.2       10 UNK        -0.5000 
     22 CA         -0.1492  -22.2015  -44.6213 C.3       10 UNK         0.1400 
     23 CB          1.2376  -22.0582  -43.9761 C.3       10 UNK        -0.1800 
     24 N          -0.8258  -20.9056  -44.6531 N.am      10 UNK        -0.5000 
     25 C          -2.1465  -20.7529  -44.8239 C.2       9 UNK         0.5000 
     26 O          -2.9336  -21.6955  -44.9161 O.2       9 UNK        -0.5000 
     27 CA         -2.6712  -19.3081  -44.9485 C.3       9 UNK         0.1400 
     28 CB         -2.8948  -18.6906  -43.5604 C.3       9 UNK        -0.1800 
     29 N          -1.7847  -18.4373  -45.7206 N.am      9 UNK        -0.5000 
     30 C          -1.4735  -18.6205  -47.0112 C.2       8 UNK         0.5000 
     31 O          -1.9422  -19.5192  -47.7068 O.2       8 UNK        -0.5000 
     32 CA         -0.4174  -17.6750  -47.6076 C.3       8 UNK         0.1400 
     33 CB         -1.0846  -16.3694  -48.0558 C.3       8 UNK        -0.1800 
     34 N           0.6899  -17.3769  -46.6942 N.am      8 UNK        -0.5000 
     35 C           1.4752  -18.2870  -46.0982 C.2       7 UNK         0.5000 
     36 O           1.3100  -19.4991  -46.1983 O.2       7 UNK        -0.5000 
     37 CA          2.6053  -17.7669  -45.1976 C.3       7 UNK         0.1400 
     38 CB          3.8903  -17.5231  -46.0009 C.3       7 UNK        -0.1800 
     39 N           2.2049  -16.5490  -44.4930 N.am      7 UNK        -0.5000 
     40 C           1.5329  -16.5619  -43.3335 C.2       6 UNK         0.5000 
     41 O           1.2792  -17.5845  -42.6960 O.2       6 UNK        -0.5000 
     42 CA          1.0313  -15.2037  -42.8136 C.3       6 UNK         0.1400 
     43 CB          2.1481  -14.4555  -42.0682 C.3       6 UNK        -0.1800 
     44 N           0.4780  -14.3396  -43.8597 N.am      6 UNK        -0.5000 
     45 C          -0.6070  -14.6207  -44.5969 C.2       5 UNK         0.5000 
     46 O          -1.1762  -15.7135  -44.5709 O.2       5 UNK        -0.5000 
     47 CA         -1.1397  -13.5043  -45.5278 C.3       5 UNK         0.1400 
     48 CB         -2.6809  -13.5063  -45.6057 C.3       5 UNK        -0.1800 
     49 N          -0.6465  -12.1485  -45.2317 N.am      5 UNK        -0.5000 
     50 C          -0.8156  -11.4500  -44.0993 C.2       4 UNK         0.5000 
     51 O          -1.3599  -11.8906  -43.0854 O.2       4 UNK        -0.5000 
     52 CA         -0.2388  -10.0305  -44.0761 C.3       4 UNK         0.1400 
     53 CB         -1.3380   -8.9737  -43.8671 C.3       4 UNK        -0.1800 
     54 N           0.7365   -9.9751  -42.9945 N.am      4 UNK        -0.5000 
     55 C           1.7854   -9.1481  -42.9391 C.2       3 UNK         0.5000 
     56 O           1.9951   -8.2596  -43.7660 O.2       3 UNK        -0.5000 
     57 CA          2.7938   -9.3724  -41.7957 C.3       3 UNK         0.1400 
     58 CB          2.2107  -10.1318  -40.5867 C.3       3 UNK        -0.1800 
     59 N           3.9273  -10.1241  -42.3276 N.am      3 UNK        -0.5000 
     60 C           5.0152   -9.5827  -42.8917 C.2       2 UNK         0.5000 
     61 O           5.2728   -8.3782  -42.8790 O.2       2 UNK        -0.5000 
     62 CA          5.9737  -10.5556  -43.6081 C.3       2 UNK         0.1400 
     63 CB          7.0662  -11.0452  -42.6451 C.3       2 UNK        -0.1800 
     64 N           5.3000  -11.7178  -44.1987 N.am      2 UNK        -0.5000 
     65 C           4.4257  -11.6663  -45.2163 C.2       1 UNK         0.5000 
     66 O           4.0823  -10.6180  -45.7638 O.2       1 UNK        -0.5000 
     67 C          -1.1639  -22.9070  -48.9142 C.2       11 UNK         0.5000 
     68 O          -1.2234  -23.9565  -49.5543 O.2       11 UNK        -0.5000 
     69 N          -2.2424  -22.2144  -48.5186 N.am      12 UNK        -0.5000 
     70 CA         -3.6321  -22.6211  -48.7337 C.3       12 UNK         0.1400 
     71 CB         -4.5746  -21.5187  -48.2292 C.3       12 UNK        -0.1800 
     72 C          -3.9702  -23.9589  -48.0562 C.2       12 UNK         0.5000 
     73 O          -4.5984  -24.8119  -48.6834 O.2       12 UNK        -0.5000 
     74 N          -3.5280  -24.1278  -46.8012 N.am      13 UNK        -0.5000 
     75 CA         -3.7018  -25.3531  -46.0212 C.3       13 UNK         0.1400 
     76 CB         -3.2838  -25.1075  -44.5639 C.3       13 UNK        -0.1800 
     77 C          -2.9415  -26.5492  -46.6211 C.2       13 UNK         0.5000 
     78 O          -3.5188  -27.6293  -46.7449 O.2       13 UNK        -0.5000 
     79 N          -1.6828  -26.3282  -47.0264 N.am      14 UNK        -0.5000 
     80 CA         -0.8278  -27.3169  -47.6893 C.3       14 UNK         0.1400 
     81 CB          0.5927  -26.7502  -47.8333 C.3       14 UNK        -0.1800 
     82 C          -1.3751  -27.7635  -49.0578 C.2       14 UNK         0.5000 
     83 O          -1.2834  -28.9439  -49.3960 O.2       14 UNK        -0.5000 
     84 N          -1.9696  -26.8201  -49.7989 N.am      15 UNK        -0.5000 
     85 CA         -2.6615  -27.0575  -51.0654 C.3       15 UNK         0.1400 
     86 CB         -2.7175  -25.7356  -51.8450 C.3       15 UNK        -0.1800 
     87 C          -4.0815  -27.6368  -50.8964 C.2       15 UNK         0.5000 
     88 O          -4.7283  -27.9211  -51.9044 O.2       15 UNK        -0.5000 
     89 N          -4.5673  -27.7614  -49.6508 N.am      16 UNK        -0.5000 
     90 CA         -5.9100  -28.2097  -49.2588 C.3       16 UNK         0.1400 
     91 CB         -6.0734  -29.7181  -49.5359 C.3       16 UNK        -0.1800 
     92 C          -7.0385  -27.3581  -49.8834 C.2       16 UNK         0.5000 
     93 O          -8.1008  -27.8845  -50.2184 O.2       16 UNK        -0.5000 
     94 N          -6.7596  -26.0579  -50.0592 N.am      17 UNK        -0.5000 
     95 CA         -7.5746  -25.0316  -50.7163 C.3       17 UNK         0.1400 
     96 CB         -8.8782  -24.7831  -49.9304 C.3       17 UNK        -0.1800 
     97 C          -7.8330  -25.2671  -52.2235 C.2       17 UNK         0.5000 
     98 O          -8.6440  -24.5472  -52.8086 O.2       17 UNK        -0.5000 
     99 N          -7.1365  -26.2304  -52.8480 N.am      18 UNK        -0.5000 
    100 CA        -7.2127  -26.5022  -54.2887 C.3       18 UNK         0.1400 
    101 CB        -6.7692  -27.9487  -54.5560 C.3       18 UNK        -0.1800 
    102 C         -6.3697  -25.5143  -55.1205 C.2       18 UNK         0.5000 
    103 O         -6.5776  -25.3985  -56.3290 O.2       18 UNK        -0.5000 
    104 N         -5.4458  -24.8167  -54.4553 N.am      19 UNK        -0.5000 
    105 CA        -4.6109  -23.7405  -54.9673 C.3       19 UNK         0.1400 
    106 CB        -3.3396  -24.3251  -55.6109 C.3       19 UNK        -0.1800 
    107 C         -4.2906  -22.8036  -53.7905 C.2       19 UNK         0.5000 
    108 O         -4.6873  -23.0931  -52.6571 O.2       19 UNK        -0.5000 
    109 N         -3.5842  -21.7021  -54.0830 N.am      20 UNK        -0.5000 
    110 CA        -3.1823  -20.6485  -53.1430 C.3       20 UNK         0.1400 
    111 CB        -2.1284  -21.1673  -52.1416 C.3       20 UNK        -0.1800 
    112 C         -4.3982  -19.9790  -52.4699 C.2       20 UNK         0.5000 
    113 O         -4.5005  -19.9380  -51.2434 O.2       20 UNK        -0.5000 
    114 N         -5.2991  -19.4423  -53.3080 N.am      21 UNK        -0.5000 
    115 CA        -6.5250  -18.7282  -52.9182 C.3       21 UNK         0.1400 
    116 CB        -7.3206  -18.3856  -54.1873 C.3       21 UNK        -0.1800 
    117 C         -6.2900  -17.4610  -52.0643 C.2       21 UNK         0.5000 
    118 O         -7.2238  -16.9695  -51.4293 O.2       21 UNK        -0.5000 
    119 N         -5.0418  -16.9817  -52.0466 N.am      22 UNK        -0.5000 
    120 CA        -4.4767  -16.0226  -51.0889 C.3       22 UNK         0.1400 
    121 C         -4.5656  -16.4555  -49.5932 C.2       22 UNK         0.5000 
    122 N         -4.6453  -17.7430  -49.2762 N.am      22 UNK        -0.7600 
    123 O         -4.5661  -15.6034  -48.7095 O.2       22 UNK        -0.5000 
    124 C124       -3.0141  -15.6702  -51.4770 C.3       23 UNK        -0.0398 
    125 S125       -1.9633  -17.1505  -51.7273 S.3       23 UNK        -0.2404 
    126 C126       -0.4007  -16.4204  -52.2974 C.3       23 UNK        -0.0205 
    127 H127        7.9193  -14.9716  -46.3459 H         1 UNK         0.0600 
    128 H128        6.7122  -15.8211  -45.3826 H         1 UNK         0.0600 
    129 H129        6.7426  -16.0252  -47.1388 H         1 UNK         0.0600 
    130 H130        4.7534  -14.8073  -45.0190 H         1 UNK         0.3000 
    131 H131        3.1351  -13.3060  -44.9131 H         1 UNK         0.0600 
    132 H132        2.2658  -12.1259  -46.9080 H         1 UNK         0.0800 
    133 H133        3.6741  -12.5631  -47.8264 H         1 UNK         0.0800 
    134 H134        3.1970  -14.0447  -49.6251 H         1 UNK         0.0800 
    135 H135        4.1089  -15.1985  -48.6875 H         1 UNK         0.0800 
    136 H136        0.9706  -14.7299  -50.6454 H         1 UNK         0.1150 
    137 H137        0.7893  -18.8285  -51.8844 H         1 UNK         0.1150 
    138 H138        3.7517  -17.5762  -49.0501 H         1 UNK         0.1150 
    139 H139        2.6318  -20.3033  -51.3552 H         1 UNK         0.0800 
    140 H140        3.9971  -19.6924  -50.4648 H         1 UNK         0.0800 
    141 H141        0.6899  -21.5648  -50.4318 H         1 UNK         0.0800 
    142 H142        0.0641  -20.3657  -49.3267 H         1 UNK         0.0800 
    143 H143        0.9135  -23.2073  -48.5564 H         1 UNK         0.0600 
    144 H144        0.4295  -21.0258  -46.8349 H         1 UNK         0.3000 
    145 H145       -0.7360  -22.8777  -43.9961 H         1 UNK         0.0600 
    146 H146        1.1653  -21.6297  -42.9764 H         1 UNK         0.0600 
    147 H147        1.7200  -23.0315  -43.8790 H         1 UNK         0.0600 
    148 H148        1.9012  -21.4253  -44.5648 H         1 UNK         0.0600 
    149 H149       -0.2329  -20.0870  -44.6781 H         1 UNK         0.3000 
    150 H150       -3.6320  -19.3486  -45.4657 H         1 UNK         0.0600 
    151 H151       -3.5642  -19.3080  -42.9600 H         1 UNK         0.0600 
    152 H152       -3.3456  -17.7010  -43.6384 H         1 UNK         0.0600 
    153 H153       -1.9578  -18.5873  -43.0111 H         1 UNK         0.0600 
    154 H154       -1.3888  -17.6371  -45.2368 H         1 UNK         0.3000 
    155 H155        0.0133  -18.1562  -48.4866 H         1 UNK         0.0600 
    156 H156       -0.3629  -15.6434  -48.4231 H         1 UNK         0.0600 
    157 H157       -1.6520  -15.9067  -47.2507 H         1 UNK         0.0600 
    158 H158       -1.7829  -16.5667  -48.8655 H         1 UNK         0.0600 
    159 H159        0.9050  -16.4006  -46.5655 H         1 UNK         0.3000 
    160 H160        2.8270  -18.5518  -44.4708 H         1 UNK         0.0600 
    161 H161        3.7783  -16.7135  -46.7186 H         1 UNK         0.0600 
    162 H162        4.1747  -18.4164  -46.5589 H         1 UNK         0.0600 
    163 H163        4.7208  -17.2778  -45.3402 H         1 UNK         0.0600 
    164 H164        2.3341  -15.6716  -44.9721 H         1 UNK         0.3000 
    165 H165        0.2281  -15.4044  -42.1013 H         1 UNK         0.0600 
    166 H166        2.9873  -14.2158  -42.7205 H         1 UNK         0.0600 
    167 H167        1.7787  -13.5257  -41.6360 H         1 UNK         0.0600 
    168 H168        2.5373  -15.0592  -41.2472 H         1 UNK         0.0600 
    169 H169        0.8569  -13.4089  -43.9287 H         1 UNK         0.3000 
    170 H170       -0.7624  -13.7448  -46.5221 H         1 UNK         0.0600 
    171 H171       -3.0621  -14.4655  -45.9577 H         1 UNK         0.0600 
    172 H172       -3.1346  -13.3152  -44.6328 H         1 UNK         0.0600 
    173 H173       -3.0411  -12.7463  -46.2989 H         1 UNK         0.0600 
    174 H174       -0.1714  -11.6942  -45.9993 H         1 UNK         0.3000 
    175 H175        0.2625   -9.8354  -45.0269 H         1 UNK         0.0600 
    176 H176       -0.9257   -7.9648  -43.8870 H         1 UNK         0.0600 
    177 H177       -2.0902   -9.0330  -44.6545 H         1 UNK         0.0600 
    178 H178       -1.8484   -9.1070  -42.9124 H         1 UNK         0.0600 
    179 H179        0.6131  -10.6735  -42.2735 H         1 UNK         0.3000 
    180 H180        3.1209   -8.3902  -41.4478 H         1 UNK         0.0600 
    181 H181        1.9333  -11.1571  -40.8326 H         1 UNK         0.0600 
    182 H182        1.3252   -9.6283  -40.1965 H         1 UNK         0.0600 
    183 H183        2.9363  -10.1771  -39.7743 H         1 UNK         0.0600 
    184 H184        3.8112  -11.1234  -42.3988 H         1 UNK         0.3000 
    185 H185        6.4561  -10.0030  -44.4172 H         1 UNK         0.0600 
    186 H186        7.7990  -11.6654  -43.1618 H         1 UNK         0.0600 
    187 H187        7.6058  -10.2044  -42.2069 H         1 UNK         0.0600 
    188 H188        6.6482  -11.6300  -41.8248 H         1 UNK         0.0600 
    189 H189        5.5524  -12.6209  -43.8249 H         1 UNK         0.3000 
    190 H190       -2.1042  -21.3224  -48.0475 H         1 UNK         0.3000 
    191 H191       -3.7895  -22.7408  -49.8068 H         1 UNK         0.0600 
    192 H192       -4.3519  -20.5648  -48.7042 H         1 UNK         0.0600 
    193 H193       -5.6137  -21.7608  -48.4548 H         1 UNK         0.0600 
    194 H194       -4.4934  -21.3759  -47.1516 H         1 UNK         0.0600 
    195 H195       -3.0477  -23.3611  -46.3453 H         1 UNK         0.3000 
    196 H196       -4.7654  -25.6007  -46.0281 H         1 UNK         0.0600 
    197 H197       -3.4426  -26.0000  -43.9574 H         1 UNK         0.0600 
    198 H198       -3.8674  -24.3024  -44.1171 H         1 UNK         0.0600 
    199 H199       -2.2304  -24.8404  -44.4838 H         1 UNK         0.0600 
    200 H200       -1.2645  -25.4173  -46.8480 H         1 UNK         0.3000 
    201 H201       -0.7799  -28.1990  -47.0476 H         1 UNK         0.0600 
    202 H202        1.0208  -26.5090  -46.8602 H         1 UNK         0.0600 
    203 H203        0.6033  -25.8419  -48.4369 H         1 UNK         0.0600 
    204 H204        1.2562  -27.4719  -48.3113 H         1 UNK         0.0600 
    205 H205       -1.9438  -25.8577  -49.4758 H         1 UNK         0.3000 
    206 H206       -2.0864  -27.7754  -51.6534 H         1 UNK         0.0600 
    207 H207       -1.7180  -25.3481  -52.0427 H         1 UNK         0.0600 
    208 H208       -3.2107  -25.8691  -52.8073 H         1 UNK         0.0600 
    209 H209       -3.2685  -24.9720  -51.2948 H         1 UNK         0.0600 
    210 H210       -3.9713  -27.4786  -48.8829 H         1 UNK         0.3000 
    211 H211       -5.9789  -28.0603  -48.1805 H         1 UNK         0.0600 
    212 H212       -6.0696  -29.9358  -50.6045 H         1 UNK         0.0600 
    213 H213       -7.0134  -30.0922  -49.1286 H         1 UNK         0.0600 
    214 H214       -5.2700  -30.2918  -49.0737 H         1 UNK         0.0600 
    215 H215       -5.8670  -25.7231  -49.6994 H         1 UNK         0.3000 
    216 H216       -6.9827  -24.1165  -50.6626 H         1 UNK         0.0600 
    217 H217       -8.6726  -24.5930  -48.8769 H         1 UNK         0.0600 
    218 H218       -9.5578  -25.6332  -49.9928 H         1 UNK         0.0600 
    219 H219       -9.4096  -23.9127  -50.3167 H         1 UNK         0.0600 
    220 H220       -6.4771  -26.7905  -52.3186 H         1 UNK         0.3000 
    221 H221       -8.2516  -26.4048  -54.6107 H         1 UNK         0.0600 
    222 H222       -5.7101  -28.0926  -54.3412 H         1 UNK         0.0600 
    223 H223       -7.3352  -28.6559  -53.9493 H         1 UNK         0.0600 
    224 H224       -6.9275  -28.2160  -55.6015 H         1 UNK         0.0600 
    225 H225       -5.3967  -24.9183  -53.4492 H         1 UNK         0.3000 
    226 H226       -5.1719  -23.1700  -55.7103 H         1 UNK         0.0600 
    227 H227       -3.5875  -25.0326  -56.4023 H         1 UNK         0.0600 
    228 H228       -2.7285  -23.5426  -56.0612 H         1 UNK         0.0600 
    229 H229       -2.7190  -24.8455  -54.8815 H         1 UNK         0.0600 
    230 H230       -3.3102  -21.5526  -55.0440 H         1 UNK         0.3000 
    231 H231       -2.7004  -19.8685  -53.7346 H         1 UNK         0.0600 
    232 H232       -1.8276  -20.3841  -51.4441 H         1 UNK         0.0600 
    233 H233       -1.2299  -21.5046  -52.6576 H         1 UNK         0.0600 
    234 H234       -2.5032  -22.0025  -51.5530 H         1 UNK         0.0600 
    235 H235       -5.1369  -19.5301  -54.3006 H         1 UNK         0.3000 
    236 H236       -7.1226  -19.4127  -52.3130 H         1 UNK         0.0600 
    237 H237       -8.2578  -17.8854  -53.9394 H         1 UNK         0.0600 
    238 H238       -6.7589  -17.7222  -54.8462 H         1 UNK         0.0600 
    239 H239       -7.5741  -19.2844  -54.7498 H         1 UNK         0.0600 
    240 H240       -4.3557  -17.4676  -52.6039 H         1 UNK         0.3000 
    241 H241       -5.0702  -15.1106  -51.1733 H         1 UNK         0.0600 
    242 H242       -4.6039  -18.4624  -49.9931 H         1 UNK         0.3800 
    243 H243       -4.6959  -18.0096  -48.3079 H         1 UNK         0.3800 
    244 H244       -3.0194  -15.0998  -52.4067 H         1 UNK         0.0800 
    245 H245       -2.5527  -15.0196  -50.7316 H         1 UNK         0.0800 
    246 H246       -0.1703  -16.8127  -53.2887 H         1 UNK         0.0800 
    247 H247       -0.5066  -15.3410  -52.4155 H         1 UNK         0.0800 
@<TRIPOS>BOND
     1    1    2 1    
     2    1  127 1    
     3    1  128 1    
     4    1  129 1    
     5    2    3 2    
     6    2    4 am   BACKBONE|DICT|INTERRES
     7    4    5 1    
     8    4  130 1    
     9    5    6 1    
    10    5   65 1    
    11    5  131 1    
    12    6    7 1    
    13    6  132 1    
    14    6  133 1    
    15    7    8 1    
    16    8    9 1    
    17    8  134 1    
    18    8  135 1    
    19    9   10 ar   
    20    9   14 ar   
    21   10   11 ar   
    22   10  136 1    
    23   11   12 ar   
    24   11  126 1    
    25   12   13 ar   
    26   12  137 1    
    27   13   14 ar   
    28   13   15 1    
    29   14  138 1    
    30   15   16 1    
    31   15  139 1    
    32   15  140 1    
    33   16   17 1    
    34   17   18 1    
    35   17  141 1    
    36   17  142 1    
    37   18   19 1    
    38   18   67 1    
    39   18  143 1    
    40   19   20 am   BACKBONE|DICT|INTERRES
    41   19  144 1    
    42   20   21 2    
    43   20   22 1    
    44   22   23 1    
    45   22   24 1    
    46   22  145 1    
    47   23  146 1    
    48   23  147 1    
    49   23  148 1    
    50   24   25 am   BACKBONE|DICT|INTERRES
    51   24  149 1    
    52   25   26 2    
    53   25   27 1    
    54   27   28 1    
    55   27   29 1    
    56   27  150 1    
    57   28  151 1    
    58   28  152 1    
    59   28  153 1    
    60   29   30 am   BACKBONE|DICT|INTERRES
    61   29  154 1    
    62   30   31 2    
    63   30   32 1    
    64   32   33 1    
    65   32   34 1    
    66   32  155 1    
    67   33  156 1    
    68   33  157 1    
    69   33  158 1    
    70   34   35 am   BACKBONE|DICT|INTERRES
    71   34  159 1    
    72   35   36 2    
    73   35   37 1    
    74   37   38 1    
    75   37   39 1    
    76   37  160 1    
    77   38  161 1    
    78   38  162 1    
    79   38  163 1    
    80   39   40 am   BACKBONE|DICT|INTERRES
    81   39  164 1    
    82   40   41 2    
    83   40   42 1    
    84   42   43 1    
    85   42   44 1    
    86   42  165 1    
    87   43  166 1    
    88   43  167 1    
    89   43  168 1    
    90   44   45 am   BACKBONE|DICT|INTERRES
    91   44  169 1    
    92   45   46 2    
    93   45   47 1    
    94   47   48 1    
    95   47   49 1    
    96   47  170 1    
    97   48  171 1    
    98   48  172 1    
    99   48  173 1    
   100   49   50 am   BACKBONE|DICT|INTERRES
   101   49  174 1    
   102   50   51 2    
   103   50   52 1    
   104   52   53 1    
   105   52   54 1    
   106   52  175 1    
   107   53  176 1    
   108   53  177 1    
   109   53  178 1    
   110   54   55 am   BACKBONE|DICT|INTERRES
   111   54  179 1    
   112   55   56 2    
   113   55   57 1    
   114   57   58 1    
   115   57   59 1    
   116   57  180 1    
   117   58  181 1    
   118   58  182 1    
   119   58  183 1    
   120   59   60 am   BACKBONE|DICT|INTERRES
   121   59  184 1    
   122   60   61 2    
   123   60   62 1    
   124   62   63 1    
   125   62   64 1    
   126   62  185 1    
   127   63  186 1    
   128   63  187 1    
   129   63  188 1    
   130   64   65 am   BACKBONE|DICT|INTERRES
   131   64  189 1    
   132   65   66 2    
   133   67   68 2    
   134   67   69 am   BACKBONE|DICT|INTERRES
   135   69   70 1    
   136   69  190 1    
   137   70   71 1    
   138   70   72 1    
   139   70  191 1    
   140   71  192 1    
   141   71  193 1    
   142   71  194 1    
   143   72   73 2    
   144   72   74 am   BACKBONE|DICT|INTERRES
   145   74   75 1    
   146   74  195 1    
   147   75   76 1    
   148   75   77 1    
   149   75  196 1    
   150   76  197 1    
   151   76  198 1    
   152   76  199 1    
   153   77   78 2    
   154   77   79 am   BACKBONE|DICT|INTERRES
   155   79   80 1    
   156   79  200 1    
   157   80   81 1    
   158   80   82 1    
   159   80  201 1    
   160   81  202 1    
   161   81  203 1    
   162   81  204 1    
   163   82   83 2    
   164   82   84 am   BACKBONE|DICT|INTERRES
   165   84   85 1    
   166   84  205 1    
   167   85   86 1    
   168   85   87 1    
   169   85  206 1    
   170   86  207 1    
   171   86  208 1    
   172   86  209 1    
   173   87   88 2    
   174   87   89 am   BACKBONE|DICT|INTERRES
   175   89   90 1    
   176   89  210 1    
   177   90   91 1    
   178   90   92 1    
   179   90  211 1    
   180   91  212 1    
   181   91  213 1    
   182   91  214 1    
   183   92   93 2    
   184   92   94 am   BACKBONE|DICT|INTERRES
   185   94   95 1    
   186   94  215 1    
   187   95   96 1    
   188   95   97 1    
   189   95  216 1    
   190   96  217 1    
   191   96  218 1    
   192   96  219 1    
   193   97   98 2    
   194   97   99 am   BACKBONE|DICT|INTERRES
   195   99  100 1    
   196   99  220 1    
   197  100  101 1    
   198  100  102 1    
   199  100  221 1    
   200  101  222 1    
   201  101  223 1    
   202  101  224 1    
   203  102  103 2    
   204  102  104 am   BACKBONE|DICT|INTERRES
   205  104  105 1    
   206  104  225 1    
   207  105  106 1    
   208  105  107 1    
   209  105  226 1    
   210  106  227 1    
   211  106  228 1    
   212  106  229 1    
   213  107  108 2    
   214  107  109 am   BACKBONE|DICT|INTERRES
   215  109  110 1    
   216  109  230 1    
   217  110  111 1    
   218  110  112 1    
   219  110  231 1    
   220  111  232 1    
   221  111  233 1    
   222  111  234 1    
   223  112  113 2    
   224  112  114 am   BACKBONE|DICT|INTERRES
   225  114  115 1    
   226  114  235 1    
   227  115  116 1    
   228  115  117 1    
   229  115  236 1    
   230  116  237 1    
   231  116  238 1    
   232  116  239 1    
   233  117  118 2    
   234  117  119 am   BACKBONE|DICT|INTERRES
   235  119  120 1    
   236  119  240 1    
   237  120  121 1    
   238  120  124 1    
   239  120  241 1    
   240  121  122 am   BACKBONE|DICT|INTERRES
   241  121  123 2    
   242  122  242 1    
   243  122  243 1    
   244  124  125 1    
   245  124  244 1    
   246  124  245 1    
   247  125  126 1    
   248  126  246 1    
   249  126  247 1    
@<TRIPOS>SUBSTRUCTURE
     1 UNK         1 GROUP             0       ****    0 ROOT    
