@<TRIPOS>MOLECULE
3R540
247   249    1
SMALL
USER_CHARGES


@<TRIPOS>ATOM
      1 CA          1.3227  -11.3049  -44.9732 C.3       0 UNK        -0.1800 
      2 C           2.2993  -11.8230  -46.0192 C.2       0 UNK         0.5000 
      3 O           3.4050  -11.2958  -46.1407 O.2       0 UNK        -0.5000 
      4 N           1.9024  -12.8695  -46.7566 N.am      1 UNK        -0.5000 
      5 CA          2.6696  -13.5327  -47.8242 C.3       1 UNK         0.1400 
      6 C6          1.8552  -14.6716  -48.4817 C.3       23 UNK        -0.0398 
      7 S7          0.3424  -14.0563  -49.2933 S.3       23 UNK        -0.2404 
      8 C8          0.4793  -14.8271  -50.9364 C.3       23 UNK        -0.0205 
      9 C9          0.0739  -16.2926  -50.8972 C.ar      23 UNK        -0.0193 
     10 C10        -1.2681  -16.6437  -51.0591 C.ar      23 UNK        -0.1150 
     11 C11        -1.6589  -17.9845  -51.0513 C.ar      23 UNK        -0.0193 
     12 C12        -0.6987  -18.9787  -50.8457 C.ar      23 UNK        -0.1150 
     13 C13         0.6477  -18.6422  -50.6736 C.ar      23 UNK        -0.0193 
     14 C14         1.0297  -17.2972  -50.7152 C.ar      23 UNK        -0.1150 
     15 C15         1.6866  -19.7395  -50.4771 C.3       23 UNK        -0.0205 
     16 S16         2.6730  -19.5618  -48.9506 S.3       23 UNK        -0.2404 
     17 C17         1.4145  -19.4262  -47.6365 C.3       23 UNK        -0.0398 
     18 CA          0.8352  -20.7931  -47.1808 C.3       11 UNK         0.1400 
     19 N           0.6511  -20.8627  -45.7267 N.am      11 UNK        -0.5000 
     20 C           0.2850  -21.9576  -45.0445 C.2       10 UNK         0.5000 
     21 O           0.1480  -23.0660  -45.5595 O.2       10 UNK        -0.5000 
     22 CA         -0.0444  -21.7764  -43.5495 C.3       10 UNK         0.1400 
     23 CB          1.2186  -21.8988  -42.6850 C.3       10 UNK        -0.1800 
     24 N          -0.7246  -20.5086  -43.2734 N.am      10 UNK        -0.5000 
     25 C          -1.9420  -20.1929  -43.7395 C.2       9 UNK         0.5000 
     26 O          -2.6448  -20.9725  -44.3808 O.2       9 UNK        -0.5000 
     27 CA         -2.4370  -18.7537  -43.5072 C.3       9 UNK         0.1400 
     28 CB         -3.0799  -18.6105  -42.1203 C.3       9 UNK        -0.1800 
     29 N          -1.3758  -17.7590  -43.6714 N.am      9 UNK        -0.5000 
     30 C          -0.7284  -17.5202  -44.8213 C.2       8 UNK         0.5000 
     31 O          -1.0022  -18.0765  -45.8849 O.2       8 UNK        -0.5000 
     32 CA          0.4666  -16.5486  -44.7570 C.3       8 UNK         0.1400 
     33 CB         -0.0050  -15.0881  -44.7839 C.3       8 UNK        -0.1800 
     34 N           1.3004  -16.7740  -43.5747 N.am      8 UNK        -0.5000 
     35 C           1.9904  -17.8998  -43.3410 C.2       7 UNK         0.5000 
     36 O           2.0662  -18.8255  -44.1472 O.2       7 UNK        -0.5000 
     37 CA          2.6539  -18.0444  -41.9595 C.3       7 UNK         0.1400 
     38 CB          4.0464  -17.4019  -41.9261 C.3       7 UNK        -0.1800 
     39 N           1.8262  -17.4732  -40.8990 N.am      7 UNK        -0.5000 
     40 C           0.7008  -18.0385  -40.4418 C.2       6 UNK         0.5000 
     41 O           0.2682  -19.1174  -40.8453 O.2       6 UNK        -0.5000 
     42 CA         -0.0914  -17.2446  -39.3872 C.3       6 UNK         0.1400 
     43 CB          0.4547  -17.5222  -37.9789 C.3       6 UNK        -0.1800 
     44 N          -0.0704  -15.8028  -39.6401 N.am      6 UNK        -0.5000 
     45 C          -0.6565  -15.2108  -40.6906 C.2       5 UNK         0.5000 
     46 O          -1.3140  -15.8171  -41.5348 O.2       5 UNK        -0.5000 
     47 CA         -0.4219  -13.6979  -40.8533 C.3       5 UNK         0.1400 
     48 CB         -1.4693  -12.8995  -40.0637 C.3       5 UNK        -0.1800 
     49 N           0.9219  -13.2836  -40.4405 N.am      5 UNK        -0.5000 
     50 C           2.0499  -13.6640  -41.0531 C.2       4 UNK         0.5000 
     51 O           2.0773  -14.4122  -42.0338 O.2       4 UNK        -0.5000 
     52 CA          3.3654  -13.1786  -40.4264 C.3       4 UNK         0.1400 
     53 CB          3.9403  -14.2495  -39.4872 C.3       4 UNK        -0.1800 
     54 N           4.3452  -12.8798  -41.4651 N.am      4 UNK        -0.5000 
     55 C           4.3986  -11.7340  -42.1507 C.2       3 UNK         0.5000 
     56 O           3.6630  -10.7716  -41.9276 O.2       3 UNK        -0.5000 
     57 CA          5.4384  -11.6434  -43.2816 C.3       3 UNK         0.1400 
     58 CB          6.8709  -11.5106  -42.7291 C.3       3 UNK        -0.1800 
     59 N           5.3318  -12.7181  -44.2752 N.am      3 UNK        -0.5000 
     60 C           5.5961  -14.0280  -44.1506 C.2       2 UNK         0.5000 
     61 O           5.9822  -14.5552  -43.1064 O.2       2 UNK        -0.5000 
     62 CA          5.3619  -14.8776  -45.4140 C.3       2 UNK         0.1400 
     63 CB          5.2671  -16.3885  -45.1466 C.3       2 UNK        -0.1800 
     64 N           4.1390  -14.4374  -46.0788 N.am      2 UNK        -0.5000 
     65 C           4.0385  -14.0792  -47.3631 C.2       1 UNK         0.5000 
     66 O           4.9655  -14.1495  -48.1707 O.2       1 UNK        -0.5000 
     67 C          -0.4758  -21.1201  -47.9264 C.2       11 UNK         0.5000 
     68 O          -0.4739  -21.9487  -48.8368 O.2       11 UNK        -0.5000 
     69 N          -1.5835  -20.4979  -47.4976 N.am      12 UNK        -0.5000 
     70 CA         -2.9228  -20.7462  -48.0315 C.3       12 UNK         0.1400 
     71 CB         -3.9092  -19.7112  -47.4744 C.3       12 UNK        -0.1800 
     72 C          -3.4141  -22.1831  -47.7779 C.2       12 UNK         0.5000 
     73 O          -4.0151  -22.7795  -48.6713 O.2       12 UNK        -0.5000 
     74 N          -3.1141  -22.7323  -46.5930 N.am      13 UNK        -0.5000 
     75 CA         -3.3844  -24.1239  -46.2286 C.3       13 UNK         0.1400 
     76 CB         -3.1212  -24.3335  -44.7307 C.3       13 UNK        -0.1800 
     77 C          -2.5774  -25.1253  -47.0757 C.2       13 UNK         0.5000 
     78 O          -3.1383  -26.1281  -47.5166 O.2       13 UNK        -0.5000 
     79 N          -1.2991  -24.8173  -47.3415 N.am      14 UNK        -0.5000 
     80 CA         -0.4269  -25.5796  -48.2418 C.3       14 UNK         0.1400 
     81 CB          1.0165  -25.0677  -48.1233 C.3       14 UNK        -0.1800 
     82 C          -0.9051  -25.5481  -49.7077 C.2       14 UNK         0.5000 
     83 O          -0.7455  -26.5387  -50.4209 O.2       14 UNK        -0.5000 
     84 N          -1.5392  -24.4379  -50.1087 N.am      15 UNK        -0.5000 
     85 CA         -2.2424  -24.2661  -51.3822 C.3       15 UNK         0.1400 
     86 CB         -2.2759  -22.7677  -51.7340 C.3       15 UNK        -0.1800 
     87 C          -3.6632  -24.8793  -51.3873 C.2       15 UNK         0.5000 
     88 O          -4.4130  -24.6399  -52.3348 O.2       15 UNK        -0.5000 
     89 N          -4.0231  -25.6355  -50.3374 N.am      16 UNK        -0.5000 
     90 CA         -5.2910  -26.3426  -50.1302 C.3       16 UNK         0.1400 
     91 CB         -5.4394  -27.4993  -51.1394 C.3       16 UNK        -0.1800 
     92 C          -6.5063  -25.3950  -50.0908 C.2       16 UNK         0.5000 
     93 O          -7.5362  -25.6790  -50.7036 O.2       16 UNK        -0.5000 
     94 N          -6.3415  -24.2738  -49.3731 N.am      17 UNK        -0.5000 
     95 CA         -7.2729  -23.1479  -49.2528 C.3       17 UNK         0.1400 
     96 CB         -8.6045  -23.5766  -48.6008 C.3       17 UNK        -0.1800 
     97 C          -7.4470  -22.4073  -50.5938 C.2       17 UNK         0.5000 
     98 O          -8.5602  -22.0130  -50.9451 O.2       17 UNK        -0.5000 
     99 N          -6.3228  -22.2411  -51.3084 N.am      18 UNK        -0.5000 
    100 CA        -6.1906  -21.6333  -52.6355 C.3       18 UNK         0.1400 
    101 CB        -6.5325  -20.1301  -52.5799 C.3       18 UNK        -0.1800 
    102 C         -6.9922  -22.4015  -53.7064 C.2       18 UNK         0.5000 
    103 O         -7.8106  -21.8125  -54.4179 O.2       18 UNK        -0.5000 
    104 N         -6.7521  -23.7172  -53.7882 N.am      19 UNK        -0.5000 
    105 CA        -7.3558  -24.6172  -54.7695 C.3       19 UNK         0.1400 
    106 CB        -7.0165  -26.0708  -54.4076 C.3       19 UNK        -0.1800 
    107 C         -6.8810  -24.2657  -56.1908 C.2       19 UNK         0.5000 
    108 O         -5.7005  -24.4424  -56.4970 O.2       19 UNK        -0.5000 
    109 N         -7.8086  -23.7426  -57.0060 N.am      20 UNK        -0.5000 
    110 CA        -7.5803  -23.1341  -58.3231 C.3       20 UNK         0.1400 
    111 CB        -7.0576  -24.1690  -59.3427 C.3       20 UNK        -0.1800 
    112 C         -6.7106  -21.8586  -58.2365 C.2       20 UNK         0.5000 
    113 O         -5.8748  -21.6184  -59.1101 O.2       20 UNK        -0.5000 
    114 N         -6.9468  -21.0669  -57.1783 N.am      21 UNK        -0.5000 
    115 CA        -6.2329  -19.8512  -56.7761 C.3       21 UNK         0.1400 
    116 CB        -6.2610  -18.7814  -57.8909 C.3       21 UNK        -0.1800 
    117 C         -4.8121  -20.1454  -56.2481 C.2       21 UNK         0.5000 
    118 O         -4.4557  -21.3028  -56.0180 O.2       21 UNK        -0.5000 
    119 N         -4.0383  -19.0832  -56.0100 N.am      22 UNK        -0.5000 
    120 CA        -2.6831  -19.1428  -55.4393 C.3       22 UNK         0.1400 
    121 C         -1.7457  -17.9986  -55.9262 C.2       22 UNK         0.5000 
    122 N         -2.1050  -17.2352  -56.9525 N.am      22 UNK        -0.7600 
    123 O         -0.6573  -17.8129  -55.3897 O.2       22 UNK        -0.5000 
    124 C124       -2.7009  -19.3294  -53.8968 C.3       23 UNK        -0.0398 
    125 S125       -3.6179  -18.0232  -53.0067 S.3       23 UNK        -0.2404 
    126 C126       -3.1160  -18.3504  -51.2878 C.3       23 UNK        -0.0205 
    127 H127        1.7050  -11.5066  -43.9724 H         1 UNK         0.0600 
    128 H128        0.3433  -11.7751  -45.0641 H         1 UNK         0.0600 
    129 H129        1.1933  -10.2280  -45.0798 H         1 UNK         0.0600 
    130 H130        0.9643  -13.2209  -46.6322 H         1 UNK         0.3000 
    131 H131        2.8768  -12.7765  -48.5843 H         1 UNK         0.0600 
    132 H132        1.5707  -15.4254  -47.7458 H         1 UNK         0.0800 
    133 H133        2.4689  -15.1887  -49.2205 H         1 UNK         0.0800 
    134 H134        1.4924  -14.7150  -51.3255 H         1 UNK         0.0800 
    135 H135       -0.1686  -14.2882  -51.6294 H         1 UNK         0.0800 
    136 H136       -2.0101  -15.8725  -51.2131 H         1 UNK         0.1150 
    137 H137       -0.9977  -20.0172  -50.8354 H         1 UNK         0.1150 
    138 H138        2.0723  -17.0377  -50.6013 H         1 UNK         0.1150 
    139 H139        1.2185  -20.7244  -50.4815 H         1 UNK         0.0800 
    140 H140        2.3659  -19.7290  -51.3303 H         1 UNK         0.0800 
    141 H141        0.6388  -18.7163  -47.9293 H         1 UNK         0.0800 
    142 H142        1.9263  -18.9463  -46.8021 H         1 UNK         0.0800 
    143 H143        1.5531  -21.5777  -47.4291 H         1 UNK         0.0600 
    144 H144        0.8060  -20.0054  -45.2071 H         1 UNK         0.3000 
    145 H145       -0.7225  -22.5813  -43.2603 H         1 UNK         0.0600 
    146 H146        0.9835  -21.7977  -41.6254 H         1 UNK         0.0600 
    147 H147        1.6885  -22.8734  -42.8227 H         1 UNK         0.0600 
    148 H148        1.9602  -21.1425  -42.9378 H         1 UNK         0.0600 
    149 H149       -0.2341  -19.8407  -42.6887 H         1 UNK         0.3000 
    150 H150       -3.2035  -18.5445  -44.2561 H         1 UNK         0.0600 
    151 H151       -3.8969  -19.3220  -41.9943 H         1 UNK         0.0600 
    152 H152       -3.4936  -17.6118  -41.9792 H         1 UNK         0.0600 
    153 H153       -2.3621  -18.7908  -41.3207 H         1 UNK         0.0600 
    154 H154       -1.1395  -17.2067  -42.8519 H         1 UNK         0.3000 
    155 H155        1.0885  -16.7218  -45.6375 H         1 UNK         0.0600 
    156 H156       -0.7179  -14.8779  -43.9870 H         1 UNK         0.0600 
    157 H157       -0.4950  -14.8562  -45.7302 H         1 UNK         0.0600 
    158 H158        0.8329  -14.4028  -44.6637 H         1 UNK         0.0600 
    159 H159        1.3426  -16.0249  -42.8906 H         1 UNK         0.3000 
    160 H160        2.7768  -19.1107  -41.7588 H         1 UNK         0.0600 
    161 H161        4.0114  -16.3428  -42.1823 H         1 UNK         0.0600 
    162 H162        4.7157  -17.8938  -42.6321 H         1 UNK         0.0600 
    163 H163        4.5008  -17.4949  -40.9398 H         1 UNK         0.0600 
    164 H164        2.0913  -16.5642  -40.5521 H         1 UNK         0.3000 
    165 H165       -1.1291  -17.5827  -39.4248 H         1 UNK         0.0600 
    166 H166       -0.1451  -17.0225  -37.2180 H         1 UNK         0.0600 
    167 H167        0.4352  -18.5900  -37.7568 H         1 UNK         0.0600 
    168 H168        1.4858  -17.1830  -37.8706 H         1 UNK         0.0600 
    169 H169        0.4457  -15.2302  -38.9889 H         1 UNK         0.3000 
    170 H170       -0.5371  -13.4571  -41.9122 H         1 UNK         0.0600 
    171 H171       -2.4801  -13.1759  -40.3670 H         1 UNK         0.0600 
    172 H172       -1.3884  -13.0768  -38.9906 H         1 UNK         0.0600 
    173 H173       -1.3613  -11.8285  -40.2368 H         1 UNK         0.0600 
    174 H174        0.9785  -12.6725  -39.6383 H         1 UNK         0.3000 
    175 H175        3.1723  -12.2761  -39.8423 H         1 UNK         0.0600 
    176 H176        4.1845  -15.1675  -40.0209 H         1 UNK         0.0600 
    177 H177        4.8506  -13.8964  -39.0023 H         1 UNK         0.0600 
    178 H178        3.2313  -14.5042  -38.6986 H         1 UNK         0.0600 
    179 H179        4.9406  -13.6416  -41.7774 H         1 UNK         0.3000 
    180 H180        5.2202  -10.7249  -43.8292 H         1 UNK         0.0600 
    181 H181        7.1716  -12.3826  -42.1480 H         1 UNK         0.0600 
    182 H182        6.9538  -10.6421  -42.0748 H         1 UNK         0.0600 
    183 H183        7.5928  -11.3799  -43.5352 H         1 UNK         0.0600 
    184 H184        4.9545  -12.4093  -45.1646 H         1 UNK         0.3000 
    185 H185        6.2314  -14.7036  -46.0509 H         1 UNK         0.0600 
    186 H186        6.1162  -16.7502  -44.5655 H         1 UNK         0.0600 
    187 H187        4.3552  -16.6346  -44.6068 H         1 UNK         0.0600 
    188 H188        5.2535  -16.9479  -46.0821 H         1 UNK         0.0600 
    189 H189        3.3321  -14.3169  -45.4831 H         1 UNK         0.3000 
    190 H190       -1.4984  -19.7979  -46.7666 H         1 UNK         0.3000 
    191 H191       -2.8716  -20.6109  -49.1120 H         1 UNK         0.0600 
    192 H192       -4.0064  -19.7869  -46.3915 H         1 UNK         0.0600 
    193 H193       -4.9021  -19.8490  -47.9043 H         1 UNK         0.0600 
    194 H194       -3.5889  -18.6963  -47.7116 H         1 UNK         0.0600 
    195 H195       -2.6874  -22.1464  -45.8802 H         1 UNK         0.3000 
    196 H196       -4.4441  -24.3130  -46.4128 H         1 UNK         0.0600 
    197 H197       -3.3829  -25.3481  -44.4282 H         1 UNK         0.0600 
    198 H198       -3.7160  -23.6492  -44.1254 H         1 UNK         0.0600 
    199 H199       -2.0726  -24.1783  -44.4794 H         1 UNK         0.0600 
    200 H200       -0.8866  -24.0049  -46.8908 H         1 UNK         0.3000 
    201 H201       -0.4427  -26.6211  -47.9144 H         1 UNK         0.0600 
    202 H202        1.3806  -25.1502  -47.0991 H         1 UNK         0.0600 
    203 H203        1.1029  -24.0242  -48.4249 H         1 UNK         0.0600 
    204 H204        1.6893  -25.6481  -48.7556 H         1 UNK         0.0600 
    205 H205       -1.5633  -23.6489  -49.4722 H         1 UNK         0.3000 
    206 H206       -1.6759  -24.7774  -52.1627 H         1 UNK         0.0600 
    207 H207       -1.2722  -22.3423  -51.7369 H         1 UNK         0.0600 
    208 H208       -2.6958  -22.6079  -52.7276 H         1 UNK         0.0600 
    209 H209       -2.8782  -22.1982  -51.0272 H         1 UNK         0.0600 
    210 H210       -3.3599  -25.7348  -49.5784 H         1 UNK         0.3000 
    211 H211       -5.2340  -26.7892  -49.1369 H         1 UNK         0.0600 
    212 H212       -5.4854  -27.1390  -52.1657 H         1 UNK         0.0600 
    213 H213       -6.3472  -28.0735  -50.9507 H         1 UNK         0.0600 
    214 H214       -4.5994  -28.1902  -51.0677 H         1 UNK         0.0600 
    215 H215       -5.4231  -24.0965  -48.9764 H         1 UNK         0.3000 
    216 H216       -6.7984  -22.4354  -48.5765 H         1 UNK         0.0600 
    217 H217       -9.2229  -22.7072  -48.3749 H         1 UNK         0.0600 
    218 H218       -8.4322  -24.1041  -47.6628 H         1 UNK         0.0600 
    219 H219       -9.1881  -24.2283  -49.2513 H         1 UNK         0.0600 
    220 H220       -5.4772  -22.6431  -50.9283 H         1 UNK         0.3000 
    221 H221       -5.1398  -21.7221  -52.9142 H         1 UNK         0.0600 
    222 H222       -7.5919  -19.9579  -52.3886 H         1 UNK         0.0600 
    223 H223       -5.9668  -19.6266  -51.7964 H         1 UNK         0.0600 
    224 H224       -6.2880  -19.6407  -53.5221 H         1 UNK         0.0600 
    225 H225       -6.0200  -24.1137  -53.2036 H         1 UNK         0.3000 
    226 H226       -8.4403  -24.5024  -54.7135 H         1 UNK         0.0600 
    227 H227       -7.4200  -26.3350  -53.4303 H         1 UNK         0.0600 
    228 H228       -7.4425  -26.7640  -55.1338 H         1 UNK         0.0600 
    229 H229       -5.9388  -26.2379  -54.3849 H         1 UNK         0.0600 
    230 H230       -8.7464  -23.6366  -56.6437 H         1 UNK         0.3000 
    231 H231       -8.5584  -22.8028  -58.6746 H         1 UNK         0.0600 
    232 H232       -7.6933  -25.0540  -59.3680 H         1 UNK         0.0600 
    233 H233       -6.0415  -24.4910  -59.1143 H         1 UNK         0.0600 
    234 H234       -7.0458  -23.7502  -60.3495 H         1 UNK         0.0600 
    235 H235       -7.5890  -21.4145  -56.4747 H         1 UNK         0.3000 
    236 H236       -6.7949  -19.4550  -55.9296 H         1 UNK         0.0600 
    237 H237       -5.9714  -17.8025  -57.5084 H         1 UNK         0.0600 
    238 H238       -5.5821  -19.0259  -58.7084 H         1 UNK         0.0600 
    239 H239       -7.2621  -18.6741  -58.3086 H         1 UNK         0.0600 
    240 H240       -4.4045  -18.1549  -56.1618 H         1 UNK         0.3000 
    241 H241       -2.2047  -20.0336  -55.8506 H         1 UNK         0.0600 
    242 H242       -1.4798  -16.5055  -57.2580 H         1 UNK         0.3800 
    243 H243       -2.9516  -17.4078  -57.4692 H         1 UNK         0.3800 
    244 H244       -3.1619  -20.2862  -53.6515 H         1 UNK         0.0800 
    245 H245       -1.6821  -19.3891  -53.5123 H         1 UNK         0.0800 
    246 H246       -3.3033  -19.3994  -51.0575 H         1 UNK         0.0800 
    247 H247       -3.7468  -17.7683  -50.6145 H         1 UNK         0.0800 
@<TRIPOS>BOND
     1    1    2 1    
     2    1  127 1    
     3    1  128 1    
     4    1  129 1    
     5    2    3 2    
     6    2    4 am   BACKBONE|DICT|INTERRES
     7    4    5 1    
     8    4  130 1    
     9    5    6 1    
    10    5   65 1    
    11    5  131 1    
    12    6    7 1    
    13    6  132 1    
    14    6  133 1    
    15    7    8 1    
    16    8    9 1    
    17    8  134 1    
    18    8  135 1    
    19    9   10 ar   
    20    9   14 ar   
    21   10   11 ar   
    22   10  136 1    
    23   11   12 ar   
    24   11  126 1    
    25   12   13 ar   
    26   12  137 1    
    27   13   14 ar   
    28   13   15 1    
    29   14  138 1    
    30   15   16 1    
    31   15  139 1    
    32   15  140 1    
    33   16   17 1    
    34   17   18 1    
    35   17  141 1    
    36   17  142 1    
    37   18   19 1    
    38   18   67 1    
    39   18  143 1    
    40   19   20 am   BACKBONE|DICT|INTERRES
    41   19  144 1    
    42   20   21 2    
    43   20   22 1    
    44   22   23 1    
    45   22   24 1    
    46   22  145 1    
    47   23  146 1    
    48   23  147 1    
    49   23  148 1    
    50   24   25 am   BACKBONE|DICT|INTERRES
    51   24  149 1    
    52   25   26 2    
    53   25   27 1    
    54   27   28 1    
    55   27   29 1    
    56   27  150 1    
    57   28  151 1    
    58   28  152 1    
    59   28  153 1    
    60   29   30 am   BACKBONE|DICT|INTERRES
    61   29  154 1    
    62   30   31 2    
    63   30   32 1    
    64   32   33 1    
    65   32   34 1    
    66   32  155 1    
    67   33  156 1    
    68   33  157 1    
    69   33  158 1    
    70   34   35 am   BACKBONE|DICT|INTERRES
    71   34  159 1    
    72   35   36 2    
    73   35   37 1    
    74   37   38 1    
    75   37   39 1    
    76   37  160 1    
    77   38  161 1    
    78   38  162 1    
    79   38  163 1    
    80   39   40 am   BACKBONE|DICT|INTERRES
    81   39  164 1    
    82   40   41 2    
    83   40   42 1    
    84   42   43 1    
    85   42   44 1    
    86   42  165 1    
    87   43  166 1    
    88   43  167 1    
    89   43  168 1    
    90   44   45 am   BACKBONE|DICT|INTERRES
    91   44  169 1    
    92   45   46 2    
    93   45   47 1    
    94   47   48 1    
    95   47   49 1    
    96   47  170 1    
    97   48  171 1    
    98   48  172 1    
    99   48  173 1    
   100   49   50 am   BACKBONE|DICT|INTERRES
   101   49  174 1    
   102   50   51 2    
   103   50   52 1    
   104   52   53 1    
   105   52   54 1    
   106   52  175 1    
   107   53  176 1    
   108   53  177 1    
   109   53  178 1    
   110   54   55 am   BACKBONE|DICT|INTERRES
   111   54  179 1    
   112   55   56 2    
   113   55   57 1    
   114   57   58 1    
   115   57   59 1    
   116   57  180 1    
   117   58  181 1    
   118   58  182 1    
   119   58  183 1    
   120   59   60 am   BACKBONE|DICT|INTERRES
   121   59  184 1    
   122   60   61 2    
   123   60   62 1    
   124   62   63 1    
   125   62   64 1    
   126   62  185 1    
   127   63  186 1    
   128   63  187 1    
   129   63  188 1    
   130   64   65 am   BACKBONE|DICT|INTERRES
   131   64  189 1    
   132   65   66 2    
   133   67   68 2    
   134   67   69 am   BACKBONE|DICT|INTERRES
   135   69   70 1    
   136   69  190 1    
   137   70   71 1    
   138   70   72 1    
   139   70  191 1    
   140   71  192 1    
   141   71  193 1    
   142   71  194 1    
   143   72   73 2    
   144   72   74 am   BACKBONE|DICT|INTERRES
   145   74   75 1    
   146   74  195 1    
   147   75   76 1    
   148   75   77 1    
   149   75  196 1    
   150   76  197 1    
   151   76  198 1    
   152   76  199 1    
   153   77   78 2    
   154   77   79 am   BACKBONE|DICT|INTERRES
   155   79   80 1    
   156   79  200 1    
   157   80   81 1    
   158   80   82 1    
   159   80  201 1    
   160   81  202 1    
   161   81  203 1    
   162   81  204 1    
   163   82   83 2    
   164   82   84 am   BACKBONE|DICT|INTERRES
   165   84   85 1    
   166   84  205 1    
   167   85   86 1    
   168   85   87 1    
   169   85  206 1    
   170   86  207 1    
   171   86  208 1    
   172   86  209 1    
   173   87   88 2    
   174   87   89 am   BACKBONE|DICT|INTERRES
   175   89   90 1    
   176   89  210 1    
   177   90   91 1    
   178   90   92 1    
   179   90  211 1    
   180   91  212 1    
   181   91  213 1    
   182   91  214 1    
   183   92   93 2    
   184   92   94 am   BACKBONE|DICT|INTERRES
   185   94   95 1    
   186   94  215 1    
   187   95   96 1    
   188   95   97 1    
   189   95  216 1    
   190   96  217 1    
   191   96  218 1    
   192   96  219 1    
   193   97   98 2    
   194   97   99 am   BACKBONE|DICT|INTERRES
   195   99  100 1    
   196   99  220 1    
   197  100  101 1    
   198  100  102 1    
   199  100  221 1    
   200  101  222 1    
   201  101  223 1    
   202  101  224 1    
   203  102  103 2    
   204  102  104 am   BACKBONE|DICT|INTERRES
   205  104  105 1    
   206  104  225 1    
   207  105  106 1    
   208  105  107 1    
   209  105  226 1    
   210  106  227 1    
   211  106  228 1    
   212  106  229 1    
   213  107  108 2    
   214  107  109 am   BACKBONE|DICT|INTERRES
   215  109  110 1    
   216  109  230 1    
   217  110  111 1    
   218  110  112 1    
   219  110  231 1    
   220  111  232 1    
   221  111  233 1    
   222  111  234 1    
   223  112  113 2    
   224  112  114 am   BACKBONE|DICT|INTERRES
   225  114  115 1    
   226  114  235 1    
   227  115  116 1    
   228  115  117 1    
   229  115  236 1    
   230  116  237 1    
   231  116  238 1    
   232  116  239 1    
   233  117  118 2    
   234  117  119 am   BACKBONE|DICT|INTERRES
   235  119  120 1    
   236  119  240 1    
   237  120  121 1    
   238  120  124 1    
   239  120  241 1    
   240  121  122 am   BACKBONE|DICT|INTERRES
   241  121  123 2    
   242  122  242 1    
   243  122  243 1    
   244  124  125 1    
   245  124  244 1    
   246  124  245 1    
   247  125  126 1    
   248  126  246 1    
   249  126  247 1    
@<TRIPOS>SUBSTRUCTURE
     1 UNK         1 GROUP             0       ****    0 ROOT    
