@<TRIPOS>MOLECULE
3R540
247   249    1
SMALL
USER_CHARGES


@<TRIPOS>ATOM
      1 CA         -0.8641  -11.0684  -46.3065 C.3       0 UNK        -0.1800 
      2 C           0.3350  -11.8019  -46.8892 C.2       0 UNK         0.5000 
      3 O           0.6641  -12.8960  -46.4318 O.2       0 UNK        -0.5000 
      4 N           0.9927  -11.2008  -47.8903 N.am      1 UNK        -0.5000 
      5 CA          2.1881  -11.6852  -48.5957 C.3       1 UNK         0.1400 
      6 C6          1.9956  -13.0842  -49.2393 C.3       23 UNK        -0.0398 
      7 S7          3.2902  -13.4995  -50.4568 S.3       23 UNK        -0.2404 
      8 C8          3.9912  -15.0129  -49.7083 C.3       23 UNK        -0.0205 
      9 C9          3.1919  -16.3027  -49.9230 C.ar      23 UNK        -0.0193 
     10 C10         1.9161  -16.3297  -50.5083 C.ar      23 UNK        -0.1150 
     11 C11         1.2506  -17.5397  -50.7185 C.ar      23 UNK        -0.0193 
     12 C12         1.8729  -18.7320  -50.3491 C.ar      23 UNK        -0.1150 
     13 C13         3.1256  -18.7298  -49.7335 C.ar      23 UNK        -0.0193 
     14 C14         3.7759  -17.5105  -49.5225 C.ar      23 UNK        -0.1150 
     15 C15         3.7841  -20.0442  -49.3277 C.3       23 UNK        -0.0205 
     16 S16         3.0728  -20.7478  -47.8008 S.3       23 UNK        -0.2404 
     17 C17         1.4299  -21.2723  -48.3907 C.3       23 UNK        -0.0398 
     18 CA          0.7708  -22.3826  -47.5472 C.3       11 UNK         0.1400 
     19 N           0.4442  -21.9509  -46.1854 N.am      11 UNK        -0.5000 
     20 C          -0.0432  -22.7599  -45.2335 C.2       10 UNK         0.5000 
     21 O          -0.1862  -23.9752  -45.3757 O.2       10 UNK        -0.5000 
     22 CA         -0.5084  -22.0930  -43.9272 C.3       10 UNK         0.1400 
     23 CB          0.6788  -21.8310  -42.9890 C.3       10 UNK        -0.1800 
     24 N          -1.2464  -20.8505  -44.1682 N.am      10 UNK        -0.5000 
     25 C          -2.4320  -20.7891  -44.7925 C.2       9 UNK         0.5000 
     26 O          -3.0472  -21.7833  -45.1757 O.2       9 UNK        -0.5000 
     27 CA         -3.0169  -19.3918  -45.0736 C.3       9 UNK         0.1400 
     28 CB         -3.7327  -18.8409  -43.8326 C.3       9 UNK        -0.1800 
     29 N          -2.0122  -18.4320  -45.5308 N.am      9 UNK        -0.5000 
     30 C          -1.3186  -18.5414  -46.6734 C.2       8 UNK         0.5000 
     31 O          -1.4831  -19.4473  -47.4883 O.2       8 UNK        -0.5000 
     32 CA         -0.2082  -17.5034  -46.9145 C.3       8 UNK         0.1400 
     33 CB         -0.7743  -16.2135  -47.5272 C.3       8 UNK        -0.1800 
     34 N           0.5274  -17.1858  -45.6906 N.am      8 UNK        -0.5000 
     35 C           1.2676  -18.0676  -45.0033 C.2       7 UNK         0.5000 
     36 O           1.4148  -19.2440  -45.3315 O.2       7 UNK        -0.5000 
     37 CA          1.9008  -17.5558  -43.6988 C.3       7 UNK         0.1400 
     38 CB          3.0422  -16.5762  -44.0013 C.3       7 UNK        -0.1800 
     39 N           0.9159  -16.9056  -42.8340 N.am      7 UNK        -0.5000 
     40 C          -0.1117  -17.5414  -42.2505 C.2       6 UNK         0.5000 
     41 O          -0.3022  -18.7532  -42.3379 O.2       6 UNK        -0.5000 
     42 CA         -1.1237  -16.6797  -41.4706 C.3       6 UNK         0.1400 
     43 CB         -0.7070  -16.5656  -39.9968 C.3       6 UNK        -0.1800 
     44 N          -1.2968  -15.3361  -42.0215 N.am      6 UNK        -0.5000 
     45 C          -1.6688  -15.0428  -43.2757 C.2       5 UNK         0.5000 
     46 O          -1.9765  -15.8927  -44.1116 O.2       5 UNK        -0.5000 
     47 CA         -1.6662  -13.5552  -43.6766 C.3       5 UNK         0.1400 
     48 CB         -3.1040  -13.0329  -43.8148 C.3       5 UNK        -0.1800 
     49 N          -0.9272  -12.6812  -42.7570 N.am      5 UNK        -0.5000 
     50 C           0.3953  -12.7188  -42.5461 C.2       4 UNK         0.5000 
     51 O           1.1592  -13.5287  -43.0797 O.2       4 UNK        -0.5000 
     52 CA          0.9426  -11.7193  -41.5200 C.3       4 UNK         0.1400 
     53 CB          0.8587  -12.2938  -40.0954 C.3       4 UNK        -0.1800 
     54 N           2.3297  -11.4309  -41.8543 N.am      4 UNK        -0.5000 
     55 C           2.9644  -10.2743  -41.6328 C.2       3 UNK         0.5000 
     56 O           2.4665   -9.3294  -41.0189 O.2       3 UNK        -0.5000 
     57 CA          4.3934  -10.1379  -42.2017 C.3       3 UNK         0.1400 
     58 CB          5.4351  -10.3668  -41.0956 C.3       3 UNK        -0.1800 
     59 N           4.6762  -11.0499  -43.3152 N.am      3 UNK        -0.5000 
     60 C           4.0863  -11.0003  -44.5176 C.2       2 UNK         0.5000 
     61 O           3.2714  -10.1289  -44.8328 O.2       2 UNK        -0.5000 
     62 CA          4.4601  -12.1193  -45.5130 C.3       2 UNK         0.1400 
     63 CB          4.5977  -13.4889  -44.8242 C.3       2 UNK        -0.1800 
     64 N           3.4421  -12.2279  -46.5541 N.am      2 UNK        -0.5000 
     65 C           3.4612  -11.5841  -47.7254 C.2       1 UNK         0.5000 
     66 O           4.4122  -10.9047  -48.1167 O.2       1 UNK        -0.5000 
     67 C          -0.4742  -22.9173  -48.2849 C.2       11 UNK         0.5000 
     68 O          -0.3971  -23.9816  -48.8953 O.2       11 UNK        -0.5000 
     69 N          -1.6004  -22.1939  -48.1962 N.am      12 UNK        -0.5000 
     70 CA         -2.8831  -22.5784  -48.7868 C.3       12 UNK         0.1400 
     71 CB         -3.9053  -21.4486  -48.6053 C.3       12 UNK        -0.1800 
     72 C          -3.4307  -23.8946  -48.2149 C.2       12 UNK         0.5000 
     73 O          -3.9224  -24.7212  -48.9804 O.2       12 UNK        -0.5000 
     74 N          -3.3029  -24.0858  -46.8950 N.am      13 UNK        -0.5000 
     75 CA         -3.6610  -25.3205  -46.1982 C.3       13 UNK         0.1400 
     76 CB         -3.5629  -25.1076  -44.6803 C.3       13 UNK        -0.1800 
     77 C          -2.8036  -26.5183  -46.6460 C.2       13 UNK         0.5000 
     78 O          -3.3521  -27.5924  -46.8931 O.2       13 UNK        -0.5000 
     79 N          -1.4876  -26.3031  -46.7891 N.am      14 UNK        -0.5000 
     80 CA         -0.5351  -27.2941  -47.2967 C.3       14 UNK         0.1400 
     81 CB          0.8982  -26.7859  -47.0784 C.3       14 UNK        -0.1800 
     82 C          -0.7730  -27.6517  -48.7776 C.2       14 UNK         0.5000 
     83 O          -0.6686  -28.8220  -49.1461 O.2       14 UNK        -0.5000 
     84 N          -1.1181  -26.6442  -49.5903 N.am      15 UNK        -0.5000 
     85 CA         -1.4697  -26.7777  -51.0062 C.3       15 UNK         0.1400 
     86 CB         -1.3592  -25.3963  -51.6725 C.3       15 UNK        -0.1800 
     87 C          -2.8737  -27.3718  -51.2447 C.2       15 UNK         0.5000 
     88 O          -3.1835  -27.7299  -52.3812 O.2       15 UNK        -0.5000 
     89 N          -3.6953  -27.4433  -50.1870 N.am      16 UNK        -0.5000 
     90 CA         -5.1008  -27.8586  -50.1665 C.3       16 UNK         0.1400 
     91 CB         -5.2439  -29.3498  -50.5364 C.3       16 UNK        -0.1800 
     92 C          -6.0016  -26.9259  -51.0050 C.2       16 UNK         0.5000 
     93 O          -6.8761  -27.3994  -51.7329 O.2       16 UNK        -0.5000 
     94 N          -5.7598  -25.6122  -50.8720 N.am      17 UNK        -0.5000 
     95 CA         -6.4288  -24.4970  -51.5484 C.3       17 UNK         0.1400 
     96 CB         -7.8760  -24.3425  -51.0385 C.3       17 UNK        -0.1800 
     97 C          -6.3312  -24.6038  -53.0828 C.2       17 UNK         0.5000 
     98 O          -7.3498  -24.6407  -53.7767 O.2       17 UNK        -0.5000 
     99 N          -5.0889  -24.6730  -53.5800 N.am      18 UNK        -0.5000 
    100 CA        -4.7588  -24.7517  -55.0058 C.3       18 UNK         0.1400 
    101 CB        -3.2611  -25.0549  -55.1574 C.3       18 UNK        -0.1800 
    102 C         -5.1342  -23.4797  -55.7924 C.2       18 UNK         0.5000 
    103 O         -5.3906  -23.5613  -56.9945 O.2       18 UNK        -0.5000 
    104 N         -5.1771  -22.3395  -55.0981 N.am      19 UNK        -0.5000 
    105 CA        -5.6491  -21.0519  -55.5869 C.3       19 UNK         0.1400 
    106 CB        -4.4548  -20.2487  -56.1285 C.3       19 UNK        -0.1800 
    107 C         -6.3631  -20.3236  -54.4371 C.2       19 UNK         0.5000 
    108 O         -6.3390  -20.7977  -53.2971 O.2       19 UNK        -0.5000 
    109 N         -6.9891  -19.1823  -54.7519 N.am      20 UNK        -0.5000 
    110 CA        -7.6931  -18.3127  -53.8070 C.3       20 UNK         0.1400 
    111 CB        -8.3735  -17.1738  -54.5852 C.3       20 UNK        -0.1800 
    112 C         -6.7448  -17.7717  -52.7184 C.2       20 UNK         0.5000 
    113 O         -5.9897  -16.8325  -52.9769 O.2       20 UNK        -0.5000 
    114 N         -6.7776  -18.4204  -51.5453 N.am      21 UNK        -0.5000 
    115 CA        -5.9021  -18.2107  -50.3876 C.3       21 UNK         0.1400 
    116 CB        -6.1688  -16.8358  -49.7393 C.3       21 UNK        -0.1800 
    117 C         -4.4093  -18.4520  -50.7036 C.2       21 UNK         0.5000 
    118 O         -3.5488  -17.7535  -50.1659 O.2       21 UNK        -0.5000 
    119 N         -4.1239  -19.4402  -51.5626 N.am      22 UNK        -0.5000 
    120 CA        -2.7687  -19.8342  -51.9654 C.3       22 UNK         0.1400 
    121 C         -2.7235  -21.2931  -52.5072 C.2       22 UNK         0.5000 
    122 N         -1.5892  -21.7359  -53.0293 N.am      22 UNK        -0.7600 
    123 O         -3.6947  -22.0438  -52.4409 O.2       22 UNK        -0.5000 
    124 C124       -2.1105  -18.7783  -52.9058 C.3       23 UNK        -0.0398 
    125 S125       -0.2979  -18.6926  -52.7285 S.3       23 UNK        -0.2404 
    126 C126       -0.1552  -17.5642  -51.3040 C.3       23 UNK        -0.0205 
    127 H127       -1.0248  -10.1043  -46.7894 H         1 UNK         0.0600 
    128 H128       -0.7136  -10.8938  -45.2412 H         1 UNK         0.0600 
    129 H129       -1.7662  -11.6668  -46.4327 H         1 UNK         0.0600 
    130 H130        0.6751  -10.2891  -48.1893 H         1 UNK         0.3000 
    131 H131        2.3242  -10.9769  -49.4149 H         1 UNK         0.0600 
    132 H132        1.0394  -13.1140  -49.7629 H         1 UNK         0.0800 
    133 H133        1.9386  -13.8631  -48.4780 H         1 UNK         0.0800 
    134 H134        4.1386  -14.8533  -48.6390 H         1 UNK         0.0800 
    135 H135        4.9859  -15.1543  -50.1335 H         1 UNK         0.0800 
    136 H136        1.4274  -15.4160  -50.8092 H         1 UNK         0.1150 
    137 H137        1.3668  -19.6645  -50.5433 H         1 UNK         0.1150 
    138 H138        4.7531  -17.5021  -49.0598 H         1 UNK         0.1150 
    139 H139        3.7011  -20.7663  -50.1413 H         1 UNK         0.0800 
    140 H140        4.8530  -19.8929  -49.1706 H         1 UNK         0.0800 
    141 H141        1.5462  -21.6199  -49.4189 H         1 UNK         0.0800 
    142 H142        0.7836  -20.3953  -48.4227 H         1 UNK         0.0800 
    143 H143        1.4782  -23.2106  -47.4658 H         1 UNK         0.0600 
    144 H144        0.5871  -20.9683  -45.9706 H         1 UNK         0.3000 
    145 H145       -1.1840  -22.7888  -43.4254 H         1 UNK         0.0600 
    146 H146        0.3410  -21.4495  -42.0254 H         1 UNK         0.0600 
    147 H147        1.3760  -21.1063  -43.4093 H         1 UNK         0.0600 
    148 H148        1.2350  -22.7495  -42.7976 H         1 UNK         0.0600 
    149 H149       -0.8161  -19.9951  -43.8318 H         1 UNK         0.3000 
    150 H150       -3.7559  -19.4956  -45.8705 H         1 UNK         0.0600 
    151 H151       -4.5408  -19.5048  -43.5233 H         1 UNK         0.0600 
    152 H152       -4.1709  -17.8622  -44.0292 H         1 UNK         0.0600 
    153 H153       -3.0511  -18.7410  -42.9889 H         1 UNK         0.0600 
    154 H154       -1.8463  -17.6228  -44.9384 H         1 UNK         0.3000 
    155 H155        0.4993  -17.9341  -47.6266 H         1 UNK         0.0600 
    156 H156       -1.4543  -15.7048  -46.8431 H         1 UNK         0.0600 
    157 H157       -1.3281  -16.4275  -48.4424 H         1 UNK         0.0600 
    158 H158        0.0240  -15.5174  -47.7857 H         1 UNK         0.0600 
    159 H159        0.4184  -16.2511  -45.3256 H         1 UNK         0.3000 
    160 H160        2.3148  -18.4124  -43.1625 H         1 UNK         0.0600 
    161 H161        2.6792  -15.7074  -44.5504 H         1 UNK         0.0600 
    162 H162        3.8138  -17.0501  -44.6093 H         1 UNK         0.0600 
    163 H163        3.5170  -16.2229  -43.0859 H         1 UNK         0.0600 
    164 H164        0.9868  -15.9010  -42.7355 H         1 UNK         0.3000 
    165 H165       -2.0919  -17.1805  -41.5142 H         1 UNK         0.0600 
    166 H166       -1.4586  -16.0333  -39.4135 H         1 UNK         0.0600 
    167 H167       -0.5880  -17.5525  -39.5473 H         1 UNK         0.0600 
    168 H168        0.2411  -16.0375  -39.8862 H         1 UNK         0.0600 
    169 H169       -1.0693  -14.5672  -41.4099 H         1 UNK         0.3000 
    170 H170       -1.1867  -13.4983  -44.6541 H         1 UNK         0.0600 
    171 H171       -3.6720  -13.6345  -44.5259 H         1 UNK         0.0600 
    172 H172       -3.6352  -13.0612  -42.8626 H         1 UNK         0.0600 
    173 H173       -3.1186  -12.0053  -44.1782 H         1 UNK         0.0600 
    174 H174       -1.4795  -11.9984  -42.2580 H         1 UNK         0.3000 
    175 H175        0.3527  -10.8022  -41.5822 H         1 UNK         0.0600 
    176 H176        1.4317  -13.2172  -40.0006 H         1 UNK         0.0600 
    177 H177        1.2436  -11.5855  -39.3615 H         1 UNK         0.0600 
    178 H178       -0.1730  -12.5158  -39.8206 H         1 UNK         0.0600 
    179 H179        2.7822  -12.1489  -42.4047 H         1 UNK         0.3000 
    180 H180        4.5022   -9.1149  -42.5678 H         1 UNK         0.0600 
    181 H181        6.4469  -10.1962  -41.4639 H         1 UNK         0.0600 
    182 H182        5.3864  -11.3826  -40.7012 H         1 UNK         0.0600 
    183 H183        5.2757   -9.6829  -40.2608 H         1 UNK         0.0600 
    184 H184        5.3374  -11.7900  -43.1292 H         1 UNK         0.3000 
    185 H185        5.4222  -11.8620  -45.9604 H         1 UNK         0.0600 
    186 H186        3.7310  -13.7050  -44.1997 H         1 UNK         0.0600 
    187 H187        4.6953  -14.2924  -45.5548 H         1 UNK         0.0600 
    188 H188        5.4825  -13.5296  -44.1885 H         1 UNK         0.0600 
    189 H189        2.5697  -12.6785  -46.2908 H         1 UNK         0.3000 
    190 H190       -1.5728  -21.2938  -47.7224 H         1 UNK         0.3000 
    191 H191       -2.7188  -22.7215  -49.8558 H         1 UNK         0.0600 
    192 H192       -3.4971  -20.4962  -48.9367 H         1 UNK         0.0600 
    193 H193       -4.2049  -21.3333  -47.5640 H         1 UNK         0.0600 
    194 H194       -4.8061  -21.6429  -49.1889 H         1 UNK         0.0600 
    195 H195       -2.9498  -23.3231  -46.3233 H         1 UNK         0.3000 
    196 H196       -4.7011  -25.5480  -46.4409 H         1 UNK         0.0600 
    197 H197       -4.2239  -24.3051  -44.3523 H         1 UNK         0.0600 
    198 H198       -2.5493  -24.8510  -44.3722 H         1 UNK         0.0600 
    199 H199       -3.8524  -26.0097  -44.1400 H         1 UNK         0.0600 
    200 H200       -1.1095  -25.3965  -46.5325 H         1 UNK         0.3000 
    201 H201       -0.6614  -28.2077  -46.7121 H         1 UNK         0.0600 
    202 H202        1.0920  -26.5966  -46.0224 H         1 UNK         0.0600 
    203 H203        1.0863  -25.8602  -47.6224 H         1 UNK         0.0600 
    204 H204        1.6291  -27.5209  -47.4176 H         1 UNK         0.0600 
    205 H205       -1.0972  -25.6964  -49.2209 H         1 UNK         0.3000 
    206 H206       -0.7462  -27.4447  -51.4792 H         1 UNK         0.0600 
    207 H207       -2.0840  -24.6923  -51.2620 H         1 UNK         0.0600 
    208 H208       -0.3651  -24.9701  -51.5371 H         1 UNK         0.0600 
    209 H209       -1.5362  -25.4647  -52.7454 H         1 UNK         0.0600 
    210 H210       -3.3428  -27.0830  -49.3101 H         1 UNK         0.3000 
    211 H211       -5.4305  -27.7462  -49.1326 H         1 UNK         0.0600 
    212 H212       -4.9896  -29.5373  -51.5799 H         1 UNK         0.0600 
    213 H213       -6.2681  -29.6920  -50.3842 H         1 UNK         0.0600 
    214 H214       -4.5989  -29.9723  -49.9163 H         1 UNK         0.0600 
    215 H215       -5.0185  -25.3392  -50.2266 H         1 UNK         0.3000 
    216 H216       -5.8849  -23.5934  -51.2670 H         1 UNK         0.0600 
    217 H217       -8.3489  -23.4619  -51.4750 H         1 UNK         0.0600 
    218 H218       -7.9001  -24.2208  -49.9557 H         1 UNK         0.0600 
    219 H219       -8.4919  -25.2056  -51.2931 H         1 UNK         0.0600 
    220 H220       -4.3117  -24.6107  -52.9388 H         1 UNK         0.3000 
    221 H221       -5.3219  -25.5827  -55.4353 H         1 UNK         0.0600 
    222 H222       -2.6465  -24.2692  -54.7171 H         1 UNK         0.0600 
    223 H223       -3.0005  -25.9991  -54.6789 H         1 UNK         0.0600 
    224 H224       -2.9836  -25.1382  -56.2090 H         1 UNK         0.0600 
    225 H225       -4.9775  -22.3617  -54.1015 H         1 UNK         0.3000 
    226 H226       -6.3801  -21.2025  -56.3839 H         1 UNK         0.0600 
    227 H227       -3.9991  -20.7534  -56.9806 H         1 UNK         0.0600 
    228 H228       -4.7554  -19.2558  -56.4643 H         1 UNK         0.0600 
    229 H229       -3.6851  -20.1247  -55.3690 H         1 UNK         0.0600 
    230 H230       -6.9461  -18.8531  -55.7053 H         1 UNK         0.3000 
    231 H231       -8.4772  -18.9013  -53.3260 H         1 UNK         0.0600 
    232 H232       -8.9016  -16.5010  -53.9083 H         1 UNK         0.0600 
    233 H233       -9.1062  -17.5624  -55.2927 H         1 UNK         0.0600 
    234 H234       -7.6516  -16.5769  -55.1442 H         1 UNK         0.0600 
    235 H235       -7.3934  -19.2191  -51.4758 H         1 UNK         0.3000 
    236 H236       -6.1769  -18.9736  -49.6577 H         1 UNK         0.0600 
    237 H237       -5.8581  -16.0153  -50.3867 H         1 UNK         0.0600 
    238 H238       -7.2271  -16.7041  -49.5144 H         1 UNK         0.0600 
    239 H239       -5.6239  -16.7342  -48.7999 H         1 UNK         0.0600 
    240 H240       -4.8709  -20.0020  -51.9602 H         1 UNK         0.3000 
    241 H241       -2.1929  -19.8796  -51.0390 H         1 UNK         0.0600 
    242 H242       -1.5380  -22.6799  -53.3725 H         1 UNK         0.3800 
    243 H243       -0.7814  -21.1347  -53.0954 H         1 UNK         0.3800 
    244 H244       -2.5029  -17.7794  -52.7113 H         1 UNK         0.0800 
    245 H245       -2.3508  -18.9777  -53.9493 H         1 UNK         0.0800 
    246 H246       -0.4700  -16.5651  -51.6090 H         1 UNK         0.0800 
    247 H247       -0.8424  -17.8811  -50.5185 H         1 UNK         0.0800 
@<TRIPOS>BOND
     1    1    2 1    
     2    1  127 1    
     3    1  128 1    
     4    1  129 1    
     5    2    3 2    
     6    2    4 am   BACKBONE|DICT|INTERRES
     7    4    5 1    
     8    4  130 1    
     9    5    6 1    
    10    5   65 1    
    11    5  131 1    
    12    6    7 1    
    13    6  132 1    
    14    6  133 1    
    15    7    8 1    
    16    8    9 1    
    17    8  134 1    
    18    8  135 1    
    19    9   10 ar   
    20    9   14 ar   
    21   10   11 ar   
    22   10  136 1    
    23   11   12 ar   
    24   11  126 1    
    25   12   13 ar   
    26   12  137 1    
    27   13   14 ar   
    28   13   15 1    
    29   14  138 1    
    30   15   16 1    
    31   15  139 1    
    32   15  140 1    
    33   16   17 1    
    34   17   18 1    
    35   17  141 1    
    36   17  142 1    
    37   18   19 1    
    38   18   67 1    
    39   18  143 1    
    40   19   20 am   BACKBONE|DICT|INTERRES
    41   19  144 1    
    42   20   21 2    
    43   20   22 1    
    44   22   23 1    
    45   22   24 1    
    46   22  145 1    
    47   23  146 1    
    48   23  147 1    
    49   23  148 1    
    50   24   25 am   BACKBONE|DICT|INTERRES
    51   24  149 1    
    52   25   26 2    
    53   25   27 1    
    54   27   28 1    
    55   27   29 1    
    56   27  150 1    
    57   28  151 1    
    58   28  152 1    
    59   28  153 1    
    60   29   30 am   BACKBONE|DICT|INTERRES
    61   29  154 1    
    62   30   31 2    
    63   30   32 1    
    64   32   33 1    
    65   32   34 1    
    66   32  155 1    
    67   33  156 1    
    68   33  157 1    
    69   33  158 1    
    70   34   35 am   BACKBONE|DICT|INTERRES
    71   34  159 1    
    72   35   36 2    
    73   35   37 1    
    74   37   38 1    
    75   37   39 1    
    76   37  160 1    
    77   38  161 1    
    78   38  162 1    
    79   38  163 1    
    80   39   40 am   BACKBONE|DICT|INTERRES
    81   39  164 1    
    82   40   41 2    
    83   40   42 1    
    84   42   43 1    
    85   42   44 1    
    86   42  165 1    
    87   43  166 1    
    88   43  167 1    
    89   43  168 1    
    90   44   45 am   BACKBONE|DICT|INTERRES
    91   44  169 1    
    92   45   46 2    
    93   45   47 1    
    94   47   48 1    
    95   47   49 1    
    96   47  170 1    
    97   48  171 1    
    98   48  172 1    
    99   48  173 1    
   100   49   50 am   BACKBONE|DICT|INTERRES
   101   49  174 1    
   102   50   51 2    
   103   50   52 1    
   104   52   53 1    
   105   52   54 1    
   106   52  175 1    
   107   53  176 1    
   108   53  177 1    
   109   53  178 1    
   110   54   55 am   BACKBONE|DICT|INTERRES
   111   54  179 1    
   112   55   56 2    
   113   55   57 1    
   114   57   58 1    
   115   57   59 1    
   116   57  180 1    
   117   58  181 1    
   118   58  182 1    
   119   58  183 1    
   120   59   60 am   BACKBONE|DICT|INTERRES
   121   59  184 1    
   122   60   61 2    
   123   60   62 1    
   124   62   63 1    
   125   62   64 1    
   126   62  185 1    
   127   63  186 1    
   128   63  187 1    
   129   63  188 1    
   130   64   65 am   BACKBONE|DICT|INTERRES
   131   64  189 1    
   132   65   66 2    
   133   67   68 2    
   134   67   69 am   BACKBONE|DICT|INTERRES
   135   69   70 1    
   136   69  190 1    
   137   70   71 1    
   138   70   72 1    
   139   70  191 1    
   140   71  192 1    
   141   71  193 1    
   142   71  194 1    
   143   72   73 2    
   144   72   74 am   BACKBONE|DICT|INTERRES
   145   74   75 1    
   146   74  195 1    
   147   75   76 1    
   148   75   77 1    
   149   75  196 1    
   150   76  197 1    
   151   76  198 1    
   152   76  199 1    
   153   77   78 2    
   154   77   79 am   BACKBONE|DICT|INTERRES
   155   79   80 1    
   156   79  200 1    
   157   80   81 1    
   158   80   82 1    
   159   80  201 1    
   160   81  202 1    
   161   81  203 1    
   162   81  204 1    
   163   82   83 2    
   164   82   84 am   BACKBONE|DICT|INTERRES
   165   84   85 1    
   166   84  205 1    
   167   85   86 1    
   168   85   87 1    
   169   85  206 1    
   170   86  207 1    
   171   86  208 1    
   172   86  209 1    
   173   87   88 2    
   174   87   89 am   BACKBONE|DICT|INTERRES
   175   89   90 1    
   176   89  210 1    
   177   90   91 1    
   178   90   92 1    
   179   90  211 1    
   180   91  212 1    
   181   91  213 1    
   182   91  214 1    
   183   92   93 2    
   184   92   94 am   BACKBONE|DICT|INTERRES
   185   94   95 1    
   186   94  215 1    
   187   95   96 1    
   188   95   97 1    
   189   95  216 1    
   190   96  217 1    
   191   96  218 1    
   192   96  219 1    
   193   97   98 2    
   194   97   99 am   BACKBONE|DICT|INTERRES
   195   99  100 1    
   196   99  220 1    
   197  100  101 1    
   198  100  102 1    
   199  100  221 1    
   200  101  222 1    
   201  101  223 1    
   202  101  224 1    
   203  102  103 2    
   204  102  104 am   BACKBONE|DICT|INTERRES
   205  104  105 1    
   206  104  225 1    
   207  105  106 1    
   208  105  107 1    
   209  105  226 1    
   210  106  227 1    
   211  106  228 1    
   212  106  229 1    
   213  107  108 2    
   214  107  109 am   BACKBONE|DICT|INTERRES
   215  109  110 1    
   216  109  230 1    
   217  110  111 1    
   218  110  112 1    
   219  110  231 1    
   220  111  232 1    
   221  111  233 1    
   222  111  234 1    
   223  112  113 2    
   224  112  114 am   BACKBONE|DICT|INTERRES
   225  114  115 1    
   226  114  235 1    
   227  115  116 1    
   228  115  117 1    
   229  115  236 1    
   230  116  237 1    
   231  116  238 1    
   232  116  239 1    
   233  117  118 2    
   234  117  119 am   BACKBONE|DICT|INTERRES
   235  119  120 1    
   236  119  240 1    
   237  120  121 1    
   238  120  124 1    
   239  120  241 1    
   240  121  122 am   BACKBONE|DICT|INTERRES
   241  121  123 2    
   242  122  242 1    
   243  122  243 1    
   244  124  125 1    
   245  124  244 1    
   246  124  245 1    
   247  125  126 1    
   248  126  246 1    
   249  126  247 1    
@<TRIPOS>SUBSTRUCTURE
     1 UNK         1 GROUP             0       ****    0 ROOT    
