@<TRIPOS>MOLECULE
3R540
247   249    1
SMALL
USER_CHARGES


@<TRIPOS>ATOM
      1 CA         -2.2365  -13.3191  -49.9093 C.3       0 UNK        -0.1800 
      2 C          -0.7916  -12.8753  -49.7344 C.2       0 UNK         0.5000 
      3 O          -0.5450  -11.8039  -49.1814 O.2       0 UNK        -0.5000 
      4 N           0.1592  -13.6865  -50.2188 N.am      1 UNK        -0.5000 
      5 CA          1.6012  -13.4004  -50.2132 C.3       1 UNK         0.1400 
      6 C6          2.4217  -14.4098  -51.0582 C.3       23 UNK        -0.0398 
      7 S7          1.7308  -14.6839  -52.7265 S.3       23 UNK        -0.2404 
      8 C8          1.8016  -16.5046  -52.8695 C.3       23 UNK        -0.0205 
      9 C9          1.0051  -17.2647  -51.8094 C.ar      23 UNK        -0.0193 
     10 C10        -0.2693  -16.8448  -51.4155 C.ar      23 UNK        -0.1150 
     11 C11        -1.0050  -17.5744  -50.4753 C.ar      23 UNK        -0.0193 
     12 C12        -0.4667  -18.7495  -49.9463 C.ar      23 UNK        -0.1150 
     13 C13         0.8064  -19.1827  -50.3263 C.ar      23 UNK        -0.0193 
     14 C14         1.5385  -18.4306  -51.2504 C.ar      23 UNK        -0.1150 
     15 C15         1.3645  -20.4971  -49.7983 C.3       23 UNK        -0.0205 
     16 S16         2.2535  -20.3320  -48.2100 S.3       23 UNK        -0.2404 
     17 C17         0.9165  -20.1726  -46.9734 C.3       23 UNK        -0.0398 
     18 CA          0.4170  -21.5214  -46.3905 C.3       11 UNK         0.1400 
     19 N          -0.3516  -21.3259  -45.1586 N.am      11 UNK        -0.5000 
     20 C          -0.8554  -22.2987  -44.3859 C.2       10 UNK         0.5000 
     21 O          -0.6455  -23.4964  -44.5691 O.2       10 UNK        -0.5000 
     22 CA         -1.8102  -21.8692  -43.2588 C.3       10 UNK         0.1400 
     23 CB         -1.0450  -21.4889  -41.9857 C.3       10 UNK        -0.1800 
     24 N          -2.6731  -20.7611  -43.6660 N.am      10 UNK        -0.5000 
     25 C          -3.6914  -20.8810  -44.5282 C.2       9 UNK         0.5000 
     26 O          -4.0254  -21.9462  -45.0462 O.2       9 UNK        -0.5000 
     27 CA         -4.4410  -19.5880  -44.8961 C.3       9 UNK         0.1400 
     28 CB         -5.4962  -19.2503  -43.8323 C.3       9 UNK        -0.1800 
     29 N          -3.5468  -18.4433  -45.0744 N.am      9 UNK        -0.5000 
     30 C          -2.6557  -18.3405  -46.0689 C.2       8 UNK         0.5000 
     31 O          -2.4678  -19.2128  -46.9172 O.2       8 UNK        -0.5000 
     32 CA         -1.8048  -17.0586  -46.1012 C.3       8 UNK         0.1400 
     33 CB         -2.6511  -15.8651  -46.5742 C.3       8 UNK        -0.1800 
     34 N          -1.1593  -16.6960  -44.8347 N.am      8 UNK        -0.5000 
     35 C          -0.4732  -17.4929  -44.0061 C.2       7 UNK         0.5000 
     36 O          -0.3671  -18.7071  -44.1672 O.2       7 UNK        -0.5000 
     37 CA          0.1688  -16.8043  -42.7832 C.3       7 UNK         0.1400 
     38 CB         -0.5720  -17.1742  -41.4846 C.3       7 UNK        -0.1800 
     39 N           1.6133  -17.0385  -42.6659 N.am      7 UNK        -0.5000 
     40 C           2.2689  -18.1843  -42.4144 C.2       6 UNK         0.5000 
     41 O           1.7362  -19.2659  -42.1750 O.2       6 UNK        -0.5000 
     42 CA          3.8079  -18.1087  -42.3972 C.3       6 UNK         0.1400 
     43 CB          4.3766  -18.4355  -43.7872 C.3       6 UNK        -0.1800 
     44 N           4.3241  -16.8111  -41.9605 N.am      6 UNK        -0.5000 
     45 C           4.1892  -16.3015  -40.7285 C.2       5 UNK         0.5000 
     46 O           3.6446  -16.8936  -39.7958 O.2       5 UNK        -0.5000 
     47 CA          4.7446  -14.8828  -40.4957 C.3       5 UNK         0.1400 
     48 CB          5.9803  -14.5555  -41.3640 C.3       5 UNK        -0.1800 
     49 N           3.7150  -13.8490  -40.6485 N.am      5 UNK        -0.5000 
     50 C           2.9848  -13.5817  -41.7405 C.2       4 UNK         0.5000 
     51 O           3.0500  -14.2343  -42.7888 O.2       4 UNK        -0.5000 
     52 CA          2.0322  -12.3736  -41.6574 C.3       4 UNK         0.1400 
     53 CB          2.6648  -11.1476  -40.9683 C.3       4 UNK        -0.1800 
     54 N           1.6486  -12.0280  -43.0179 N.am      4 UNK        -0.5000 
     55 C           0.5172  -11.4446  -43.4224 C.2       3 UNK         0.5000 
     56 O          -0.3425  -11.0091  -42.6556 O.2       3 UNK        -0.5000 
     57 CA          0.3080  -11.3430  -44.9500 C.3       3 UNK         0.1400 
     58 CB          0.5697   -9.9100  -45.4382 C.3       3 UNK        -0.1800 
     59 N           1.1534  -12.2653  -45.7185 N.am      3 UNK        -0.5000 
     60 C           1.0288  -13.5981  -45.7065 C.2       2 UNK         0.5000 
     61 O           0.1364  -14.1886  -45.0974 O.2       2 UNK        -0.5000 
     62 CA          2.0633  -14.3820  -46.5307 C.3       2 UNK         0.1400 
     63 CB          2.1425  -15.8686  -46.1458 C.3       2 UNK        -0.1800 
     64 N           1.7219  -14.2837  -47.9424 N.am      2 UNK        -0.5000 
     65 C           2.1672  -13.3412  -48.7813 C.2       1 UNK         0.5000 
     66 O           2.9644  -12.4571  -48.4644 O.2       1 UNK        -0.5000 
     67 C          -0.3983  -22.3285  -47.4215 C.2       11 UNK         0.5000 
     68 O           0.0922  -23.3353  -47.9319 O.2       11 UNK        -0.5000 
     69 N          -1.6398  -21.8942  -47.6809 N.am      12 UNK        -0.5000 
     70 CA         -2.5785  -22.5552  -48.5872 C.3       12 UNK         0.1400 
     71 CB         -3.8213  -21.6715  -48.7528 C.3       12 UNK        -0.1800 
     72 C          -2.9543  -23.9784  -48.1308 C.2       12 UNK         0.5000 
     73 O          -2.9913  -24.8904  -48.9574 O.2       12 UNK        -0.5000 
     74 N          -3.1703  -24.1602  -46.8196 N.am      13 UNK        -0.5000 
     75 CA         -3.4242  -25.4609  -46.1975 C.3       13 UNK         0.1400 
     76 CB         -3.8373  -25.2672  -44.7312 C.3       13 UNK        -0.1800 
     77 C          -2.2263  -26.4234  -46.3062 C.2       13 UNK         0.5000 
     78 O          -2.4276  -27.5997  -46.6080 O.2       13 UNK        -0.5000 
     79 N          -1.0064  -25.9081  -46.0945 N.am      14 UNK        -0.5000 
     80 CA          0.2493  -26.6481  -46.2419 C.3       14 UNK         0.1400 
     81 CB          1.4065  -25.8277  -45.6520 C.3       14 UNK        -0.1800 
     82 C           0.5430  -27.0359  -47.7028 C.2       14 UNK         0.5000 
     83 O           1.0093  -28.1481  -47.9533 O.2       14 UNK        -0.5000 
     84 N           0.2357  -26.1286  -48.6406 N.am      15 UNK        -0.5000 
     85 CA          0.2991  -26.3642  -50.0851 C.3       15 UNK         0.1400 
     86 CB          0.1781  -25.0186  -50.8188 C.3       15 UNK        -0.1800 
     87 C          -0.7804  -27.3456  -50.5863 C.2       15 UNK         0.5000 
     88 O          -0.5881  -27.9683  -51.6312 O.2       15 UNK        -0.5000 
     89 N          -1.8850  -27.4546  -49.8328 N.am      16 UNK        -0.5000 
     90 CA         -3.0907  -28.2425  -50.0971 C.3       16 UNK         0.1400 
     91 CB         -2.7816  -29.7534  -50.0584 C.3       16 UNK        -0.1800 
     92 C          -3.7952  -27.7895  -51.3910 C.2       16 UNK         0.5000 
     93 O          -4.1663  -28.6186  -52.2247 O.2       16 UNK        -0.5000 
     94 N          -3.9418  -26.4688  -51.5428 N.am      17 UNK        -0.5000 
     95 CA         -4.4907  -25.8141  -52.7251 C.3       17 UNK         0.1400 
     96 CB         -3.3624  -25.6108  -53.7550 C.3       17 UNK        -0.1800 
     97 C          -5.1274  -24.4746  -52.3295 C.2       17 UNK         0.5000 
     98 O          -4.9717  -24.0260  -51.1932 O.2       17 UNK        -0.5000 
     99 N          -5.8100  -23.8369  -53.2889 N.am      18 UNK        -0.5000 
    100 CA        -6.3879  -22.4968  -53.1397 C.3       18 UNK         0.1400 
    101 CB        -7.4170  -22.2692  -54.2577 C.3       18 UNK        -0.1800 
    102 C         -5.3359  -21.3682  -53.1479 C.2       18 UNK         0.5000 
    103 O         -5.6667  -20.2414  -52.7709 O.2       18 UNK        -0.5000 
    104 N         -4.1064  -21.6826  -53.5851 N.am      19 UNK        -0.5000 
    105 CA        -2.9651  -20.7804  -53.7533 C.3       19 UNK         0.1400 
    106 CB        -2.4527  -20.2911  -52.3813 C.3       19 UNK        -0.1800 
    107 C         -3.2925  -19.6594  -54.7624 C.2       19 UNK         0.5000 
    108 O         -3.8413  -19.9557  -55.8258 O.2       19 UNK        -0.5000 
    109 N         -2.9970  -18.3999  -54.4230 N.am      20 UNK        -0.5000 
    110 CA        -3.3232  -17.2140  -55.2197 C.3       20 UNK         0.1400 
    111 CB        -2.2362  -16.1480  -54.9837 C.3       20 UNK        -0.1800 
    112 C         -4.7491  -16.6987  -54.9137 C.2       20 UNK         0.5000 
    113 O         -4.9458  -15.4911  -54.7678 O.2       20 UNK        -0.5000 
    114 N         -5.7097  -17.6309  -54.8008 N.am      21 UNK        -0.5000 
    115 CA        -7.0975  -17.4438  -54.3588 C.3       21 UNK         0.1400 
    116 CB        -7.8967  -16.6014  -55.3748 C.3       21 UNK        -0.1800 
    117 C         -7.1596  -16.8940  -52.9183 C.2       21 UNK         0.5000 
    118 O         -7.8025  -15.8748  -52.6576 O.2       21 UNK        -0.5000 
    119 N         -6.4437  -17.5744  -52.0193 N.am      22 UNK        -0.5000 
    120 CA        -6.1727  -17.1444  -50.6394 C.3       22 UNK         0.1400 
    121 C         -6.0341  -18.3097  -49.6199 C.2       22 UNK         0.5000 
    122 N         -6.0825  -19.5700  -50.0311 N.am      22 UNK        -0.7600 
    123 O         -5.9112  -18.0657  -48.4230 O.2       22 UNK        -0.5000 
    124 C124       -4.9847  -16.1469  -50.5692 C.3       23 UNK        -0.0398 
    125 S125       -3.4823  -16.7524  -51.4142 S.3       23 UNK        -0.2404 
    126 C126       -2.3738  -17.0936  -50.0187 C.3       23 UNK        -0.0205 
    127 H127       -2.3318  -14.0625  -50.7000 H         1 UNK         0.0600 
    128 H128       -2.8622  -12.4680  -50.1782 H         1 UNK         0.0600 
    129 H129       -2.6190  -13.7426  -48.9813 H         1 UNK         0.0600 
    130 H130       -0.1047  -14.5427  -50.6830 H         1 UNK         0.3000 
    131 H131        1.7328  -12.4111  -50.6569 H         1 UNK         0.0600 
    132 H132        3.4463  -14.0528  -51.1759 H         1 UNK         0.0800 
    133 H133        2.4989  -15.3681  -50.5419 H         1 UNK         0.0800 
    134 H134        1.4217  -16.7892  -53.8515 H         1 UNK         0.0800 
    135 H135        2.8498  -16.8069  -52.8466 H         1 UNK         0.0800 
    136 H136       -0.6998  -15.9576  -51.8562 H         1 UNK         0.1150 
    137 H137       -1.0507  -19.3365  -49.2523 H         1 UNK         0.1150 
    138 H138        2.5168  -18.7730  -51.5575 H         1 UNK         0.1150 
    139 H139        0.5644  -21.2315  -49.7252 H         1 UNK         0.0800 
    140 H140        2.0619  -20.9101  -50.5285 H         1 UNK         0.0800 
    141 H141        1.3325  -19.5718  -46.1633 H         1 UNK         0.0800 
    142 H142        0.0982  -19.5776  -47.3709 H         1 UNK         0.0800 
    143 H143        1.2901  -22.1191  -46.1207 H         1 UNK         0.0600 
    144 H144       -0.5211  -20.3607  -44.8800 H         1 UNK         0.3000 
    145 H145       -2.4439  -22.7254  -43.0193 H         1 UNK         0.0600 
    146 H146       -1.7274  -21.2957  -41.1581 H         1 UNK         0.0600 
    147 H147       -0.3735  -22.2908  -41.6765 H         1 UNK         0.0600 
    148 H148       -0.4430  -20.5951  -42.1371 H         1 UNK         0.0600 
    149 H149       -2.4109  -19.8399  -43.3466 H         1 UNK         0.3000 
    150 H150       -4.9567  -19.7621  -45.8434 H         1 UNK         0.0600 
    151 H151       -6.1865  -20.0829  -43.6904 H         1 UNK         0.0600 
    152 H152       -6.0895  -18.3847  -44.1276 H         1 UNK         0.0600 
    153 H153       -5.0406  -19.0325  -42.8656 H         1 UNK         0.0600 
    154 H154       -3.6264  -17.6862  -44.4120 H         1 UNK         0.3000 
    155 H155       -1.0138  -17.2244  -46.8346 H         1 UNK         0.0600 
    156 H156       -2.0171  -15.0363  -46.8899 H         1 UNK         0.0600 
    157 H157       -3.3058  -15.4999  -45.7823 H         1 UNK         0.0600 
    158 H158       -3.2916  -16.1321  -47.4145 H         1 UNK         0.0600 
    159 H159       -1.0890  -15.6969  -44.6693 H         1 UNK         0.3000 
    160 H160        0.0666  -15.7259  -42.9115 H         1 UNK         0.0600 
    161 H161       -0.5474  -18.2464  -41.2896 H         1 UNK         0.0600 
    162 H162       -1.6205  -16.8794  -41.5391 H         1 UNK         0.0600 
    163 H163       -0.1350  -16.6672  -40.6242 H         1 UNK         0.0600 
    164 H164        2.1856  -16.2166  -42.8239 H         1 UNK         0.3000 
    165 H165        4.1667  -18.8652  -41.6960 H         1 UNK         0.0600 
    166 H166        4.0872  -17.6897  -44.5279 H         1 UNK         0.0600 
    167 H167        5.4654  -18.4835  -43.7666 H         1 UNK         0.0600 
    168 H168        4.0159  -19.4030  -44.1393 H         1 UNK         0.0600 
    169 H169        4.7456  -16.2281  -42.6692 H         1 UNK         0.3000 
    170 H170        5.0651  -14.8479  -39.4532 H         1 UNK         0.0600 
    171 H171        6.7503  -15.3200  -41.2524 H         1 UNK         0.0600 
    172 H172        5.7405  -14.4804  -42.4248 H         1 UNK         0.0600 
    173 H173        6.4242  -13.6068  -41.0621 H         1 UNK         0.0600 
    174 H174        3.5630  -13.2769  -39.8299 H         1 UNK         0.3000 
    175 H175        1.1464  -12.6894  -41.1028 H         1 UNK         0.0600 
    176 H176        3.6006  -10.8575  -41.4478 H         1 UNK         0.0600 
    177 H177        1.9954  -10.2877  -41.0006 H         1 UNK         0.0600 
    178 H178        2.8758  -11.3434  -39.9168 H         1 UNK         0.0600 
    179 H179        2.2578  -12.4242  -43.7215 H         1 UNK         0.3000 
    180 H180       -0.7360  -11.5897  -45.1542 H         1 UNK         0.0600 
    181 H181        1.6056   -9.6117  -45.2725 H         1 UNK         0.0600 
    182 H182       -0.0662   -9.1956  -44.9137 H         1 UNK         0.0600 
    183 H183        0.3569   -9.8123  -46.5032 H         1 UNK         0.0600 
    184 H184        1.8806  -11.8514  -46.2864 H         1 UNK         0.3000 
    185 H185        3.0456  -13.9421  -46.3450 H         1 UNK         0.0600 
    186 H186        2.9384  -16.3736  -46.6933 H         1 UNK         0.0600 
    187 H187        2.3597  -15.9793  -45.0846 H         1 UNK         0.0600 
    188 H188        1.2130  -16.3959  -46.3553 H         1 UNK         0.0600 
    189 H189        1.0288  -14.9343  -48.2812 H         1 UNK         0.3000 
    190 H190       -1.9671  -21.0386  -47.2392 H         1 UNK         0.3000 
    191 H191       -2.0944  -22.6401  -49.5620 H         1 UNK         0.0600 
    192 H192       -4.5386  -22.1278  -49.4343 H         1 UNK         0.0600 
    193 H193       -3.5543  -20.6979  -49.1653 H         1 UNK         0.0600 
    194 H194       -4.3274  -21.5045  -47.8017 H         1 UNK         0.0600 
    195 H195       -3.1779  -23.3514  -46.2063 H         1 UNK         0.3000 
    196 H196       -4.2638  -25.9189  -46.7246 H         1 UNK         0.0600 
    197 H197       -4.0674  -26.2241  -44.2613 H         1 UNK         0.0600 
    198 H198       -4.7275  -24.6433  -44.6510 H         1 UNK         0.0600 
    199 H199       -3.0452  -24.7982  -44.1481 H         1 UNK         0.0600 
    200 H200       -0.9272  -24.9407  -45.7916 H         1 UNK         0.3000 
    201 H201        0.1628  -27.5716  -45.6657 H         1 UNK         0.0600 
    202 H202        1.2448  -25.6246  -44.5933 H         1 UNK         0.0600 
    203 H203        1.5233  -24.8706  -46.1611 H         1 UNK         0.0600 
    204 H204        2.3516  -26.3649  -45.7397 H         1 UNK         0.0600 
    205 H205       -0.0642  -25.2035  -48.3432 H         1 UNK         0.3000 
    206 H206        1.2746  -26.7958  -50.3181 H         1 UNK         0.0600 
    207 H207        0.9661  -24.3296  -50.5140 H         1 UNK         0.0600 
    208 H208        0.2611  -25.1524  -51.8981 H         1 UNK         0.0600 
    209 H209       -0.7806  -24.5383  -50.6213 H         1 UNK         0.0600 
    210 H210       -1.9515  -26.8350  -49.0349 H         1 UNK         0.3000 
    211 H211       -3.7803  -28.0262  -49.2799 H         1 UNK         0.0600 
    212 H212       -2.1297  -30.0576  -50.8776 H         1 UNK         0.0600 
    213 H213       -3.6975  -30.3403  -50.1344 H         1 UNK         0.0600 
    214 H214       -2.2957  -30.0298  -49.1224 H         1 UNK         0.0600 
    215 H215       -3.6758  -25.8412  -50.7879 H         1 UNK         0.3000 
    216 H216       -5.2756  -26.4376  -53.1585 H         1 UNK         0.0600 
    217 H217       -3.7340  -25.1505  -54.6709 H         1 UNK         0.0600 
    218 H218       -2.9097  -26.5617  -54.0369 H         1 UNK         0.0600 
    219 H219       -2.5712  -24.9722  -53.3597 H         1 UNK         0.0600 
    220 H220       -5.9086  -24.2706  -54.1959 H         1 UNK         0.3000 
    221 H221       -6.9090  -22.4474  -52.1812 H         1 UNK         0.0600 
    222 H222       -6.9539  -22.3055  -55.2447 H         1 UNK         0.0600 
    223 H223       -8.2058  -23.0210  -54.2274 H         1 UNK         0.0600 
    224 H224       -7.8961  -21.2943  -54.1563 H         1 UNK         0.0600 
    225 H225       -3.9617  -22.6275  -53.9062 H         1 UNK         0.3000 
    226 H226       -2.1690  -21.3708  -54.2087 H         1 UNK         0.0600 
    227 H227       -2.2083  -21.1334  -51.7342 H         1 UNK         0.0600 
    228 H228       -1.5426  -19.7006  -52.4894 H         1 UNK         0.0600 
    229 H229       -3.1898  -19.6827  -51.8574 H         1 UNK         0.0600 
    230 H230       -2.6146  -18.2227  -53.5041 H         1 UNK         0.3000 
    231 H231       -3.3003  -17.4726  -56.2803 H         1 UNK         0.0600 
    232 H232       -2.3927  -15.2801  -55.6254 H         1 UNK         0.0600 
    233 H233       -1.2436  -16.5395  -55.2071 H         1 UNK         0.0600 
    234 H234       -2.2307  -15.7956  -53.9523 H         1 UNK         0.0600 
    235 H235       -5.4265  -18.5926  -54.9384 H         1 UNK         0.3000 
    236 H236       -7.5479  -18.4372  -54.3289 H         1 UNK         0.0600 
    237 H237       -7.8413  -17.0332  -56.3739 H         1 UNK         0.0600 
    238 H238       -8.9506  -16.5573  -55.0980 H         1 UNK         0.0600 
    239 H239       -7.5325  -15.5754  -55.4323 H         1 UNK         0.0600 
    240 H240       -5.9618  -18.4154  -52.3221 H         1 UNK         0.3000 
    241 H241       -7.0577  -16.6095  -50.2902 H         1 UNK         0.0600 
    242 H242       -6.1204  -19.8027  -51.0174 H         1 UNK         0.3800 
    243 H243       -6.0095  -20.3033  -49.3468 H         1 UNK         0.3800 
    244 H244       -5.2732  -15.2156  -51.0581 H         1 UNK         0.0800 
    245 H245       -4.7564  -15.8729  -49.5381 H         1 UNK         0.0800 
    246 H246       -2.2359  -16.1843  -49.4374 H         1 UNK         0.0800 
    247 H247       -2.8473  -17.8269  -49.3633 H         1 UNK         0.0800 
@<TRIPOS>BOND
     1    1    2 1    
     2    1  127 1    
     3    1  128 1    
     4    1  129 1    
     5    2    3 2    
     6    2    4 am   BACKBONE|DICT|INTERRES
     7    4    5 1    
     8    4  130 1    
     9    5    6 1    
    10    5   65 1    
    11    5  131 1    
    12    6    7 1    
    13    6  132 1    
    14    6  133 1    
    15    7    8 1    
    16    8    9 1    
    17    8  134 1    
    18    8  135 1    
    19    9   10 ar   
    20    9   14 ar   
    21   10   11 ar   
    22   10  136 1    
    23   11   12 ar   
    24   11  126 1    
    25   12   13 ar   
    26   12  137 1    
    27   13   14 ar   
    28   13   15 1    
    29   14  138 1    
    30   15   16 1    
    31   15  139 1    
    32   15  140 1    
    33   16   17 1    
    34   17   18 1    
    35   17  141 1    
    36   17  142 1    
    37   18   19 1    
    38   18   67 1    
    39   18  143 1    
    40   19   20 am   BACKBONE|DICT|INTERRES
    41   19  144 1    
    42   20   21 2    
    43   20   22 1    
    44   22   23 1    
    45   22   24 1    
    46   22  145 1    
    47   23  146 1    
    48   23  147 1    
    49   23  148 1    
    50   24   25 am   BACKBONE|DICT|INTERRES
    51   24  149 1    
    52   25   26 2    
    53   25   27 1    
    54   27   28 1    
    55   27   29 1    
    56   27  150 1    
    57   28  151 1    
    58   28  152 1    
    59   28  153 1    
    60   29   30 am   BACKBONE|DICT|INTERRES
    61   29  154 1    
    62   30   31 2    
    63   30   32 1    
    64   32   33 1    
    65   32   34 1    
    66   32  155 1    
    67   33  156 1    
    68   33  157 1    
    69   33  158 1    
    70   34   35 am   BACKBONE|DICT|INTERRES
    71   34  159 1    
    72   35   36 2    
    73   35   37 1    
    74   37   38 1    
    75   37   39 1    
    76   37  160 1    
    77   38  161 1    
    78   38  162 1    
    79   38  163 1    
    80   39   40 am   BACKBONE|DICT|INTERRES
    81   39  164 1    
    82   40   41 2    
    83   40   42 1    
    84   42   43 1    
    85   42   44 1    
    86   42  165 1    
    87   43  166 1    
    88   43  167 1    
    89   43  168 1    
    90   44   45 am   BACKBONE|DICT|INTERRES
    91   44  169 1    
    92   45   46 2    
    93   45   47 1    
    94   47   48 1    
    95   47   49 1    
    96   47  170 1    
    97   48  171 1    
    98   48  172 1    
    99   48  173 1    
   100   49   50 am   BACKBONE|DICT|INTERRES
   101   49  174 1    
   102   50   51 2    
   103   50   52 1    
   104   52   53 1    
   105   52   54 1    
   106   52  175 1    
   107   53  176 1    
   108   53  177 1    
   109   53  178 1    
   110   54   55 am   BACKBONE|DICT|INTERRES
   111   54  179 1    
   112   55   56 2    
   113   55   57 1    
   114   57   58 1    
   115   57   59 1    
   116   57  180 1    
   117   58  181 1    
   118   58  182 1    
   119   58  183 1    
   120   59   60 am   BACKBONE|DICT|INTERRES
   121   59  184 1    
   122   60   61 2    
   123   60   62 1    
   124   62   63 1    
   125   62   64 1    
   126   62  185 1    
   127   63  186 1    
   128   63  187 1    
   129   63  188 1    
   130   64   65 am   BACKBONE|DICT|INTERRES
   131   64  189 1    
   132   65   66 2    
   133   67   68 2    
   134   67   69 am   BACKBONE|DICT|INTERRES
   135   69   70 1    
   136   69  190 1    
   137   70   71 1    
   138   70   72 1    
   139   70  191 1    
   140   71  192 1    
   141   71  193 1    
   142   71  194 1    
   143   72   73 2    
   144   72   74 am   BACKBONE|DICT|INTERRES
   145   74   75 1    
   146   74  195 1    
   147   75   76 1    
   148   75   77 1    
   149   75  196 1    
   150   76  197 1    
   151   76  198 1    
   152   76  199 1    
   153   77   78 2    
   154   77   79 am   BACKBONE|DICT|INTERRES
   155   79   80 1    
   156   79  200 1    
   157   80   81 1    
   158   80   82 1    
   159   80  201 1    
   160   81  202 1    
   161   81  203 1    
   162   81  204 1    
   163   82   83 2    
   164   82   84 am   BACKBONE|DICT|INTERRES
   165   84   85 1    
   166   84  205 1    
   167   85   86 1    
   168   85   87 1    
   169   85  206 1    
   170   86  207 1    
   171   86  208 1    
   172   86  209 1    
   173   87   88 2    
   174   87   89 am   BACKBONE|DICT|INTERRES
   175   89   90 1    
   176   89  210 1    
   177   90   91 1    
   178   90   92 1    
   179   90  211 1    
   180   91  212 1    
   181   91  213 1    
   182   91  214 1    
   183   92   93 2    
   184   92   94 am   BACKBONE|DICT|INTERRES
   185   94   95 1    
   186   94  215 1    
   187   95   96 1    
   188   95   97 1    
   189   95  216 1    
   190   96  217 1    
   191   96  218 1    
   192   96  219 1    
   193   97   98 2    
   194   97   99 am   BACKBONE|DICT|INTERRES
   195   99  100 1    
   196   99  220 1    
   197  100  101 1    
   198  100  102 1    
   199  100  221 1    
   200  101  222 1    
   201  101  223 1    
   202  101  224 1    
   203  102  103 2    
   204  102  104 am   BACKBONE|DICT|INTERRES
   205  104  105 1    
   206  104  225 1    
   207  105  106 1    
   208  105  107 1    
   209  105  226 1    
   210  106  227 1    
   211  106  228 1    
   212  106  229 1    
   213  107  108 2    
   214  107  109 am   BACKBONE|DICT|INTERRES
   215  109  110 1    
   216  109  230 1    
   217  110  111 1    
   218  110  112 1    
   219  110  231 1    
   220  111  232 1    
   221  111  233 1    
   222  111  234 1    
   223  112  113 2    
   224  112  114 am   BACKBONE|DICT|INTERRES
   225  114  115 1    
   226  114  235 1    
   227  115  116 1    
   228  115  117 1    
   229  115  236 1    
   230  116  237 1    
   231  116  238 1    
   232  116  239 1    
   233  117  118 2    
   234  117  119 am   BACKBONE|DICT|INTERRES
   235  119  120 1    
   236  119  240 1    
   237  120  121 1    
   238  120  124 1    
   239  120  241 1    
   240  121  122 am   BACKBONE|DICT|INTERRES
   241  121  123 2    
   242  122  242 1    
   243  122  243 1    
   244  124  125 1    
   245  124  244 1    
   246  124  245 1    
   247  125  126 1    
   248  126  246 1    
   249  126  247 1    
@<TRIPOS>SUBSTRUCTURE
     1 UNK         1 GROUP             0       ****    0 ROOT    
