@<TRIPOS>MOLECULE
3R540
247   249    1
SMALL
USER_CHARGES


@<TRIPOS>ATOM
      1 CA          2.5961   -9.2424  -48.1056 C.3       0 UNK        -0.1800 
      2 C           3.1889  -10.6407  -48.2038 C.2       0 UNK         0.5000 
      3 O           4.3411  -10.7909  -48.6095 O.2       0 UNK        -0.5000 
      4 N           2.4109  -11.6588  -47.8199 N.am      1 UNK        -0.5000 
      5 CA          2.7986  -13.0788  -47.8484 C.3       1 UNK         0.1400 
      6 C6          1.6389  -13.9970  -48.3131 C.3       23 UNK        -0.0398 
      7 S7          0.8715  -13.4708  -49.8828 S.3       23 UNK        -0.2404 
      8 C8          1.7598  -14.5022  -51.0907 C.3       23 UNK        -0.0205 
      9 C9          1.2506  -15.9356  -51.1022 C.ar      23 UNK        -0.0193 
     10 C10         0.0495  -16.2440  -51.7458 C.ar      23 UNK        -0.1150 
     11 C11        -0.4183  -17.5602  -51.7849 C.ar      23 UNK        -0.0193 
     12 C12         0.3174  -18.5713  -51.1617 C.ar      23 UNK        -0.1150 
     13 C13         1.5188  -18.2757  -50.5126 C.ar      23 UNK        -0.0193 
     14 C14         1.9839  -16.9571  -50.4918 C.ar      23 UNK        -0.1150 
     15 C15         2.3292  -19.3793  -49.8512 C.3       23 UNK        -0.0205 
     16 S16         2.2488  -19.2859  -48.0369 S.3       23 UNK        -0.2404 
     17 C17         0.6207  -20.0351  -47.6865 C.3       23 UNK        -0.0398 
     18 CA          0.7308  -21.5240  -47.2771 C.3       11 UNK         0.1400 
     19 N           1.6537  -21.7355  -46.1606 N.am      11 UNK        -0.5000 
     20 C           2.2519  -22.8977  -45.8730 C.2       10 UNK         0.5000 
     21 O           2.1142  -23.9235  -46.5388 O.2       10 UNK        -0.5000 
     22 CA          3.1425  -22.9205  -44.6162 C.3       10 UNK         0.1400 
     23 CB          4.5778  -22.5000  -44.9664 C.3       10 UNK        -0.1800 
     24 N           2.6393  -22.0644  -43.5394 N.am      10 UNK        -0.5000 
     25 C           1.5009  -22.2888  -42.8694 C.2       9 UNK         0.5000 
     26 O           0.7569  -23.2433  -43.0864 O.2       9 UNK        -0.5000 
     27 CA          1.1026  -21.2491  -41.8076 C.3       9 UNK         0.1400 
     28 CB          1.8189  -21.5331  -40.4789 C.3       9 UNK        -0.1800 
     29 N           1.3400  -19.8567  -42.1996 N.am      9 UNK        -0.5000 
     30 C           0.8402  -19.2659  -43.2929 C.2       8 UNK         0.5000 
     31 O           0.2276  -19.8633  -44.1789 O.2       8 UNK        -0.5000 
     32 CA          1.0255  -17.7445  -43.4004 C.3       8 UNK         0.1400 
     33 CB          1.6251  -17.3506  -44.7592 C.3       8 UNK        -0.1800 
     34 N          -0.2611  -17.0753  -43.2434 N.am      8 UNK        -0.5000 
     35 C          -0.9838  -17.0220  -42.1171 C.2       7 UNK         0.5000 
     36 O          -0.6034  -17.4712  -41.0353 O.2       7 UNK        -0.5000 
     37 CA         -2.3651  -16.3544  -42.2163 C.3       7 UNK         0.1400 
     38 CB         -2.2392  -14.8271  -42.0928 C.3       7 UNK        -0.1800 
     39 N          -3.0369  -16.6832  -43.4747 N.am      7 UNK        -0.5000 
     40 C          -3.8871  -17.7059  -43.6393 C.2       6 UNK         0.5000 
     41 O          -4.1929  -18.4864  -42.7374 O.2       6 UNK        -0.5000 
     42 CA         -4.5381  -17.8773  -45.0271 C.3       6 UNK         0.1400 
     43 CB         -5.9969  -17.3956  -44.9934 C.3       6 UNK        -0.1800 
     44 N          -3.8336  -17.1544  -46.0869 N.am      6 UNK        -0.5000 
     45 C          -2.7905  -17.6475  -46.7664 C.2       5 UNK         0.5000 
     46 O          -2.3218  -18.7675  -46.5756 O.2       5 UNK        -0.5000 
     47 CA         -2.1432  -16.7169  -47.8134 C.3       5 UNK         0.1400 
     48 CB         -2.8785  -16.8317  -49.1557 C.3       5 UNK        -0.1800 
     49 N          -2.0947  -15.2990  -47.4334 N.am      5 UNK        -0.5000 
     50 C          -1.5531  -14.8127  -46.3113 C.2       4 UNK         0.5000 
     51 O          -1.1155  -15.5164  -45.3995 O.2       4 UNK        -0.5000 
     52 CA         -1.5079  -13.2872  -46.1654 C.3       4 UNK         0.1400 
     53 CB         -2.8902  -12.7300  -45.7852 C.3       4 UNK        -0.1800 
     54 N          -0.5491  -12.9637  -45.1139 N.am      4 UNK        -0.5000 
     55 C           0.1808  -11.8493  -45.0254 C.2       3 UNK         0.5000 
     56 O           0.1986  -10.9770  -45.8936 O.2       3 UNK        -0.5000 
     57 CA          1.0599  -11.6883  -43.7720 C.3       3 UNK         0.1400 
     58 CB          0.2598  -10.9766  -42.6705 C.3       3 UNK        -0.1800 
     59 N           1.5259  -12.9790  -43.2488 N.am      3 UNK        -0.5000 
     60 C           2.7455  -13.5319  -43.3545 C.2       2 UNK         0.5000 
     61 O           2.9831  -14.6225  -42.8375 O.2       2 UNK        -0.5000 
     62 CA          3.8686  -12.7940  -44.1263 C.3       2 UNK         0.1400 
     63 CB          5.2532  -13.4600  -43.9696 C.3       2 UNK        -0.1800 
     64 N           3.5339  -12.6051  -45.5418 N.am      2 UNK        -0.5000 
     65 C           3.3360  -13.5483  -46.4762 C.2       1 UNK         0.5000 
     66 O           3.5329  -14.7481  -46.2893 O.2       1 UNK        -0.5000 
     67 C          -0.6483  -22.1134  -46.9310 C.2       11 UNK         0.5000 
     68 O          -1.2159  -22.8490  -47.7365 O.2       11 UNK        -0.5000 
     69 N          -1.1259  -21.8338  -45.7099 N.am      12 UNK        -0.5000 
     70 CA         -2.3955  -22.3132  -45.1687 C.3       12 UNK         0.1400 
     71 CB         -2.6473  -21.6475  -43.8088 C.3       12 UNK        -0.1800 
     72 C          -2.4713  -23.8475  -45.0512 C.2       12 UNK         0.5000 
     73 O          -3.5265  -24.4253  -45.3122 O.2       12 UNK        -0.5000 
     74 N          -1.3490  -24.4822  -44.6838 N.am      13 UNK        -0.5000 
     75 CA         -1.2028  -25.9365  -44.6060 C.3       13 UNK         0.1400 
     76 CB          0.0820  -26.2767  -43.8358 C.3       13 UNK        -0.1800 
     77 C          -1.1934  -26.6281  -45.9824 C.2       13 UNK         0.5000 
     78 O          -1.5404  -27.8066  -46.0642 O.2       13 UNK        -0.5000 
     79 N          -0.8207  -25.8986  -47.0422 N.am      14 UNK        -0.5000 
     80 CA         -0.7196  -26.3880  -48.4185 C.3       14 UNK         0.1400 
     81 CB          0.4288  -25.6493  -49.1290 C.3       14 UNK        -0.1800 
     82 C          -2.0649  -26.3257  -49.1770 C.2       14 UNK         0.5000 
     83 O          -2.0954  -25.9738  -50.3583 O.2       14 UNK        -0.5000 
     84 N          -3.1494  -26.7057  -48.4846 N.am      15 UNK        -0.5000 
     85 CA         -4.5193  -26.8925  -48.9691 C.3       15 UNK         0.1400 
     86 CB         -4.6097  -28.2106  -49.7700 C.3       15 UNK        -0.1800 
     87 C          -5.0659  -25.6664  -49.7288 C.2       15 UNK         0.5000 
     88 O          -5.3802  -24.6549  -49.1012 O.2       15 UNK        -0.5000 
     89 N          -5.1595  -25.7719  -51.0617 N.am      16 UNK        -0.5000 
     90 CA         -5.6588  -24.7432  -51.9762 C.3       16 UNK         0.1400 
     91 CB         -5.6669  -25.3152  -53.4016 C.3       16 UNK        -0.1800 
     92 C          -4.8740  -23.4177  -51.9268 C.2       16 UNK         0.5000 
     93 O          -5.4578  -22.3663  -52.1902 O.2       16 UNK        -0.5000 
     94 N          -3.5933  -23.4766  -51.5324 N.am      17 UNK        -0.5000 
     95 CA         -2.7194  -22.3143  -51.3627 C.3       17 UNK         0.1400 
     96 CB         -1.2580  -22.7806  -51.3173 C.3       17 UNK        -0.1800 
     97 C          -3.0699  -21.4247  -50.1516 C.2       17 UNK         0.5000 
     98 O          -2.4555  -20.3710  -49.9955 O.2       17 UNK        -0.5000 
     99 N          -4.0613  -21.8256  -49.3403 N.am      18 UNK        -0.5000 
    100 CA        -4.7171  -20.9613  -48.3584 C.3       18 UNK         0.1400 
    101 CB        -5.5838  -21.8253  -47.4291 C.3       18 UNK        -0.1800 
    102 C         -5.5904  -19.8777  -49.0272 C.2       18 UNK         0.5000 
    103 O         -5.8336  -18.8350  -48.4201 O.2       18 UNK        -0.5000 
    104 N         -6.0547  -20.1531  -50.2531 N.am      19 UNK        -0.5000 
    105 CA        -6.8113  -19.2497  -51.1126 C.3       19 UNK         0.1400 
    106 CB        -8.0484  -20.0063  -51.6324 C.3       19 UNK        -0.1800 
    107 C         -5.9112  -18.7574  -52.2631 C.2       19 UNK         0.5000 
    108 O         -4.6978  -18.9611  -52.2335 O.2       19 UNK        -0.5000 
    109 N         -6.5199  -18.1169  -53.2702 N.am      20 UNK        -0.5000 
    110 CA        -5.8469  -17.5386  -54.4403 C.3       20 UNK         0.1400 
    111 CB        -6.8503  -16.6478  -55.1900 C.3       20 UNK        -0.1800 
    112 C         -5.2090  -18.5645  -55.4039 C.2       20 UNK         0.5000 
    113 O         -4.4563  -18.1675  -56.2947 O.2       20 UNK        -0.5000 
    114 N         -5.5003  -19.8586  -55.2228 N.am      21 UNK        -0.5000 
    115 CA        -4.9035  -20.9759  -55.9543 C.3       21 UNK         0.1400 
    116 CB        -5.8930  -22.1535  -55.9305 C.3       21 UNK        -0.1800 
    117 C         -3.5207  -21.3388  -55.3705 C.2       21 UNK         0.5000 
    118 O         -3.3323  -22.4418  -54.8571 O.2       21 UNK        -0.5000 
    119 N         -2.5865  -20.3824  -55.4360 N.am      22 UNK        -0.5000 
    120 CA        -1.2548  -20.4294  -54.8054 C.3       22 UNK         0.1400 
    121 C         -0.2776  -21.5124  -55.3517 C.2       22 UNK         0.5000 
    122 N         -0.5360  -22.1288  -56.4983 N.am      22 UNK        -0.7600 
    123 O          0.7369  -21.7960  -54.7214 O.2       22 UNK        -0.5000 
    124 C124       -0.5592  -19.0406  -54.7969 C.3       23 UNK        -0.0398 
    125 S125       -1.6327  -17.6539  -54.2860 S.3       23 UNK        -0.2404 
    126 C126       -1.7275  -17.8845  -52.4848 C.3       23 UNK        -0.0205 
    127 H127        2.5945   -8.7662  -49.0860 H         1 UNK         0.0600 
    128 H128        3.1896   -8.6290  -47.4277 H         1 UNK         0.0600 
    129 H129        1.5703   -9.2623  -47.7364 H         1 UNK         0.0600 
    130 H130        1.4817  -11.4600  -47.4636 H         1 UNK         0.3000 
    131 H131        3.6166  -13.2143  -48.5587 H         1 UNK         0.0600 
    132 H132        1.9793  -15.0287  -48.4108 H         1 UNK         0.0800 
    133 H133        0.8594  -14.0201  -47.5561 H         1 UNK         0.0800 
    134 H134        1.6288  -14.0690  -52.0834 H         1 UNK         0.0800 
    135 H135        2.8309  -14.4696  -50.8854 H         1 UNK         0.0800 
    136 H136       -0.5209  -15.4591  -52.2223 H         1 UNK         0.1150 
    137 H137       -0.0478  -19.5880  -51.1810 H         1 UNK         0.1150 
    138 H138        2.9169  -16.7296  -49.9955 H         1 UNK         0.1150 
    139 H139        1.9987  -20.3646  -50.1839 H         1 UNK         0.0800 
    140 H140        3.3713  -19.2876  -50.1602 H         1 UNK         0.0800 
    141 H141        0.1640  -19.4552  -46.8846 H         1 UNK         0.0800 
    142 H142       -0.0352  -19.9196  -48.5511 H         1 UNK         0.0800 
    143 H143        1.1115  -22.0725  -48.1417 H         1 UNK         0.0600 
    144 H144        1.7727  -20.9553  -45.5301 H         1 UNK         0.3000 
    145 H145        3.1672  -23.9483  -44.2477 H         1 UNK         0.0600 
    146 H146        5.2363  -22.5851  -44.1019 H         1 UNK         0.0600 
    147 H147        4.9896  -23.1356  -45.7514 H         1 UNK         0.0600 
    148 H148        4.6202  -21.4698  -45.3225 H         1 UNK         0.0600 
    149 H149        3.1856  -21.2486  -43.3055 H         1 UNK         0.3000 
    150 H150        0.0292  -21.3547  -41.6393 H         1 UNK         0.0600 
    151 H151        1.6445  -22.5594  -40.1524 H         1 UNK         0.0600 
    152 H152        1.4569  -20.8767  -39.6873 H         1 UNK         0.0600 
    153 H153        2.8973  -21.3943  -40.5644 H         1 UNK         0.0600 
    154 H154        1.8099  -19.2798  -41.5169 H         1 UNK         0.3000 
    155 H155        1.6994  -17.3999  -42.6133 H         1 UNK         0.0600 
    156 H156        1.8042  -16.2770  -44.8099 H         1 UNK         0.0600 
    157 H157        0.9621  -17.6097  -45.5850 H         1 UNK         0.0600 
    158 H158        2.5797  -17.8490  -44.9306 H         1 UNK         0.0600 
    159 H159       -0.6460  -16.6605  -44.0883 H         1 UNK         0.3000 
    160 H160       -2.9665  -16.7060  -41.3751 H         1 UNK         0.0600 
    161 H161       -1.6455  -14.4018  -42.9005 H         1 UNK         0.0600 
    162 H162       -1.7609  -14.5500  -41.1526 H         1 UNK         0.0600 
    163 H163       -3.2189  -14.3493  -42.1118 H         1 UNK         0.0600 
    164 H164       -2.7660  -16.1449  -44.2868 H         1 UNK         0.3000 
    165 H165       -4.5421  -18.9447  -45.2595 H         1 UNK         0.0600 
    166 H166       -6.0654  -16.3320  -44.7618 H         1 UNK         0.0600 
    167 H167       -6.4887  -17.5639  -45.9518 H         1 UNK         0.0600 
    168 H168       -6.5698  -17.9345  -44.2376 H         1 UNK         0.0600 
    169 H169       -4.1672  -16.2292  -46.3123 H         1 UNK         0.3000 
    170 H170       -1.1132  -17.0512  -47.9575 H         1 UNK         0.0600 
    171 H171       -2.8764  -17.8599  -49.5162 H         1 UNK         0.0600 
    172 H172       -3.9200  -16.5181  -49.0750 H         1 UNK         0.0600 
    173 H173       -2.4002  -16.2180  -49.9183 H         1 UNK         0.0600 
    174 H174       -2.4453  -14.6492  -48.1222 H         1 UNK         0.3000 
    175 H175       -1.1853  -12.8548  -47.1148 H         1 UNK         0.0600 
    176 H176       -2.8598  -11.6460  -45.6730 H         1 UNK         0.0600 
    177 H177       -3.6317  -12.9540  -46.5529 H         1 UNK         0.0600 
    178 H178       -3.2495  -13.1521  -44.8456 H         1 UNK         0.0600 
    179 H179       -0.4201  -13.7037  -44.4381 H         1 UNK         0.3000 
    180 H180        1.8927  -11.0365  -44.0331 H         1 UNK         0.0600 
    181 H181        0.8763  -10.7986  -41.7891 H         1 UNK         0.0600 
    182 H182       -0.1015  -10.0061  -43.0138 H         1 UNK         0.0600 
    183 H183       -0.6089  -11.5586  -42.3593 H         1 UNK         0.0600 
    184 H184        0.8458  -13.4882  -42.7063 H         1 UNK         0.3000 
    185 H185        3.9590  -11.8015  -43.6839 H         1 UNK         0.0600 
    186 H186        6.0212  -12.9021  -44.5051 H         1 UNK         0.0600 
    187 H187        5.5493  -13.4940  -42.9206 H         1 UNK         0.0600 
    188 H188        5.2640  -14.4849  -44.3411 H         1 UNK         0.0600 
    189 H189        3.3616  -11.6513  -45.8252 H         1 UNK         0.3000 
    190 H190       -0.6023  -21.1882  -45.1215 H         1 UNK         0.3000 
    191 H191       -3.1767  -21.9869  -45.8541 H         1 UNK         0.0600 
    192 H192       -3.6247  -21.9237  -43.4119 H         1 UNK         0.0600 
    193 H193       -2.6241  -20.5610  -43.8945 H         1 UNK         0.0600 
    194 H194       -1.8967  -21.9396  -43.0742 H         1 UNK         0.0600 
    195 H195       -0.5422  -23.9315  -44.4051 H         1 UNK         0.3000 
    196 H196       -2.0507  -26.3345  -44.0448 H         1 UNK         0.0600 
    197 H197        0.2235  -27.3558  -43.7631 H         1 UNK         0.0600 
    198 H198        0.0461  -25.8867  -42.8186 H         1 UNK         0.0600 
    199 H199        0.9642  -25.8604  -44.3245 H         1 UNK         0.0600 
    200 H200       -0.6249  -24.9147  -46.9085 H         1 UNK         0.3000 
    201 H201       -0.4429  -27.4440  -48.3956 H         1 UNK         0.0600 
    202 H202        1.3831  -25.8667  -48.6491 H         1 UNK         0.0600 
    203 H203        0.2938  -24.5697  -49.1042 H         1 UNK         0.0600 
    204 H204        0.5181  -25.9525  -50.1728 H         1 UNK         0.0600 
    205 H205       -2.9979  -26.9576  -47.5165 H         1 UNK         0.3000 
    206 H206       -5.1472  -27.0027  -48.0837 H         1 UNK         0.0600 
    207 H207       -4.3413  -29.0619  -49.1442 H         1 UNK         0.0600 
    208 H208       -5.6247  -28.3868  -50.1287 H         1 UNK         0.0600 
    209 H209       -3.9423  -28.2171  -50.6325 H         1 UNK         0.0600 
    210 H210       -4.8407  -26.6296  -51.4881 H         1 UNK         0.3000 
    211 H211       -6.6887  -24.5226  -51.6886 H         1 UNK         0.0600 
    212 H212       -4.6572  -25.5348  -53.7514 H         1 UNK         0.0600 
    213 H213       -6.1104  -24.6100  -54.1035 H         1 UNK         0.0600 
    214 H214       -6.2514  -26.2336  -53.4577 H         1 UNK         0.0600 
    215 H215       -3.1977  -24.3780  -51.2872 H         1 UNK         0.3000 
    216 H216       -2.8429  -21.6828  -52.2433 H         1 UNK         0.0600 
    217 H217       -0.5732  -21.9353  -51.2475 H         1 UNK         0.0600 
    218 H218       -0.9928  -23.3417  -52.2136 H         1 UNK         0.0600 
    219 H219       -1.0813  -23.4177  -50.4536 H         1 UNK         0.0600 
    220 H220       -4.4768  -22.7380  -49.4879 H         1 UNK         0.3000 
    221 H221       -3.9468  -20.4692  -47.7633 H         1 UNK         0.0600 
    222 H222       -6.4436  -22.2415  -47.9560 H         1 UNK         0.0600 
    223 H223       -5.0217  -22.6621  -47.0158 H         1 UNK         0.0600 
    224 H224       -5.9630  -21.2365  -46.5930 H         1 UNK         0.0600 
    225 H225       -5.7317  -20.9983  -50.7125 H         1 UNK         0.3000 
    226 H226       -7.1435  -18.3747  -50.5508 H         1 UNK         0.0600 
    227 H227       -8.6262  -20.4240  -50.8075 H         1 UNK         0.0600 
    228 H228       -8.7183  -19.3487  -52.1866 H         1 UNK         0.0600 
    229 H229       -7.7706  -20.8296  -52.2919 H         1 UNK         0.0600 
    230 H230       -7.5214  -17.9951  -53.2317 H         1 UNK         0.3000 
    231 H231       -5.0355  -16.9046  -54.0764 H         1 UNK         0.0600 
    232 H232       -6.3804  -16.1600  -56.0452 H         1 UNK         0.0600 
    233 H233       -7.2391  -15.8600  -54.5445 H         1 UNK         0.0600 
    234 H234       -7.6964  -17.2246  -55.5656 H         1 UNK         0.0600 
    235 H235       -6.0819  -20.1036  -54.4353 H         1 UNK         0.3000 
    236 H236       -4.7531  -20.6897  -56.9973 H         1 UNK         0.0600 
    237 H237       -6.1451  -22.4385  -54.9094 H         1 UNK         0.0600 
    238 H238       -6.8204  -21.8973  -56.4429 H         1 UNK         0.0600 
    239 H239       -5.4778  -23.0302  -56.4292 H         1 UNK         0.0600 
    240 H240       -2.8502  -19.4925  -55.8437 H         1 UNK         0.3000 
    241 H241       -1.4251  -20.7015  -53.7639 H         1 UNK         0.0600 
    242 H242        0.1018  -22.8302  -56.8403 H         1 UNK         0.3800 
    243 H243       -1.3720  -21.9145  -57.0175 H         1 UNK         0.3800 
    244 H244       -0.1917  -18.8042  -55.7970 H         1 UNK         0.0800 
    245 H245        0.3212  -19.0572  -54.1521 H         1 UNK         0.0800 
    246 H246       -2.5118  -17.2348  -52.0963 H         1 UNK         0.0800 
    247 H247       -2.0454  -18.9040  -52.2647 H         1 UNK         0.0800 
@<TRIPOS>BOND
     1    1    2 1    
     2    1  127 1    
     3    1  128 1    
     4    1  129 1    
     5    2    3 2    
     6    2    4 am   BACKBONE|DICT|INTERRES
     7    4    5 1    
     8    4  130 1    
     9    5    6 1    
    10    5   65 1    
    11    5  131 1    
    12    6    7 1    
    13    6  132 1    
    14    6  133 1    
    15    7    8 1    
    16    8    9 1    
    17    8  134 1    
    18    8  135 1    
    19    9   10 ar   
    20    9   14 ar   
    21   10   11 ar   
    22   10  136 1    
    23   11   12 ar   
    24   11  126 1    
    25   12   13 ar   
    26   12  137 1    
    27   13   14 ar   
    28   13   15 1    
    29   14  138 1    
    30   15   16 1    
    31   15  139 1    
    32   15  140 1    
    33   16   17 1    
    34   17   18 1    
    35   17  141 1    
    36   17  142 1    
    37   18   19 1    
    38   18   67 1    
    39   18  143 1    
    40   19   20 am   BACKBONE|DICT|INTERRES
    41   19  144 1    
    42   20   21 2    
    43   20   22 1    
    44   22   23 1    
    45   22   24 1    
    46   22  145 1    
    47   23  146 1    
    48   23  147 1    
    49   23  148 1    
    50   24   25 am   BACKBONE|DICT|INTERRES
    51   24  149 1    
    52   25   26 2    
    53   25   27 1    
    54   27   28 1    
    55   27   29 1    
    56   27  150 1    
    57   28  151 1    
    58   28  152 1    
    59   28  153 1    
    60   29   30 am   BACKBONE|DICT|INTERRES
    61   29  154 1    
    62   30   31 2    
    63   30   32 1    
    64   32   33 1    
    65   32   34 1    
    66   32  155 1    
    67   33  156 1    
    68   33  157 1    
    69   33  158 1    
    70   34   35 am   BACKBONE|DICT|INTERRES
    71   34  159 1    
    72   35   36 2    
    73   35   37 1    
    74   37   38 1    
    75   37   39 1    
    76   37  160 1    
    77   38  161 1    
    78   38  162 1    
    79   38  163 1    
    80   39   40 am   BACKBONE|DICT|INTERRES
    81   39  164 1    
    82   40   41 2    
    83   40   42 1    
    84   42   43 1    
    85   42   44 1    
    86   42  165 1    
    87   43  166 1    
    88   43  167 1    
    89   43  168 1    
    90   44   45 am   BACKBONE|DICT|INTERRES
    91   44  169 1    
    92   45   46 2    
    93   45   47 1    
    94   47   48 1    
    95   47   49 1    
    96   47  170 1    
    97   48  171 1    
    98   48  172 1    
    99   48  173 1    
   100   49   50 am   BACKBONE|DICT|INTERRES
   101   49  174 1    
   102   50   51 2    
   103   50   52 1    
   104   52   53 1    
   105   52   54 1    
   106   52  175 1    
   107   53  176 1    
   108   53  177 1    
   109   53  178 1    
   110   54   55 am   BACKBONE|DICT|INTERRES
   111   54  179 1    
   112   55   56 2    
   113   55   57 1    
   114   57   58 1    
   115   57   59 1    
   116   57  180 1    
   117   58  181 1    
   118   58  182 1    
   119   58  183 1    
   120   59   60 am   BACKBONE|DICT|INTERRES
   121   59  184 1    
   122   60   61 2    
   123   60   62 1    
   124   62   63 1    
   125   62   64 1    
   126   62  185 1    
   127   63  186 1    
   128   63  187 1    
   129   63  188 1    
   130   64   65 am   BACKBONE|DICT|INTERRES
   131   64  189 1    
   132   65   66 2    
   133   67   68 2    
   134   67   69 am   BACKBONE|DICT|INTERRES
   135   69   70 1    
   136   69  190 1    
   137   70   71 1    
   138   70   72 1    
   139   70  191 1    
   140   71  192 1    
   141   71  193 1    
   142   71  194 1    
   143   72   73 2    
   144   72   74 am   BACKBONE|DICT|INTERRES
   145   74   75 1    
   146   74  195 1    
   147   75   76 1    
   148   75   77 1    
   149   75  196 1    
   150   76  197 1    
   151   76  198 1    
   152   76  199 1    
   153   77   78 2    
   154   77   79 am   BACKBONE|DICT|INTERRES
   155   79   80 1    
   156   79  200 1    
   157   80   81 1    
   158   80   82 1    
   159   80  201 1    
   160   81  202 1    
   161   81  203 1    
   162   81  204 1    
   163   82   83 2    
   164   82   84 am   BACKBONE|DICT|INTERRES
   165   84   85 1    
   166   84  205 1    
   167   85   86 1    
   168   85   87 1    
   169   85  206 1    
   170   86  207 1    
   171   86  208 1    
   172   86  209 1    
   173   87   88 2    
   174   87   89 am   BACKBONE|DICT|INTERRES
   175   89   90 1    
   176   89  210 1    
   177   90   91 1    
   178   90   92 1    
   179   90  211 1    
   180   91  212 1    
   181   91  213 1    
   182   91  214 1    
   183   92   93 2    
   184   92   94 am   BACKBONE|DICT|INTERRES
   185   94   95 1    
   186   94  215 1    
   187   95   96 1    
   188   95   97 1    
   189   95  216 1    
   190   96  217 1    
   191   96  218 1    
   192   96  219 1    
   193   97   98 2    
   194   97   99 am   BACKBONE|DICT|INTERRES
   195   99  100 1    
   196   99  220 1    
   197  100  101 1    
   198  100  102 1    
   199  100  221 1    
   200  101  222 1    
   201  101  223 1    
   202  101  224 1    
   203  102  103 2    
   204  102  104 am   BACKBONE|DICT|INTERRES
   205  104  105 1    
   206  104  225 1    
   207  105  106 1    
   208  105  107 1    
   209  105  226 1    
   210  106  227 1    
   211  106  228 1    
   212  106  229 1    
   213  107  108 2    
   214  107  109 am   BACKBONE|DICT|INTERRES
   215  109  110 1    
   216  109  230 1    
   217  110  111 1    
   218  110  112 1    
   219  110  231 1    
   220  111  232 1    
   221  111  233 1    
   222  111  234 1    
   223  112  113 2    
   224  112  114 am   BACKBONE|DICT|INTERRES
   225  114  115 1    
   226  114  235 1    
   227  115  116 1    
   228  115  117 1    
   229  115  236 1    
   230  116  237 1    
   231  116  238 1    
   232  116  239 1    
   233  117  118 2    
   234  117  119 am   BACKBONE|DICT|INTERRES
   235  119  120 1    
   236  119  240 1    
   237  120  121 1    
   238  120  124 1    
   239  120  241 1    
   240  121  122 am   BACKBONE|DICT|INTERRES
   241  121  123 2    
   242  122  242 1    
   243  122  243 1    
   244  124  125 1    
   245  124  244 1    
   246  124  245 1    
   247  125  126 1    
   248  126  246 1    
   249  126  247 1    
@<TRIPOS>SUBSTRUCTURE
     1 UNK         1 GROUP             0       ****    0 ROOT    
