@<TRIPOS>MOLECULE
3R540
247   249    1
SMALL
USER_CHARGES


@<TRIPOS>ATOM
      1 CA          1.6279  -12.6109  -53.0139 C.3       0 UNK        -0.1800 
      2 C           1.2078  -12.4576  -51.5589 C.2       0 UNK         0.5000 
      3 O           0.7035  -11.4018  -51.1768 O.2       0 UNK        -0.5000 
      4 N           1.4145  -13.5081  -50.7532 N.am      1 UNK        -0.5000 
      5 CA          1.0862  -13.5811  -49.3236 C.3       1 UNK         0.1400 
      6 C6         -0.4418  -13.5016  -49.0487 C.3       23 UNK        -0.0398 
      7 S7         -0.8983  -14.3304  -47.4878 S.3       23 UNK        -0.2404 
      8 C8         -1.8405  -15.7904  -48.0412 C.3       23 UNK        -0.0205 
      9 C9         -1.0800  -16.6993  -49.0010 C.ar      23 UNK        -0.0193 
     10 C10        -1.7166  -17.1682  -50.1527 C.ar      23 UNK        -0.1150 
     11 C11        -1.0516  -18.0172  -51.0409 C.ar      23 UNK        -0.0193 
     12 C12         0.2698  -18.3869  -50.7806 C.ar      23 UNK        -0.1150 
     13 C13         0.9211  -17.9231  -49.6345 C.ar      23 UNK        -0.0193 
     14 C14         0.2362  -17.0941  -48.7406 C.ar      23 UNK        -0.1150 
     15 C15         2.3709  -18.3034  -49.3753 C.3       23 UNK        -0.0205 
     16 S16         2.5533  -20.0453  -48.8832 S.3       23 UNK        -0.2404 
     17 C17         1.7643  -20.0394  -47.2392 C.3       23 UNK        -0.0398 
     18 CA          0.8822  -21.2810  -46.9794 C.3       11 UNK         0.1400 
     19 N           0.5712  -21.4180  -45.5572 N.am      11 UNK        -0.5000 
     20 C           0.0319  -22.5006  -44.9846 C.2       10 UNK         0.5000 
     21 O          -0.2452  -23.5306  -45.5978 O.2       10 UNK        -0.5000 
     22 CA         -0.2870  -22.3990  -43.4813 C.3       10 UNK         0.1400 
     23 CB          0.9757  -22.6219  -42.6359 C.3       10 UNK        -0.1800 
     24 N          -0.9000  -21.1194  -43.1208 N.am      10 UNK        -0.5000 
     25 C          -2.0939  -20.7041  -43.5686 C.2       9 UNK         0.5000 
     26 O          -2.8196  -21.3734  -44.3041 O.2       9 UNK        -0.5000 
     27 CA         -2.5315  -19.2850  -43.1658 C.3       9 UNK         0.1400 
     28 CB         -3.0651  -19.2648  -41.7258 C.3       9 UNK        -0.1800 
     29 N          -1.4590  -18.3003  -43.3094 N.am      9 UNK        -0.5000 
     30 C          -0.8672  -17.9889  -44.4720 C.2       8 UNK         0.5000 
     31 O          -1.1785  -18.4807  -45.5554 O.2       8 UNK        -0.5000 
     32 CA          0.3057  -16.9991  -44.4069 C.3       8 UNK         0.1400 
     33 CB         -0.2038  -15.5687  -44.1782 C.3       8 UNK        -0.1800 
     34 N           1.2666  -17.3396  -43.3618 N.am      8 UNK        -0.5000 
     35 C           1.9428  -18.4895  -43.2546 C.2       7 UNK         0.5000 
     36 O           1.8837  -19.3997  -44.0778 O.2       7 UNK        -0.5000 
     37 CA          2.7837  -18.6744  -41.9813 C.3       7 UNK         0.1400 
     38 CB          4.1457  -17.9756  -42.1055 C.3       7 UNK        -0.1800 
     39 N           2.0880  -18.1817  -40.7936 N.am      7 UNK        -0.5000 
     40 C           1.0085  -18.7600  -40.2511 C.2       6 UNK         0.5000 
     41 O           0.4952  -19.7942  -40.6811 O.2       6 UNK        -0.5000 
     42 CA          0.3848  -18.0386  -39.0420 C.3       6 UNK         0.1400 
     43 CB          1.1678  -18.3521  -37.7581 C.3       6 UNK        -0.1800 
     44 N           0.3113  -16.5865  -39.2255 N.am      6 UNK        -0.5000 
     45 C          -0.5046  -15.9872  -40.1030 C.2       5 UNK         0.5000 
     46 O          -1.2727  -16.5995  -40.8456 O.2       5 UNK        -0.5000 
     47 CA         -0.4346  -14.4484  -40.1910 C.3       5 UNK         0.1400 
     48 CB         -1.2410  -13.8106  -39.0493 C.3       5 UNK        -0.1800 
     49 N           0.9132  -13.8614  -40.2175 N.am      5 UNK        -0.5000 
     50 C           1.9228  -14.2416  -41.0121 C.2       4 UNK         0.5000 
     51 O           1.9125  -15.2702  -41.6864 O.2       4 UNK        -0.5000 
     52 CA          3.1689  -13.3378  -41.0517 C.3       4 UNK         0.1400 
     53 CB          4.1110  -13.6790  -39.8872 C.3       4 UNK        -0.1800 
     54 N           3.8974  -13.5074  -42.3130 N.am      4 UNK        -0.5000 
     55 C           3.4525  -13.1110  -43.5132 C.2       3 UNK         0.5000 
     56 O           2.4502  -12.4108  -43.6809 O.2       3 UNK        -0.5000 
     57 CA          4.2522  -13.6089  -44.7266 C.3       3 UNK         0.1400 
     58 CB          3.9106  -15.0769  -45.0459 C.3       3 UNK        -0.1800 
     59 N           3.9526  -12.7850  -45.8940 N.am      3 UNK        -0.5000 
     60 C           4.7878  -12.5502  -46.9110 C.2       2 UNK         0.5000 
     61 O           5.9335  -13.0017  -46.9681 O.2       2 UNK        -0.5000 
     62 CA          4.2249  -11.7147  -48.0787 C.3       2 UNK         0.1400 
     63 CB          5.3153  -11.2566  -49.0643 C.3       2 UNK        -0.1800 
     64 N           3.2264  -12.4905  -48.8139 N.am      2 UNK        -0.5000 
     65 C           1.9367  -12.6060  -48.4706 C.2       1 UNK         0.5000 
     66 O           1.4395  -11.9893  -47.5264 O.2       1 UNK        -0.5000 
     67 C          -0.3915  -21.3118  -47.8515 C.2       11 UNK         0.5000 
     68 O          -0.4158  -22.0303  -48.8495 O.2       11 UNK        -0.5000 
     69 N          -1.4489  -20.6002  -47.4342 N.am      12 UNK        -0.5000 
     70 CA         -2.7603  -20.6208  -48.0854 C.3       12 UNK         0.1400 
     71 CB         -3.6693  -19.5523  -47.4621 C.3       12 UNK        -0.1800 
     72 C          -3.4317  -22.0063  -48.0323 C.2       12 UNK         0.5000 
     73 O          -4.0211  -22.4319  -49.0261 O.2       12 UNK        -0.5000 
     74 N          -3.3069  -22.7008  -46.8918 N.am      13 UNK        -0.5000 
     75 CA         -3.7784  -24.0737  -46.7093 C.3       13 UNK         0.1400 
     76 CB         -3.6915  -24.4676  -45.2279 C.3       13 UNK        -0.1800 
     77 C          -3.0225  -25.0807  -47.5964 C.2       13 UNK         0.5000 
     78 O          -3.6542  -25.9505  -48.1973 O.2       13 UNK        -0.5000 
     79 N          -1.6952  -24.9238  -47.6993 N.am      14 UNK        -0.5000 
     80 CA         -0.8387  -25.7012  -48.5970 C.3       14 UNK         0.1400 
     81 CB          0.6371  -25.4043  -48.2922 C.3       14 UNK        -0.1800 
     82 C          -1.1568  -25.4475  -50.0829 C.2       14 UNK         0.5000 
     83 O          -1.1635  -26.3920  -50.8739 O.2       14 UNK        -0.5000 
     84 N          -1.4682  -24.1916  -50.4297 N.am      15 UNK        -0.5000 
     85 CA         -1.8882  -23.7375  -51.7555 C.3       15 UNK         0.1400 
     86 CB         -1.6221  -22.2290  -51.8733 C.3       15 UNK        -0.1800 
     87 C          -3.3529  -24.1067  -52.0808 C.2       15 UNK         0.5000 
     88 O          -4.1523  -23.2344  -52.4356 O.2       15 UNK        -0.5000 
     89 N          -3.6492  -25.4094  -51.9919 N.am      16 UNK        -0.5000 
     90 CA         -4.9079  -26.0762  -52.3244 C.3       16 UNK         0.1400 
     91 CB         -5.2265  -25.9280  -53.8277 C.3       16 UNK        -0.1800 
     92 C          -6.0785  -25.6682  -51.4096 C.2       16 UNK         0.5000 
     93 O          -7.1547  -25.3332  -51.9028 O.2       16 UNK        -0.5000 
     94 N          -5.8599  -25.7278  -50.0873 N.am      17 UNK        -0.5000 
     95 CA         -6.8692  -25.5707  -49.0308 C.3       17 UNK         0.1400 
     96 CB         -7.8239  -26.7832  -49.0223 C.3       17 UNK        -0.1800 
     97 C          -7.6132  -24.2205  -49.0888 C.2       17 UNK         0.5000 
     98 O          -8.8407  -24.1820  -48.9883 O.2       17 UNK        -0.5000 
     99 N          -6.8433  -23.1395  -49.2732 N.am      18 UNK        -0.5000 
    100 CA        -7.2847  -21.7481  -49.3991 C.3       18 UNK         0.1400 
    101 CB        -8.0219  -21.2670  -48.1317 C.3       18 UNK        -0.1800 
    102 C         -8.0489  -21.4342  -50.7033 C.2       18 UNK         0.5000 
    103 O         -8.6571  -20.3670  -50.7986 O.2       18 UNK        -0.5000 
    104 N         -7.9521  -22.3113  -51.7170 N.am      19 UNK        -0.5000 
    105 CA        -8.3659  -22.0138  -53.0956 C.3       19 UNK         0.1400 
    106 CB        -8.5113  -23.3175  -53.8930 C.3       19 UNK        -0.1800 
    107 C         -7.3898  -21.0518  -53.8074 C.2       19 UNK         0.5000 
    108 O         -7.7508  -20.4789  -54.8357 O.2       19 UNK        -0.5000 
    109 N         -6.1921  -20.8826  -53.2275 N.am      20 UNK        -0.5000 
    110 CA        -5.1231  -19.9634  -53.6044 C.3       20 UNK         0.1400 
    111 CB        -5.5919  -18.4938  -53.5662 C.3       20 UNK        -0.1800 
    112 C         -4.4507  -20.3629  -54.9258 C.2       20 UNK         0.5000 
    113 O         -4.4604  -19.6032  -55.8972 O.2       20 UNK        -0.5000 
    114 N         -3.8185  -21.5451  -54.9099 N.am      21 UNK        -0.5000 
    115 CA        -2.9972  -22.0855  -56.0026 C.3       21 UNK         0.1400 
    116 CB        -2.5552  -23.5117  -55.6414 C.3       21 UNK        -0.1800 
    117 C         -1.7724  -21.2188  -56.3824 C.2       21 UNK         0.5000 
    118 O         -1.1817  -21.4433  -57.4395 O.2       21 UNK        -0.5000 
    119 N         -1.4281  -20.2364  -55.5374 N.am      22 UNK        -0.5000 
    120 CA        -0.4843  -19.1475  -55.8324 C.3       22 UNK         0.1400 
    121 C         -0.9374  -18.1828  -56.9727 C.2       22 UNK         0.5000 
    122 N         -2.2148  -18.1320  -57.3375 N.am      22 UNK        -0.7600 
    123 O         -0.1097  -17.4763  -57.5417 O.2       22 UNK        -0.5000 
    124 C124       -0.0970  -18.3653  -54.5467 C.3       23 UNK        -0.0398 
    125 S125       -1.5100  -17.5264  -53.7349 S.3       23 UNK        -0.2404 
    126 C126       -1.7810  -18.5527  -52.2600 C.3       23 UNK        -0.0205 
    127 H127        2.0464  -13.5975  -53.2144 H         1 UNK         0.0600 
    128 H128        2.3804  -11.8642  -53.2677 H         1 UNK         0.0600 
    129 H129        0.7688  -12.4674  -53.6693 H         1 UNK         0.0600 
    130 H130        1.8260  -14.3449  -51.1425 H         1 UNK         0.3000 
    131 H131        1.4212  -14.5749  -49.0265 H         1 UNK         0.0600 
    132 H132       -0.7843  -12.4660  -49.0200 H         1 UNK         0.0800 
    133 H133       -0.9943  -13.9722  -49.8629 H         1 UNK         0.0800 
    134 H134       -2.1219  -16.3732  -47.1636 H         1 UNK         0.0800 
    135 H135       -2.7719  -15.4457  -48.4928 H         1 UNK         0.0800 
    136 H136       -2.7387  -16.8806  -50.3556 H         1 UNK         0.1150 
    137 H137        0.7920  -19.0422  -51.4628 H         1 UNK         0.1150 
    138 H138        0.7308  -16.7426  -47.8467 H         1 UNK         0.1150 
    139 H139        2.9511  -18.1328  -50.2832 H         1 UNK         0.0800 
    140 H140        2.8110  -17.6635  -48.6086 H         1 UNK         0.0800 
    141 H141        1.1924  -19.1253  -47.0793 H         1 UNK         0.0800 
    142 H142        2.5783  -20.0101  -46.5144 H         1 UNK         0.0800 
    143 H143        1.4713  -22.1605  -47.2482 H         1 UNK         0.0600 
    144 H144        0.8175  -20.6262  -44.9675 H         1 UNK         0.3000 
    145 H145       -1.0001  -23.1899  -43.2400 H         1 UNK         0.0600 
    146 H146        0.7414  -22.6223  -41.5712 H         1 UNK         0.0600 
    147 H147        1.4368  -23.5825  -42.8688 H         1 UNK         0.0600 
    148 H148        1.7222  -21.8472  -42.8122 H         1 UNK         0.0600 
    149 H149       -0.3725  -20.5179  -42.4979 H         1 UNK         0.3000 
    150 H150       -3.3439  -18.9888  -43.8326 H         1 UNK         0.0600 
    151 H151       -3.8659  -19.9936  -41.5946 H         1 UNK         0.0600 
    152 H152       -3.4716  -18.2859  -41.4713 H         1 UNK         0.0600 
    153 H153       -2.2835  -19.4994  -41.0024 H         1 UNK         0.0600 
    154 H154       -1.1661  -17.8210  -42.4638 H         1 UNK         0.3000 
    155 H155        0.8239  -17.0329  -45.3669 H         1 UNK         0.0600 
    156 H156       -0.5691  -15.4297  -43.1625 H         1 UNK         0.0600 
    157 H157        0.5827  -14.8342  -44.3522 H         1 UNK         0.0600 
    158 H158       -1.0316  -15.3325  -44.8449 H         1 UNK         0.0600 
    159 H159        1.4226  -16.6270  -42.6489 H         1 UNK         0.3000 
    160 H160        2.9624  -19.7444  -41.8557 H         1 UNK         0.0600 
    161 H161        4.0424  -16.8912  -42.1389 H         1 UNK         0.0600 
    162 H162        4.6654  -18.2870  -43.0126 H         1 UNK         0.0600 
    163 H163        4.7897  -18.2214  -41.2611 H         1 UNK         0.0600 
    164 H164        2.3894  -17.2886  -40.4316 H         1 UNK         0.3000 
    165 H165       -0.6318  -18.4187  -38.9191 H         1 UNK         0.0600 
    166 H166        0.6839  -17.9141  -36.8849 H         1 UNK         0.0600 
    167 H167        1.2263  -19.4283  -37.5903 H         1 UNK         0.0600 
    168 H168        2.1886  -17.9706  -37.8031 H         1 UNK         0.0600 
    169 H169        0.9231  -16.0152  -38.6613 H         1 UNK         0.3000 
    170 H170       -0.9137  -14.1647  -41.1297 H         1 UNK         0.0600 
    171 H171       -0.7789  -13.9944  -38.0786 H         1 UNK         0.0600 
    172 H172       -1.3278  -12.7319  -39.1812 H         1 UNK         0.0600 
    173 H173       -2.2543  -14.2132  -39.0124 H         1 UNK         0.0600 
    174 H174        1.0309  -13.0202  -39.6715 H         1 UNK         0.3000 
    175 H175        2.8537  -12.2959  -40.9657 H         1 UNK         0.0600 
    176 H176        4.9936  -13.0390  -39.8936 H         1 UNK         0.0600 
    177 H177        4.4477  -14.7158  -39.9320 H         1 UNK         0.0600 
    178 H178        3.6154  -13.5362  -38.9261 H         1 UNK         0.0600 
    179 H179        4.7123  -14.1011  -42.2725 H         1 UNK         0.3000 
    180 H180        5.3138  -13.5264  -44.4835 H         1 UNK         0.0600 
    181 H181        2.8591  -15.1954  -45.3091 H         1 UNK         0.0600 
    182 H182        4.1088  -15.7242  -44.1925 H         1 UNK         0.0600 
    183 H183        4.5067  -15.4504  -45.8787 H         1 UNK         0.0600 
    184 H184        3.0251  -12.3731  -45.9017 H         1 UNK         0.3000 
    185 H185        3.7619  -10.8196  -47.6576 H         1 UNK         0.0600 
    186 H186        6.0814  -10.6716  -48.5540 H         1 UNK         0.0600 
    187 H187        5.8107  -12.1017  -49.5439 H         1 UNK         0.0600 
    188 H188        4.8955  -10.6266  -49.8487 H         1 UNK         0.0600 
    189 H189        3.5672  -13.0344  -49.5932 H         1 UNK         0.3000 
    190 H190       -1.3509  -19.9878  -46.6272 H         1 UNK         0.3000 
    191 H191       -2.6117  -20.3635  -49.1360 H         1 UNK         0.0600 
    192 H192       -3.2436  -18.5569  -47.5854 H         1 UNK         0.0600 
    193 H193       -4.6515  -19.5476  -47.9363 H         1 UNK         0.0600 
    194 H194       -3.8174  -19.7225  -46.3953 H         1 UNK         0.0600 
    195 H195       -2.8610  -22.2600  -46.0930 H         1 UNK         0.3000 
    196 H196       -4.8300  -24.0990  -46.9983 H         1 UNK         0.0600 
    197 H197       -4.0640  -25.4806  -45.0710 H         1 UNK         0.0600 
    198 H198       -4.2912  -23.8009  -44.6080 H         1 UNK         0.0600 
    199 H199       -2.6667  -24.4338  -44.8588 H         1 UNK         0.0600 
    200 H200       -1.2378  -24.2215  -47.1248 H         1 UNK         0.3000 
    201 H201       -1.0190  -26.7591  -48.3959 H         1 UNK         0.0600 
    202 H202        0.8803  -25.6394  -47.2559 H         1 UNK         0.0600 
    203 H203        0.8826  -24.3562  -48.4628 H         1 UNK         0.0600 
    204 H204        1.2940  -26.0022  -48.9250 H         1 UNK         0.0600 
    205 H205       -1.3859  -23.4674  -49.7216 H         1 UNK         0.3000 
    206 H206       -1.2623  -24.2373  -52.4972 H         1 UNK         0.0600 
    207 H207       -0.5796  -21.9925  -51.6592 H         1 UNK         0.0600 
    208 H208       -1.8316  -21.8754  -52.8818 H         1 UNK         0.0600 
    209 H209       -2.2434  -21.6585  -51.1825 H         1 UNK         0.0600 
    210 H210       -2.9019  -26.0180  -51.6704 H         1 UNK         0.3000 
    211 H211       -4.7433  -27.1379  -52.1358 H         1 UNK         0.0600 
    212 H212       -5.4155  -24.8911  -54.1045 H         1 UNK         0.0600 
    213 H213       -6.1122  -26.5038  -54.0987 H         1 UNK         0.0600 
    214 H214       -4.4038  -26.2944  -54.4414 H         1 UNK         0.0600 
    215 H215       -4.9280  -25.9516  -49.7514 H         1 UNK         0.3000 
    216 H216       -6.3333  -25.5803  -48.0821 H         1 UNK         0.0600 
    217 H217       -8.5064  -26.7384  -48.1728 H         1 UNK         0.0600 
    218 H218       -7.2706  -27.7189  -48.9424 H         1 UNK         0.0600 
    219 H219       -8.4303  -26.8282  -49.9275 H         1 UNK         0.0600 
    220 H220       -5.8382  -23.2653  -49.3539 H         1 UNK         0.3000 
    221 H221       -6.3668  -21.1631  -49.4666 H         1 UNK         0.0600 
    222 H222       -9.0023  -21.7319  -48.0280 H         1 UNK         0.0600 
    223 H223       -7.4459  -21.4886  -47.2332 H         1 UNK         0.0600 
    224 H224       -8.1770  -20.1878  -48.1562 H         1 UNK         0.0600 
    225 H225       -7.4878  -23.1997  -51.5660 H         1 UNK         0.3000 
    226 H226       -9.3438  -21.5289  -53.0653 H         1 UNK         0.0600 
    227 H227       -9.1784  -24.0183  -53.3908 H         1 UNK         0.0600 
    228 H228       -8.9274  -23.1238  -54.8824 H         1 UNK         0.0600 
    229 H229       -7.5494  -23.8088  -54.0366 H         1 UNK         0.0600 
    230 H230       -5.9820  -21.4803  -52.4398 H         1 UNK         0.3000 
    231 H231       -4.3644  -20.0798  -52.8309 H         1 UNK         0.0600 
    232 H232       -6.3425  -18.2821  -54.3279 H         1 UNK         0.0600 
    233 H233       -4.7558  -17.8155  -53.7404 H         1 UNK         0.0600 
    234 H234       -6.0183  -18.2416  -52.5953 H         1 UNK         0.0600 
    235 H235       -3.9063  -22.1240  -54.0796 H         1 UNK         0.3000 
    236 H236       -3.6337  -22.1418  -56.8878 H         1 UNK         0.0600 
    237 H237       -3.4106  -24.1440  -55.4068 H         1 UNK         0.0600 
    238 H238       -2.0278  -23.9792  -56.4738 H         1 UNK         0.0600 
    239 H239       -1.8815  -23.5190  -54.7854 H         1 UNK         0.0600 
    240 H240       -1.9851  -20.1154  -54.7074 H         1 UNK         0.3000 
    241 H241        0.4274  -19.6228  -56.1991 H         1 UNK         0.0600 
    242 H242       -2.9189  -18.6828  -56.8579 H         1 UNK         0.3800 
    243 H243       -2.4924  -17.5077  -58.0778 H         1 UNK         0.3800 
    244 H244        0.3849  -19.0413  -53.8403 H         1 UNK         0.0800 
    245 H245        0.6560  -17.6101  -54.7781 H         1 UNK         0.0800 
    246 H246       -2.8496  -18.5792  -52.0496 H         1 UNK         0.0800 
    247 H247       -1.4804  -19.5792  -52.4568 H         1 UNK         0.0800 
@<TRIPOS>BOND
     1    1    2 1    
     2    1  127 1    
     3    1  128 1    
     4    1  129 1    
     5    2    3 2    
     6    2    4 am   BACKBONE|DICT|INTERRES
     7    4    5 1    
     8    4  130 1    
     9    5    6 1    
    10    5   65 1    
    11    5  131 1    
    12    6    7 1    
    13    6  132 1    
    14    6  133 1    
    15    7    8 1    
    16    8    9 1    
    17    8  134 1    
    18    8  135 1    
    19    9   10 ar   
    20    9   14 ar   
    21   10   11 ar   
    22   10  136 1    
    23   11   12 ar   
    24   11  126 1    
    25   12   13 ar   
    26   12  137 1    
    27   13   14 ar   
    28   13   15 1    
    29   14  138 1    
    30   15   16 1    
    31   15  139 1    
    32   15  140 1    
    33   16   17 1    
    34   17   18 1    
    35   17  141 1    
    36   17  142 1    
    37   18   19 1    
    38   18   67 1    
    39   18  143 1    
    40   19   20 am   BACKBONE|DICT|INTERRES
    41   19  144 1    
    42   20   21 2    
    43   20   22 1    
    44   22   23 1    
    45   22   24 1    
    46   22  145 1    
    47   23  146 1    
    48   23  147 1    
    49   23  148 1    
    50   24   25 am   BACKBONE|DICT|INTERRES
    51   24  149 1    
    52   25   26 2    
    53   25   27 1    
    54   27   28 1    
    55   27   29 1    
    56   27  150 1    
    57   28  151 1    
    58   28  152 1    
    59   28  153 1    
    60   29   30 am   BACKBONE|DICT|INTERRES
    61   29  154 1    
    62   30   31 2    
    63   30   32 1    
    64   32   33 1    
    65   32   34 1    
    66   32  155 1    
    67   33  156 1    
    68   33  157 1    
    69   33  158 1    
    70   34   35 am   BACKBONE|DICT|INTERRES
    71   34  159 1    
    72   35   36 2    
    73   35   37 1    
    74   37   38 1    
    75   37   39 1    
    76   37  160 1    
    77   38  161 1    
    78   38  162 1    
    79   38  163 1    
    80   39   40 am   BACKBONE|DICT|INTERRES
    81   39  164 1    
    82   40   41 2    
    83   40   42 1    
    84   42   43 1    
    85   42   44 1    
    86   42  165 1    
    87   43  166 1    
    88   43  167 1    
    89   43  168 1    
    90   44   45 am   BACKBONE|DICT|INTERRES
    91   44  169 1    
    92   45   46 2    
    93   45   47 1    
    94   47   48 1    
    95   47   49 1    
    96   47  170 1    
    97   48  171 1    
    98   48  172 1    
    99   48  173 1    
   100   49   50 am   BACKBONE|DICT|INTERRES
   101   49  174 1    
   102   50   51 2    
   103   50   52 1    
   104   52   53 1    
   105   52   54 1    
   106   52  175 1    
   107   53  176 1    
   108   53  177 1    
   109   53  178 1    
   110   54   55 am   BACKBONE|DICT|INTERRES
   111   54  179 1    
   112   55   56 2    
   113   55   57 1    
   114   57   58 1    
   115   57   59 1    
   116   57  180 1    
   117   58  181 1    
   118   58  182 1    
   119   58  183 1    
   120   59   60 am   BACKBONE|DICT|INTERRES
   121   59  184 1    
   122   60   61 2    
   123   60   62 1    
   124   62   63 1    
   125   62   64 1    
   126   62  185 1    
   127   63  186 1    
   128   63  187 1    
   129   63  188 1    
   130   64   65 am   BACKBONE|DICT|INTERRES
   131   64  189 1    
   132   65   66 2    
   133   67   68 2    
   134   67   69 am   BACKBONE|DICT|INTERRES
   135   69   70 1    
   136   69  190 1    
   137   70   71 1    
   138   70   72 1    
   139   70  191 1    
   140   71  192 1    
   141   71  193 1    
   142   71  194 1    
   143   72   73 2    
   144   72   74 am   BACKBONE|DICT|INTERRES
   145   74   75 1    
   146   74  195 1    
   147   75   76 1    
   148   75   77 1    
   149   75  196 1    
   150   76  197 1    
   151   76  198 1    
   152   76  199 1    
   153   77   78 2    
   154   77   79 am   BACKBONE|DICT|INTERRES
   155   79   80 1    
   156   79  200 1    
   157   80   81 1    
   158   80   82 1    
   159   80  201 1    
   160   81  202 1    
   161   81  203 1    
   162   81  204 1    
   163   82   83 2    
   164   82   84 am   BACKBONE|DICT|INTERRES
   165   84   85 1    
   166   84  205 1    
   167   85   86 1    
   168   85   87 1    
   169   85  206 1    
   170   86  207 1    
   171   86  208 1    
   172   86  209 1    
   173   87   88 2    
   174   87   89 am   BACKBONE|DICT|INTERRES
   175   89   90 1    
   176   89  210 1    
   177   90   91 1    
   178   90   92 1    
   179   90  211 1    
   180   91  212 1    
   181   91  213 1    
   182   91  214 1    
   183   92   93 2    
   184   92   94 am   BACKBONE|DICT|INTERRES
   185   94   95 1    
   186   94  215 1    
   187   95   96 1    
   188   95   97 1    
   189   95  216 1    
   190   96  217 1    
   191   96  218 1    
   192   96  219 1    
   193   97   98 2    
   194   97   99 am   BACKBONE|DICT|INTERRES
   195   99  100 1    
   196   99  220 1    
   197  100  101 1    
   198  100  102 1    
   199  100  221 1    
   200  101  222 1    
   201  101  223 1    
   202  101  224 1    
   203  102  103 2    
   204  102  104 am   BACKBONE|DICT|INTERRES
   205  104  105 1    
   206  104  225 1    
   207  105  106 1    
   208  105  107 1    
   209  105  226 1    
   210  106  227 1    
   211  106  228 1    
   212  106  229 1    
   213  107  108 2    
   214  107  109 am   BACKBONE|DICT|INTERRES
   215  109  110 1    
   216  109  230 1    
   217  110  111 1    
   218  110  112 1    
   219  110  231 1    
   220  111  232 1    
   221  111  233 1    
   222  111  234 1    
   223  112  113 2    
   224  112  114 am   BACKBONE|DICT|INTERRES
   225  114  115 1    
   226  114  235 1    
   227  115  116 1    
   228  115  117 1    
   229  115  236 1    
   230  116  237 1    
   231  116  238 1    
   232  116  239 1    
   233  117  118 2    
   234  117  119 am   BACKBONE|DICT|INTERRES
   235  119  120 1    
   236  119  240 1    
   237  120  121 1    
   238  120  124 1    
   239  120  241 1    
   240  121  122 am   BACKBONE|DICT|INTERRES
   241  121  123 2    
   242  122  242 1    
   243  122  243 1    
   244  124  125 1    
   245  124  244 1    
   246  124  245 1    
   247  125  126 1    
   248  126  246 1    
   249  126  247 1    
@<TRIPOS>SUBSTRUCTURE
     1 UNK         1 GROUP             0       ****    0 ROOT    
