@<TRIPOS>MOLECULE
3R540
247   249    1
SMALL
USER_CHARGES


@<TRIPOS>ATOM
      1 CA         -4.8958  -15.3333  -43.1706 C.3       0 UNK        -0.1800 
      2 C          -4.4002  -14.0057  -43.7264 C.2       0 UNK         0.5000 
      3 O          -4.7564  -12.9487  -43.2061 O.2       0 UNK        -0.5000 
      4 N          -3.5740  -14.0593  -44.7783 N.am      1 UNK        -0.5000 
      5 CA         -2.9871  -12.9004  -45.4656 C.3       1 UNK         0.1400 
      6 C6         -2.3919  -13.2938  -46.8418 C.3       23 UNK        -0.0398 
      7 S7         -3.6031  -14.0662  -47.9712 S.3       23 UNK        -0.2404 
      8 C8         -2.8216  -13.7910  -49.5990 C.3       23 UNK        -0.0205 
      9 C9         -1.9796  -14.9748  -50.0654 C.ar      23 UNK        -0.0193 
     10 C10        -2.3174  -15.6583  -51.2386 C.ar      23 UNK        -0.1150 
     11 C11        -1.5400  -16.7273  -51.6986 C.ar      23 UNK        -0.0193 
     12 C12        -0.4071  -17.1033  -50.9688 C.ar      23 UNK        -0.1150 
     13 C13        -0.0744  -16.4548  -49.7752 C.ar      23 UNK        -0.0193 
     14 C14        -0.8509  -15.3766  -49.3458 C.ar      23 UNK        -0.1150 
     15 C15         1.1129  -16.9111  -48.9327 C.3       23 UNK        -0.0205 
     16 S16         1.2214  -18.7217  -48.7314 S.3       23 UNK        -0.2404 
     17 C17        -0.4539  -19.1434  -48.1447 C.3       23 UNK        -0.0398 
     18 CA         -0.5545  -20.6383  -47.7739 C.3       11 UNK         0.1400 
     19 N           0.2647  -20.9919  -46.6134 N.am      11 UNK        -0.5000 
     20 C           0.6645  -22.2366  -46.3208 C.2       10 UNK         0.5000 
     21 O           0.4450  -23.2102  -47.0404 O.2       10 UNK        -0.5000 
     22 CA          1.3884  -22.4326  -44.9747 C.3       10 UNK         0.1400 
     23 CB          2.9071  -22.2803  -45.1328 C.3       10 UNK        -0.1800 
     24 N           0.9066  -21.5040  -43.9504 N.am      10 UNK        -0.5000 
     25 C          -0.3084  -21.5919  -43.3885 C.2       9 UNK         0.5000 
     26 O          -1.1093  -22.4931  -43.6392 O.2       9 UNK        -0.5000 
     27 CA         -0.7219  -20.4584  -42.4330 C.3       9 UNK         0.1400 
     28 CB         -0.3095  -20.7970  -40.9942 C.3       9 UNK        -0.1800 
     29 N          -0.1779  -19.1550  -42.8297 N.am      9 UNK        -0.5000 
     30 C          -0.5377  -18.5149  -43.9540 C.2       8 UNK         0.5000 
     31 O          -1.3695  -18.9720  -44.7361 O.2       8 UNK        -0.5000 
     32 CA          0.1563  -17.1868  -44.3180 C.3       8 UNK         0.1400 
     33 CB         -0.8220  -16.1794  -44.9507 C.3       8 UNK        -0.1800 
     34 N           0.9171  -16.5887  -43.2205 N.am      8 UNK        -0.5000 
     35 C           0.4595  -16.0424  -42.0853 C.2       7 UNK         0.5000 
     36 O          -0.7301  -15.8221  -41.8567 O.2       7 UNK        -0.5000 
     37 CA          1.5358  -15.6913  -41.0327 C.3       7 UNK         0.1400 
     38 CB          0.9825  -15.6783  -39.5925 C.3       7 UNK        -0.1800 
     39 N           2.7326  -16.5439  -41.1424 N.am      7 UNK        -0.5000 
     40 C           2.7790  -17.8735  -40.9656 C.2       6 UNK         0.5000 
     41 O           1.8046  -18.5423  -40.6262 O.2       6 UNK        -0.5000 
     42 CA          4.1149  -18.5692  -41.2959 C.3       6 UNK         0.1400 
     43 CB          4.0594  -20.0993  -41.0969 C.3       6 UNK        -0.1800 
     44 N           4.5923  -18.2478  -42.6453 N.am      6 UNK        -0.5000 
     45 C           3.9799  -18.4789  -43.8153 C.2       5 UNK         0.5000 
     46 O           2.8675  -19.0034  -43.9136 O.2       5 UNK        -0.5000 
     47 CA          4.7361  -18.0131  -45.0825 C.3       5 UNK         0.1400 
     48 CB          3.9479  -18.2884  -46.3750 C.3       5 UNK        -0.1800 
     49 N           5.0561  -16.5849  -45.0543 N.am      5 UNK        -0.5000 
     50 C           5.9800  -15.9741  -44.2999 C.2       4 UNK         0.5000 
     51 O           6.7403  -16.5748  -43.5393 O.2       4 UNK        -0.5000 
     52 CA          6.0465  -14.4328  -44.3826 C.3       4 UNK         0.1400 
     53 CB          7.2530  -13.9937  -45.2261 C.3       4 UNK        -0.1800 
     54 N           4.8342  -13.8037  -44.9236 N.am      4 UNK        -0.5000 
     55 C           3.6213  -13.8602  -44.3577 C.2       3 UNK         0.5000 
     56 O           3.3931  -14.4584  -43.3047 O.2       3 UNK        -0.5000 
     57 CA          2.4718  -13.2082  -45.1485 C.3       3 UNK         0.1400 
     58 CB          2.1519  -14.0417  -46.4017 C.3       3 UNK        -0.1800 
     59 N           1.2497  -13.0975  -44.3545 N.am      3 UNK        -0.5000 
     60 C           1.0248  -12.2071  -43.3803 C.2       2 UNK         0.5000 
     61 O           1.8309  -11.3345  -43.0531 O.2       2 UNK        -0.5000 
     62 CA         -0.3398  -12.3248  -42.6630 C.3       2 UNK         0.1400 
     63 CB         -0.7497  -11.0354  -41.9209 C.3       2 UNK        -0.1800 
     64 N          -1.4157  -12.7963  -43.5490 N.am      2 UNK        -0.5000 
     65 C          -1.9119  -12.1651  -44.6280 C.2       1 UNK         0.5000 
     66 O          -1.5351  -11.0528  -44.9984 O.2       1 UNK        -0.5000 
     67 C          -2.0184  -21.0717  -47.5713 C.2       11 UNK         0.5000 
     68 O          -2.6245  -21.5773  -48.5102 O.2       11 UNK        -0.5000 
     69 N          -2.5560  -20.9253  -46.3523 N.am      12 UNK        -0.5000 
     70 CA         -3.8897  -21.4013  -45.9769 C.3       12 UNK         0.1400 
     71 CB         -4.2417  -20.9048  -44.5678 C.3       12 UNK        -0.1800 
     72 C          -4.0212  -22.9340  -46.0717 C.2       12 UNK         0.5000 
     73 O          -5.0569  -23.4291  -46.5161 O.2       12 UNK        -0.5000 
     74 N          -2.9524  -23.6583  -45.7107 N.am      13 UNK        -0.5000 
     75 CA         -2.8352  -25.1058  -45.9016 C.3       13 UNK         0.1400 
     76 CB         -1.5835  -25.6158  -45.1726 C.3       13 UNK        -0.1800 
     77 C          -2.8108  -25.5182  -47.3888 C.2       13 UNK         0.5000 
     78 O          -3.2998  -26.5967  -47.7285 O.2       13 UNK        -0.5000 
     79 N          -2.2818  -24.6444  -48.2552 N.am      14 UNK        -0.5000 
     80 CA         -2.2748  -24.7874  -49.7082 C.3       14 UNK         0.1400 
     81 CB         -1.0709  -24.0221  -50.2864 C.3       14 UNK        -0.1800 
     82 C          -3.6221  -24.3290  -50.3019 C.2       14 UNK         0.5000 
     83 O          -3.7071  -23.2662  -50.9190 O.2       14 UNK        -0.5000 
     84 N          -4.6583  -25.1513  -50.0849 N.am      15 UNK        -0.5000 
     85 CA         -6.0071  -25.0469  -50.6550 C.3       15 UNK         0.1400 
     86 CB         -5.9658  -25.3699  -52.1643 C.3       15 UNK        -0.1800 
     87 C          -6.7170  -23.7086  -50.3541 C.2       15 UNK         0.5000 
     88 O          -7.3609  -23.1444  -51.2397 O.2       15 UNK        -0.5000 
     89 N          -6.5829  -23.2255  -49.1089 N.am      16 UNK        -0.5000 
     90 CA         -7.1448  -21.9703  -48.5926 C.3       16 UNK         0.1400 
     91 CB         -8.6882  -22.0152  -48.5848 C.3       16 UNK        -0.1800 
     92 C          -6.5778  -20.7155  -49.2904 C.2       16 UNK         0.5000 
     93 O          -7.2888  -19.7175  -49.4199 O.2       16 UNK        -0.5000 
     94 N          -5.3058  -20.7907  -49.7134 N.am      17 UNK        -0.5000 
     95 CA         -4.5516  -19.7709  -50.4478 C.3       17 UNK         0.1400 
     96 CB         -4.2962  -18.5351  -49.5589 C.3       17 UNK        -0.1800 
     97 C          -5.2144  -19.4358  -51.7996 C.2       17 UNK         0.5000 
     98 O          -5.4300  -18.2654  -52.1222 O.2       17 UNK        -0.5000 
     99 N          -5.5578  -20.4871  -52.5510 N.am      18 UNK        -0.5000 
    100 CA        -6.2817  -20.4279  -53.8151 C.3       18 UNK         0.1400 
    101 CB        -7.7943  -20.3159  -53.5335 C.3       18 UNK        -0.1800 
    102 C         -5.9299  -21.6571  -54.6707 C.2       18 UNK         0.5000 
    103 O         -4.9901  -22.3873  -54.3477 O.2       18 UNK        -0.5000 
    104 N         -6.6696  -21.8453  -55.7748 N.am      19 UNK        -0.5000 
    105 CA        -6.5941  -22.9757  -56.7153 C.3       19 UNK         0.1400 
    106 CB        -7.0489  -24.2764  -56.0191 C.3       19 UNK        -0.1800 
    107 C         -5.2235  -23.1364  -57.4126 C.2       19 UNK         0.5000 
    108 O         -4.8920  -24.2329  -57.8658 O.2       19 UNK        -0.5000 
    109 N         -4.4469  -22.0425  -57.4634 N.am      20 UNK        -0.5000 
    110 CA        -3.0598  -21.9432  -57.9357 C.3       20 UNK         0.1400 
    111 CB        -2.9648  -22.2491  -59.4450 C.3       20 UNK        -0.1800 
    112 C         -2.0489  -22.7651  -57.1018 C.2       20 UNK         0.5000 
    113 O         -0.9197  -22.9731  -57.5497 O.2       20 UNK        -0.5000 
    114 N         -2.4424  -23.1934  -55.8923 N.am      21 UNK        -0.5000 
    115 CA        -1.6210  -24.0000  -54.9859 C.3       21 UNK         0.1400 
    116 CB        -2.5378  -24.6810  -53.9606 C.3       21 UNK        -0.1800 
    117 C         -0.5084  -23.1923  -54.2871 C.2       21 UNK         0.5000 
    118 O          0.4138  -23.7918  -53.7335 O.2       21 UNK        -0.5000 
    119 N         -0.6009  -21.8570  -54.3415 N.am      22 UNK        -0.5000 
    120 CA         0.3963  -20.9014  -53.8316 C.3       22 UNK         0.1400 
    121 C          1.7735  -20.9431  -54.5613 C.2       22 UNK         0.5000 
    122 N          1.8851  -21.5320  -55.7470 N.am      22 UNK        -0.7600 
    123 O          2.7589  -20.4278  -54.0409 O.2       22 UNK        -0.5000 
    124 C124       -0.1503  -19.4500  -53.8346 C.3       23 UNK        -0.0398 
    125 S125       -1.7239  -19.2604  -52.9298 S.3       23 UNK        -0.2404 
    126 C126       -1.9400  -17.4468  -52.9860 C.3       23 UNK        -0.0205 
    127 H127       -4.4994  -16.1812  -43.7302 H         1 UNK         0.0600 
    128 H128       -5.9841  -15.3760  -43.2133 H         1 UNK         0.0600 
    129 H129       -4.5889  -15.4415  -42.1302 H         1 UNK         0.0600 
    130 H130       -3.3614  -14.9567  -45.1889 H         1 UNK         0.3000 
    131 H131       -3.7901  -12.1815  -45.6420 H         1 UNK         0.0600 
    132 H132       -1.5591  -13.9804  -46.7058 H         1 UNK         0.0800 
    133 H133       -1.9823  -12.4101  -47.3347 H         1 UNK         0.0800 
    134 H134       -2.2048  -12.8920  -49.5838 H         1 UNK         0.0800 
    135 H135       -3.6168  -13.5919  -50.3189 H         1 UNK         0.0800 
    136 H136       -3.1907  -15.3559  -51.7995 H         1 UNK         0.1150 
    137 H137        0.2049  -17.9255  -51.3068 H         1 UNK         0.1150 
    138 H138       -0.5747  -14.8537  -48.4445 H         1 UNK         0.1150 
    139 H139        1.0663  -16.4660  -47.9386 H         1 UNK         0.0800 
    140 H140        2.0332  -16.5497  -49.3927 H         1 UNK         0.0800 
    141 H141       -1.1608  -18.9078  -48.9422 H         1 UNK         0.0800 
    142 H142       -0.7160  -18.5065  -47.2999 H         1 UNK         0.0800 
    143 H143       -0.1820  -21.2077  -48.6287 H         1 UNK         0.0600 
    144 H144        0.4677  -20.2523  -45.9589 H         1 UNK         0.3000 
    145 H145        1.1867  -23.4514  -44.6367 H         1 UNK         0.0600 
    146 H146        3.1769  -21.2787  -45.4616 H         1 UNK         0.0600 
    147 H147        3.2957  -22.9846  -45.8693 H         1 UNK         0.0600 
    148 H148        3.4228  -22.4729  -44.1919 H         1 UNK         0.0600 
    149 H149        1.5035  -20.7162  -43.7223 H         1 UNK         0.3000 
    150 H150       -1.8105  -20.3827  -42.4572 H         1 UNK         0.0600 
    151 H151        0.7669  -20.9492  -40.9089 H         1 UNK         0.0600 
    152 H152       -0.7951  -21.7135  -40.6569 H         1 UNK         0.0600 
    153 H153       -0.5950  -20.0039  -40.3029 H         1 UNK         0.0600 
    154 H154        0.5318  -18.7558  -42.2246 H         1 UNK         0.3000 
    155 H155        0.8928  -17.4409  -45.0809 H         1 UNK         0.0600 
    156 H156       -1.6656  -15.9817  -44.2913 H         1 UNK         0.0600 
    157 H157       -1.2268  -16.5581  -45.8898 H         1 UNK         0.0600 
    158 H158       -0.3300  -15.2357  -45.1697 H         1 UNK         0.0600 
    159 H159        1.9178  -16.7173  -43.2786 H         1 UNK         0.3000 
    160 H160        1.8583  -14.6744  -41.2560 H         1 UNK         0.0600 
    161 H161        0.5423  -16.6363  -39.3147 H         1 UNK         0.0600 
    162 H162        0.2056  -14.9211  -39.4810 H         1 UNK         0.0600 
    163 H163        1.7658  -15.4462  -38.8711 H         1 UNK         0.0600 
    164 H164        3.5602  -16.0723  -41.4838 H         1 UNK         0.3000 
    165 H165        4.8527  -18.1707  -40.5982 H         1 UNK         0.0600 
    166 H166        3.7918  -20.3495  -40.0697 H         1 UNK         0.0600 
    167 H167        3.3227  -20.5699  -41.7490 H         1 UNK         0.0600 
    168 H168        5.0268  -20.5579  -41.3008 H         1 UNK         0.0600 
    169 H169        5.4874  -17.7683  -42.6940 H         1 UNK         0.3000 
    170 H170        5.6694  -18.5777  -45.1286 H         1 UNK         0.0600 
    171 H171        4.5109  -17.9783  -47.2554 H         1 UNK         0.0600 
    172 H172        3.7333  -19.3492  -46.4941 H         1 UNK         0.0600 
    173 H173        2.9959  -17.7572  -46.3852 H         1 UNK         0.0600 
    174 H174        4.4805  -15.9957  -45.6355 H         1 UNK         0.3000 
    175 H175        6.1872  -14.0626  -43.3650 H         1 UNK         0.0600 
    176 H176        8.1795  -14.4164  -44.8348 H         1 UNK         0.0600 
    177 H177        7.1574  -14.3168  -46.2635 H         1 UNK         0.0600 
    178 H178        7.3658  -12.9094  -45.2200 H         1 UNK         0.0600 
    179 H179        4.9439  -13.3048  -45.7950 H         1 UNK         0.3000 
    180 H180        2.7827  -12.2071  -45.4543 H         1 UNK         0.0600 
    181 H181        1.9121  -15.0741  -46.1453 H         1 UNK         0.0600 
    182 H182        2.9976  -14.0647  -47.0899 H         1 UNK         0.0600 
    183 H183        1.3064  -13.6254  -46.9500 H         1 UNK         0.0600 
    184 H184        0.5432  -13.7945  -44.5235 H         1 UNK         0.3000 
    185 H185       -0.2129  -13.0973  -41.9049 H         1 UNK         0.0600 
    186 H186       -0.0236  -10.7834  -41.1472 H         1 UNK         0.0600 
    187 H187       -0.8165  -10.1804  -42.5939 H         1 UNK         0.0600 
    188 H188       -1.7161  -11.1535  -41.4309 H         1 UNK         0.0600 
    189 H189       -1.8055  -13.6994  -43.3153 H         1 UNK         0.3000 
    190 H190       -2.0355  -20.4141  -45.6434 H         1 UNK         0.3000 
    191 H191       -4.6027  -20.9621  -46.6773 H         1 UNK         0.0600 
    192 H192       -4.1684  -19.8190  -44.5009 H         1 UNK         0.0600 
    193 H193       -5.2631  -21.1803  -44.3029 H         1 UNK         0.0600 
    194 H194       -3.5820  -21.3331  -43.8137 H         1 UNK         0.0600 
    195 H195       -2.1643  -23.1851  -45.2819 H         1 UNK         0.3000 
    196 H196       -3.7088  -25.5750  -45.4445 H         1 UNK         0.0600 
    197 H197       -0.6723  -25.1805  -45.5827 H         1 UNK         0.0600 
    198 H198       -1.4966  -26.6997  -45.2584 H         1 UNK         0.0600 
    199 H199       -1.6201  -25.3750  -44.1100 H         1 UNK         0.0600 
    200 H200       -1.9432  -23.7601  -47.9007 H         1 UNK         0.3000 
    201 H201       -2.1402  -25.8406  -49.9635 H         1 UNK         0.0600 
    202 H202       -1.1448  -22.9483  -50.1208 H         1 UNK         0.0600 
    203 H203       -0.1355  -24.3636  -49.8430 H         1 UNK         0.0600 
    204 H204       -0.9960  -24.1768  -51.3619 H         1 UNK         0.0600 
    205 H205       -4.4903  -25.9595  -49.4970 H         1 UNK         0.3000 
    206 H206       -6.6046  -25.8199  -50.1700 H         1 UNK         0.0600 
    207 H207       -5.4814  -26.3279  -52.3521 H         1 UNK         0.0600 
    208 H208       -6.9713  -25.4281  -52.5825 H         1 UNK         0.0600 
    209 H209       -5.4248  -24.6061  -52.7237 H         1 UNK         0.0600 
    210 H210       -6.0061  -23.7338  -48.4480 H         1 UNK         0.3000 
    211 H211       -6.8296  -21.8938  -47.5528 H         1 UNK         0.0600 
    212 H212       -9.0542  -22.9130  -48.0868 H         1 UNK         0.0600 
    213 H213       -9.1006  -21.1590  -48.0498 H         1 UNK         0.0600 
    214 H214       -9.1018  -21.9971  -49.5934 H         1 UNK         0.0600 
    215 H215       -4.8040  -21.6616  -49.5825 H         1 UNK         0.3000 
    216 H216       -3.5835  -20.2166  -50.6800 H         1 UNK         0.0600 
    217 H217       -5.2143  -17.9873  -49.3460 H         1 UNK         0.0600 
    218 H218       -3.6113  -17.8445  -50.0478 H         1 UNK         0.0600 
    219 H219       -3.8460  -18.8167  -48.6075 H         1 UNK         0.0600 
    220 H220       -5.3002  -21.4210  -52.2524 H         1 UNK         0.3000 
    221 H221       -5.9536  -19.5479  -54.3717 H         1 UNK         0.0600 
    222 H222       -8.1766  -21.2148  -53.0484 H         1 UNK         0.0600 
    223 H223       -8.0145  -19.4705  -52.8813 H         1 UNK         0.0600 
    224 H224       -8.3651  -20.1650  -54.4498 H         1 UNK         0.0600 
    225 H225       -7.3980  -21.1739  -55.9743 H         1 UNK         0.3000 
    226 H226       -7.3098  -22.7595  -57.5096 H         1 UNK         0.0600 
    227 H227       -8.0164  -24.1473  -55.5338 H         1 UNK         0.0600 
    228 H228       -7.1542  -25.0913  -56.7362 H         1 UNK         0.0600 
    229 H229       -6.3349  -24.5992  -55.2606 H         1 UNK         0.0600 
    230 H230       -4.8259  -21.1980  -57.0591 H         1 UNK         0.3000 
    231 H231       -2.7737  -20.8996  -57.7977 H         1 UNK         0.0600 
    232 H232       -3.1531  -23.3012  -59.6596 H         1 UNK         0.0600 
    233 H233       -1.9727  -22.0121  -59.8308 H         1 UNK         0.0600 
    234 H234       -3.6814  -21.6565  -60.0137 H         1 UNK         0.0600 
    235 H235       -3.3738  -22.9612  -55.5627 H         1 UNK         0.3000 
    236 H236       -1.1337  -24.7826  -55.5711 H         1 UNK         0.0600 
    237 H237       -3.0395  -23.9446  -53.3347 H         1 UNK         0.0600 
    238 H238       -3.3054  -25.2804  -54.4505 H         1 UNK         0.0600 
    239 H239       -1.9738  -25.3451  -53.3051 H         1 UNK         0.0600 
    240 H240       -1.4113  -21.4566  -54.7886 H         1 UNK         0.3000 
    241 H241        0.5945  -21.1779  -52.7942 H         1 UNK         0.0600 
    242 H242        2.7817  -21.5537  -56.2070 H         1 UNK         0.3800 
    243 H243        1.0859  -21.9634  -56.1872 H         1 UNK         0.3800 
    244 H244       -0.3075  -19.1105  -54.8600 H         1 UNK         0.0800 
    245 H245        0.5825  -18.7693  -53.3990 H         1 UNK         0.0800 
    246 H246       -2.9919  -17.2536  -53.2021 H         1 UNK         0.0800 
    247 H247       -1.3774  -17.0247  -53.8194 H         1 UNK         0.0800 
@<TRIPOS>BOND
     1    1    2 1    
     2    1  127 1    
     3    1  128 1    
     4    1  129 1    
     5    2    3 2    
     6    2    4 am   BACKBONE|DICT|INTERRES
     7    4    5 1    
     8    4  130 1    
     9    5    6 1    
    10    5   65 1    
    11    5  131 1    
    12    6    7 1    
    13    6  132 1    
    14    6  133 1    
    15    7    8 1    
    16    8    9 1    
    17    8  134 1    
    18    8  135 1    
    19    9   10 ar   
    20    9   14 ar   
    21   10   11 ar   
    22   10  136 1    
    23   11   12 ar   
    24   11  126 1    
    25   12   13 ar   
    26   12  137 1    
    27   13   14 ar   
    28   13   15 1    
    29   14  138 1    
    30   15   16 1    
    31   15  139 1    
    32   15  140 1    
    33   16   17 1    
    34   17   18 1    
    35   17  141 1    
    36   17  142 1    
    37   18   19 1    
    38   18   67 1    
    39   18  143 1    
    40   19   20 am   BACKBONE|DICT|INTERRES
    41   19  144 1    
    42   20   21 2    
    43   20   22 1    
    44   22   23 1    
    45   22   24 1    
    46   22  145 1    
    47   23  146 1    
    48   23  147 1    
    49   23  148 1    
    50   24   25 am   BACKBONE|DICT|INTERRES
    51   24  149 1    
    52   25   26 2    
    53   25   27 1    
    54   27   28 1    
    55   27   29 1    
    56   27  150 1    
    57   28  151 1    
    58   28  152 1    
    59   28  153 1    
    60   29   30 am   BACKBONE|DICT|INTERRES
    61   29  154 1    
    62   30   31 2    
    63   30   32 1    
    64   32   33 1    
    65   32   34 1    
    66   32  155 1    
    67   33  156 1    
    68   33  157 1    
    69   33  158 1    
    70   34   35 am   BACKBONE|DICT|INTERRES
    71   34  159 1    
    72   35   36 2    
    73   35   37 1    
    74   37   38 1    
    75   37   39 1    
    76   37  160 1    
    77   38  161 1    
    78   38  162 1    
    79   38  163 1    
    80   39   40 am   BACKBONE|DICT|INTERRES
    81   39  164 1    
    82   40   41 2    
    83   40   42 1    
    84   42   43 1    
    85   42   44 1    
    86   42  165 1    
    87   43  166 1    
    88   43  167 1    
    89   43  168 1    
    90   44   45 am   BACKBONE|DICT|INTERRES
    91   44  169 1    
    92   45   46 2    
    93   45   47 1    
    94   47   48 1    
    95   47   49 1    
    96   47  170 1    
    97   48  171 1    
    98   48  172 1    
    99   48  173 1    
   100   49   50 am   BACKBONE|DICT|INTERRES
   101   49  174 1    
   102   50   51 2    
   103   50   52 1    
   104   52   53 1    
   105   52   54 1    
   106   52  175 1    
   107   53  176 1    
   108   53  177 1    
   109   53  178 1    
   110   54   55 am   BACKBONE|DICT|INTERRES
   111   54  179 1    
   112   55   56 2    
   113   55   57 1    
   114   57   58 1    
   115   57   59 1    
   116   57  180 1    
   117   58  181 1    
   118   58  182 1    
   119   58  183 1    
   120   59   60 am   BACKBONE|DICT|INTERRES
   121   59  184 1    
   122   60   61 2    
   123   60   62 1    
   124   62   63 1    
   125   62   64 1    
   126   62  185 1    
   127   63  186 1    
   128   63  187 1    
   129   63  188 1    
   130   64   65 am   BACKBONE|DICT|INTERRES
   131   64  189 1    
   132   65   66 2    
   133   67   68 2    
   134   67   69 am   BACKBONE|DICT|INTERRES
   135   69   70 1    
   136   69  190 1    
   137   70   71 1    
   138   70   72 1    
   139   70  191 1    
   140   71  192 1    
   141   71  193 1    
   142   71  194 1    
   143   72   73 2    
   144   72   74 am   BACKBONE|DICT|INTERRES
   145   74   75 1    
   146   74  195 1    
   147   75   76 1    
   148   75   77 1    
   149   75  196 1    
   150   76  197 1    
   151   76  198 1    
   152   76  199 1    
   153   77   78 2    
   154   77   79 am   BACKBONE|DICT|INTERRES
   155   79   80 1    
   156   79  200 1    
   157   80   81 1    
   158   80   82 1    
   159   80  201 1    
   160   81  202 1    
   161   81  203 1    
   162   81  204 1    
   163   82   83 2    
   164   82   84 am   BACKBONE|DICT|INTERRES
   165   84   85 1    
   166   84  205 1    
   167   85   86 1    
   168   85   87 1    
   169   85  206 1    
   170   86  207 1    
   171   86  208 1    
   172   86  209 1    
   173   87   88 2    
   174   87   89 am   BACKBONE|DICT|INTERRES
   175   89   90 1    
   176   89  210 1    
   177   90   91 1    
   178   90   92 1    
   179   90  211 1    
   180   91  212 1    
   181   91  213 1    
   182   91  214 1    
   183   92   93 2    
   184   92   94 am   BACKBONE|DICT|INTERRES
   185   94   95 1    
   186   94  215 1    
   187   95   96 1    
   188   95   97 1    
   189   95  216 1    
   190   96  217 1    
   191   96  218 1    
   192   96  219 1    
   193   97   98 2    
   194   97   99 am   BACKBONE|DICT|INTERRES
   195   99  100 1    
   196   99  220 1    
   197  100  101 1    
   198  100  102 1    
   199  100  221 1    
   200  101  222 1    
   201  101  223 1    
   202  101  224 1    
   203  102  103 2    
   204  102  104 am   BACKBONE|DICT|INTERRES
   205  104  105 1    
   206  104  225 1    
   207  105  106 1    
   208  105  107 1    
   209  105  226 1    
   210  106  227 1    
   211  106  228 1    
   212  106  229 1    
   213  107  108 2    
   214  107  109 am   BACKBONE|DICT|INTERRES
   215  109  110 1    
   216  109  230 1    
   217  110  111 1    
   218  110  112 1    
   219  110  231 1    
   220  111  232 1    
   221  111  233 1    
   222  111  234 1    
   223  112  113 2    
   224  112  114 am   BACKBONE|DICT|INTERRES
   225  114  115 1    
   226  114  235 1    
   227  115  116 1    
   228  115  117 1    
   229  115  236 1    
   230  116  237 1    
   231  116  238 1    
   232  116  239 1    
   233  117  118 2    
   234  117  119 am   BACKBONE|DICT|INTERRES
   235  119  120 1    
   236  119  240 1    
   237  120  121 1    
   238  120  124 1    
   239  120  241 1    
   240  121  122 am   BACKBONE|DICT|INTERRES
   241  121  123 2    
   242  122  242 1    
   243  122  243 1    
   244  124  125 1    
   245  124  244 1    
   246  124  245 1    
   247  125  126 1    
   248  126  246 1    
   249  126  247 1    
@<TRIPOS>SUBSTRUCTURE
     1 UNK         1 GROUP             0       ****    0 ROOT    
