@<TRIPOS>MOLECULE
3R540
247   249    1
SMALL
USER_CHARGES


@<TRIPOS>ATOM
      1 CA         -4.1273  -19.8675  -43.8837 C.3       0 UNK        -0.1800 
      2 C          -4.3858  -18.4945  -44.4853 C.2       0 UNK         0.5000 
      3 O          -5.5068  -17.9931  -44.3987 O.2       0 UNK        -0.5000 
      4 N          -3.3745  -17.9132  -45.1423 N.am      1 UNK        -0.5000 
      5 CA         -3.4761  -16.6523  -45.8784 C.3       1 UNK         0.1400 
      6 C6         -2.2992  -16.4898  -46.8745 C.3       23 UNK        -0.0398 
      7 S7         -2.7780  -15.5704  -48.3713 S.3       23 UNK        -0.2404 
      8 C8         -1.3655  -15.9177  -49.4726 C.3       23 UNK        -0.0205 
      9 C9         -1.2499  -17.3839  -49.8801 C.ar      23 UNK        -0.0193 
     10 C10        -2.3335  -18.0516  -50.4584 C.ar      23 UNK        -0.1150 
     11 C11        -2.2178  -19.3857  -50.8589 C.ar      23 UNK        -0.0193 
     12 C12        -0.9987  -20.0497  -50.6997 C.ar      23 UNK        -0.1150 
     13 C13         0.1031  -19.3870  -50.1479 C.ar      23 UNK        -0.0193 
     14 C14        -0.0362  -18.0607  -49.7244 C.ar      23 UNK        -0.1150 
     15 C15         1.4662  -20.0664  -50.0729 C.3       23 UNK        -0.0205 
     16 S16         1.4719  -21.6101  -49.1073 S.3       23 UNK        -0.2404 
     17 C17         1.0205  -21.0139  -47.4435 C.3       23 UNK        -0.0398 
     18 CA          0.1433  -22.0162  -46.6565 C.3       11 UNK         0.1400 
     19 N           0.0783  -21.6764  -45.2309 N.am      11 UNK        -0.5000 
     20 C          -0.6560  -22.2764  -44.2814 C.2       10 UNK         0.5000 
     21 O          -1.5084  -23.1344  -44.5137 O.2       10 UNK        -0.5000 
     22 CA         -0.3979  -21.8486  -42.8244 C.3       10 UNK         0.1400 
     23 CB          0.7857  -22.6344  -42.2404 C.3       10 UNK        -0.1800 
     24 N          -0.1154  -20.4156  -42.7309 N.am      10 UNK        -0.5000 
     25 C          -0.9299  -19.5061  -42.1785 C.2       9 UNK         0.5000 
     26 O          -1.9360  -19.8033  -41.5350 O.2       9 UNK        -0.5000 
     27 CA         -0.5983  -18.0093  -42.3797 C.3       9 UNK         0.1400 
     28 CB         -0.2258  -17.3472  -41.0447 C.3       9 UNK        -0.1800 
     29 N           0.4621  -17.7392  -43.3521 N.am      9 UNK        -0.5000 
     30 C           0.4113  -18.0065  -44.6633 C.2       8 UNK         0.5000 
     31 O          -0.5631  -18.5072  -45.2266 O.2       8 UNK        -0.5000 
     32 CA          1.7071  -17.7573  -45.4558 C.3       8 UNK         0.1400 
     33 CB          1.8125  -16.2910  -45.8930 C.3       8 UNK        -0.1800 
     34 N           2.9078  -18.1338  -44.7036 N.am      8 UNK        -0.5000 
     35 C           3.1850  -19.3745  -44.2757 C.2       7 UNK         0.5000 
     36 O           2.4425  -20.3384  -44.4567 O.2       7 UNK        -0.5000 
     37 CA          4.4754  -19.5526  -43.4594 C.3       7 UNK         0.1400 
     38 CB          5.7180  -19.4211  -44.3533 C.3       7 UNK        -0.1800 
     39 N           4.5526  -18.5899  -42.3627 N.am      7 UNK        -0.5000 
     40 C           3.7404  -18.5907  -41.2958 C.2       6 UNK         0.5000 
     41 O           2.8923  -19.4561  -41.0793 O.2       6 UNK        -0.5000 
     42 CA          3.8827  -17.4092  -40.3180 C.3       6 UNK         0.1400 
     43 CB          4.8706  -17.7574  -39.1944 C.3       6 UNK        -0.1800 
     44 N           4.3015  -16.1575  -40.9566 N.am      6 UNK        -0.5000 
     45 C           3.5993  -15.4981  -41.8875 C.2       5 UNK         0.5000 
     46 O           2.5426  -15.9082  -42.3723 O.2       5 UNK        -0.5000 
     47 CA          4.1988  -14.1726  -42.3865 C.3       5 UNK         0.1400 
     48 CB          4.7075  -14.3131  -43.8296 C.3       5 UNK        -0.1800 
     49 N           3.2189  -13.0904  -42.3224 N.am      5 UNK        -0.5000 
     50 C           2.7585  -12.5459  -41.1873 C.2       4 UNK         0.5000 
     51 O           3.1522  -12.8727  -40.0666 O.2       4 UNK        -0.5000 
     52 CA          1.6994  -11.4335  -41.3164 C.3       4 UNK         0.1400 
     53 CB          2.3518  -10.0522  -41.1467 C.3       4 UNK        -0.1800 
     54 N           0.9728  -11.4588  -42.5887 N.am      4 UNK        -0.5000 
     55 C          -0.0040  -12.3247  -42.8835 C.2       3 UNK         0.5000 
     56 O          -0.3858  -13.2168  -42.1219 O.2       3 UNK        -0.5000 
     57 CA         -0.6545  -12.1628  -44.2644 C.3       3 UNK         0.1400 
     58 CB          0.1735  -12.8656  -45.3522 C.3       3 UNK        -0.1800 
     59 N          -1.9879  -12.7491  -44.2362 N.am      3 UNK        -0.5000 
     60 C          -3.0740  -12.2657  -44.8434 C.2       2 UNK         0.5000 
     61 O          -3.0749  -11.2419  -45.5298 O.2       2 UNK        -0.5000 
     62 CA         -4.3616  -13.0997  -44.6806 C.3       2 UNK         0.1400 
     63 CB         -5.6124  -12.3721  -45.2056 C.3       2 UNK        -0.1800 
     64 N          -4.2389  -14.3815  -45.3749 N.am      2 UNK        -0.5000 
     65 C          -3.5712  -15.4483  -44.9196 C.2       1 UNK         0.5000 
     66 O          -3.0152  -15.4862  -43.8184 O.2       1 UNK        -0.5000 
     67 C          -1.2241  -22.2193  -47.3354 C.2       11 UNK         0.5000 
     68 O          -1.4282  -23.2643  -47.9484 O.2       11 UNK        -0.5000 
     69 N          -2.1491  -21.2593  -47.1947 N.am      12 UNK        -0.5000 
     70 CA         -3.4495  -21.3249  -47.8728 C.3       12 UNK         0.1400 
     71 CB         -4.1333  -19.9521  -47.8561 C.3       12 UNK        -0.1800 
     72 C          -4.3948  -22.4110  -47.3230 C.2       12 UNK         0.5000 
     73 O          -5.3382  -22.7819  -48.0197 O.2       12 UNK        -0.5000 
     74 N          -4.1329  -22.9062  -46.1057 N.am      13 UNK        -0.5000 
     75 CA         -4.8273  -24.0566  -45.5309 C.3       13 UNK         0.1400 
     76 CB         -4.8805  -23.9138  -44.0014 C.3       13 UNK        -0.1800 
     77 C          -4.1394  -25.3717  -45.9380 C.2       13 UNK         0.5000 
     78 O          -4.8258  -26.3455  -46.2494 O.2       13 UNK        -0.5000 
     79 N          -2.7993  -25.3764  -45.9259 N.am      14 UNK        -0.5000 
     80 CA         -1.9614  -26.5314  -46.2468 C.3       14 UNK         0.1400 
     81 CB         -0.5287  -26.2541  -45.7645 C.3       14 UNK        -0.1800 
     82 C          -1.9639  -26.9012  -47.7425 C.2       14 UNK         0.5000 
     83 O          -1.9872  -28.0877  -48.0729 O.2       14 UNK        -0.5000 
     84 N          -1.9253  -25.8886  -48.6140 N.am      15 UNK        -0.5000 
     85 CA         -1.8146  -26.0134  -50.0610 C.3       15 UNK         0.1400 
     86 CB         -0.3276  -26.0469  -50.4602 C.3       15 UNK        -0.1800 
     87 C          -2.5763  -24.8495  -50.7095 C.2       15 UNK         0.5000 
     88 O          -1.9665  -23.8786  -51.1671 O.2       15 UNK        -0.5000 
     89 N          -3.9099  -24.9725  -50.7413 N.am      16 UNK        -0.5000 
     90 CA         -4.8931  -24.0067  -51.2551 C.3       16 UNK         0.1400 
     91 CB         -6.2933  -24.4652  -50.8076 C.3       16 UNK        -0.1800 
     92 C          -4.8330  -23.7460  -52.7832 C.2       16 UNK         0.5000 
     93 O          -5.8723  -23.6002  -53.4285 O.2       16 UNK        -0.5000 
     94 N          -3.6199  -23.6895  -53.3353 N.am      17 UNK        -0.5000 
     95 CA         -3.3017  -23.4678  -54.7428 C.3       17 UNK         0.1400 
     96 CB         -3.5267  -24.7679  -55.5371 C.3       17 UNK        -0.1800 
     97 C          -1.8656  -22.9481  -54.9468 C.2       17 UNK         0.5000 
     98 O          -1.5383  -22.5572  -56.0674 O.2       17 UNK        -0.5000 
     99 N          -1.0212  -22.9542  -53.9007 N.am      18 UNK        -0.5000 
    100 CA         0.4220  -22.7116  -54.0031 C.3       18 UNK         0.1400 
    101 CB         1.0876  -23.0533  -52.6626 C.3       18 UNK        -0.1800 
    102 C          0.8293  -21.3029  -54.4801 C.2       18 UNK         0.5000 
    103 O          1.8931  -21.1673  -55.0861 O.2       18 UNK        -0.5000 
    104 N         -0.0136  -20.2916  -54.2307 N.am      19 UNK        -0.5000 
    105 CA         0.1921  -18.9179  -54.7033 C.3       19 UNK         0.1400 
    106 CB        -0.2380  -17.9290  -53.6075 C.3       19 UNK        -0.1800 
    107 C         -0.5391  -18.6247  -56.0293 C.2       19 UNK         0.5000 
    108 O         -0.4858  -17.4861  -56.4959 O.2       19 UNK        -0.5000 
    109 N         -1.2298  -19.6240  -56.6031 N.am      20 UNK        -0.5000 
    110 CA        -2.0194  -19.6200  -57.8465 C.3       20 UNK         0.1400 
    111 CB        -1.1468  -19.2674  -59.0656 C.3       20 UNK        -0.1800 
    112 C         -3.2970  -18.7543  -57.8088 C.2       20 UNK         0.5000 
    113 O         -4.3237  -19.1674  -58.3478 O.2       20 UNK        -0.5000 
    114 N         -3.2345  -17.5958  -57.1435 N.am      21 UNK        -0.5000 
    115 CA        -4.3336  -16.6515  -56.9210 C.3       21 UNK         0.1400 
    116 CB        -3.7242  -15.2796  -56.5867 C.3       21 UNK        -0.1800 
    117 C         -5.3270  -17.0963  -55.8230 C.2       21 UNK         0.5000 
    118 O         -6.2517  -16.3479  -55.5040 O.2       21 UNK        -0.5000 
    119 N         -5.1100  -18.2877  -55.2538 N.am      22 UNK        -0.5000 
    120 CA        -5.8738  -18.9026  -54.1561 C.3       22 UNK         0.1400 
    121 C         -7.3743  -19.1918  -54.4586 C.2       22 UNK         0.5000 
    122 N         -7.8026  -19.2435  -55.7141 N.am      22 UNK        -0.7600 
    123 O         -8.1620  -19.3736  -53.5345 O.2       22 UNK        -0.5000 
    124 C124       -5.1828  -20.1985  -53.6590 C.3       23 UNK        -0.0398 
    125 S125       -3.4108  -19.9688  -53.2766 S.3       23 UNK        -0.2404 
    126 C126       -3.4123  -20.1008  -51.4666 C.3       23 UNK        -0.0205 
    127 H127       -4.2682  -19.8382  -42.8038 H         1 UNK         0.0600 
    128 H128       -4.8291  -20.5917  -44.2966 H         1 UNK         0.0600 
    129 H129       -3.1182  -20.2203  -44.0958 H         1 UNK         0.0600 
    130 H130       -2.4437  -18.3203  -45.1224 H         1 UNK         0.3000 
    131 H131       -4.4072  -16.7042  -46.4479 H         1 UNK         0.0600 
    132 H132       -1.4357  -16.0108  -46.4103 H         1 UNK         0.0800 
    133 H133       -1.9531  -17.4694  -47.2047 H         1 UNK         0.0800 
    134 H134       -0.4508  -15.5760  -48.9857 H         1 UNK         0.0800 
    135 H135       -1.4735  -15.3174  -50.3767 H         1 UNK         0.0800 
    136 H136       -3.2705  -17.5305  -50.5956 H         1 UNK         0.1150 
    137 H137       -0.9064  -21.0771  -51.0197 H         1 UNK         0.1150 
    138 H138        0.8135  -17.5415  -49.3042 H         1 UNK         0.1150 
    139 H139        2.2143  -19.3919  -49.6537 H         1 UNK         0.0800 
    140 H140        1.7954  -20.2899  -51.0886 H         1 UNK         0.0800 
    141 H141        0.5205  -20.0472  -47.5094 H         1 UNK         0.0800 
    142 H142        1.9576  -20.8390  -46.9170 H         1 UNK         0.0800 
    143 H143        0.6503  -22.9825  -46.6903 H         1 UNK         0.0600 
    144 H144        0.8002  -21.0326  -44.9218 H         1 UNK         0.3000 
    145 H145       -1.2897  -22.1050  -42.2490 H         1 UNK         0.0600 
    146 H146        0.9454  -22.3799  -41.1925 H         1 UNK         0.0600 
    147 H147        0.6053  -23.7090  -42.2919 H         1 UNK         0.0600 
    148 H148        1.7130  -22.4294  -42.7768 H         1 UNK         0.0600 
    149 H149        0.7178  -20.0900  -43.2037 H         1 UNK         0.3000 
    150 H150       -1.5075  -17.5319  -42.7492 H         1 UNK         0.0600 
    151 H151        0.6716  -17.7921  -40.6161 H         1 UNK         0.0600 
    152 H152       -1.0282  -17.4574  -40.3143 H         1 UNK         0.0600 
    153 H153       -0.0465  -16.2788  -41.1702 H         1 UNK         0.0600 
    154 H154        1.2950  -17.2837  -42.9886 H         1 UNK         0.3000 
    155 H155        1.6738  -18.3712  -46.3560 H         1 UNK         0.0600 
    156 H156        0.9636  -16.0058  -46.5146 H         1 UNK         0.0600 
    157 H157        2.7143  -16.1168  -46.4801 H         1 UNK         0.0600 
    158 H158        1.8357  -15.6208  -45.0340 H         1 UNK         0.0600 
    159 H159        3.5408  -17.3866  -44.4619 H         1 UNK         0.3000 
    160 H160        4.4666  -20.5586  -43.0342 H         1 UNK         0.0600 
    161 H161        5.8087  -18.4223  -44.7821 H         1 UNK         0.0600 
    162 H162        5.6797  -20.1314  -45.1803 H         1 UNK         0.0600 
    163 H163        6.6291  -19.6277  -43.7916 H         1 UNK         0.0600 
    164 H164        5.2276  -17.8450  -42.4500 H         1 UNK         0.3000 
    165 H165        2.9037  -17.2370  -39.8670 H         1 UNK         0.0600 
    166 H166        4.9112  -16.9667  -38.4451 H         1 UNK         0.0600 
    167 H167        5.8801  -17.9101  -39.5783 H         1 UNK         0.0600 
    168 H168        4.5723  -18.6731  -38.6819 H         1 UNK         0.0600 
    169 H169        5.1606  -15.7502  -40.6159 H         1 UNK         0.3000 
    170 H170        5.0464  -13.9033  -41.7525 H         1 UNK         0.0600 
    171 H171        5.4341  -15.1225  -43.9124 H         1 UNK         0.0600 
    172 H172        3.8970  -14.5254  -44.5265 H         1 UNK         0.0600 
    173 H173        5.2014  -13.4000  -44.1621 H         1 UNK         0.0600 
    174 H174        2.8190  -12.7857  -43.1963 H         1 UNK         0.3000 
    175 H175        0.9824  -11.5705  -40.5040 H         1 UNK         0.0600 
    176 H176        3.0760   -9.8488  -41.9365 H         1 UNK         0.0600 
    177 H177        1.6049   -9.2582  -41.1619 H         1 UNK         0.0600 
    178 H178        2.8778   -9.9824  -40.1935 H         1 UNK         0.0600 
    179 H179        1.2286  -10.7542  -43.2659 H         1 UNK         0.3000 
    180 H180       -0.7179  -11.0955  -44.4868 H         1 UNK         0.0600 
    181 H181        0.2149  -13.9404  -45.1792 H         1 UNK         0.0600 
    182 H182        1.1976  -12.4918  -45.3795 H         1 UNK         0.0600 
    183 H183       -0.2586  -12.7054  -46.3402 H         1 UNK         0.0600 
    184 H184       -2.0736  -13.5950  -43.6800 H         1 UNK         0.3000 
    185 H185       -4.5062  -13.2817  -43.6134 H         1 UNK         0.0600 
    186 H186       -6.5134  -12.9591  -45.0258 H         1 UNK         0.0600 
    187 H187       -5.7457  -11.4131  -44.7035 H         1 UNK         0.0600 
    188 H188       -5.5482  -12.1771  -46.2769 H         1 UNK         0.0600 
    189 H189       -4.6210  -14.4136  -46.3095 H         1 UNK         0.3000 
    190 H190       -1.9289  -20.4289  -46.6642 H         1 UNK         0.3000 
    191 H191       -3.2507  -21.5803  -48.9147 H         1 UNK         0.0600 
    192 H192       -4.9273  -19.9115  -48.6021 H         1 UNK         0.0600 
    193 H193       -3.4358  -19.1466  -48.0794 H         1 UNK         0.0600 
    194 H194       -4.5976  -19.7495  -46.8952 H         1 UNK         0.0600 
    195 H195       -3.3075  -22.5854  -45.6158 H         1 UNK         0.3000 
    196 H196       -5.8562  -24.0877  -45.8960 H         1 UNK         0.0600 
    197 H197       -3.8849  -23.8775  -43.5589 H         1 UNK         0.0600 
    198 H198       -5.4095  -23.0068  -43.7092 H         1 UNK         0.0600 
    199 H199       -5.4075  -24.7558  -43.5512 H         1 UNK         0.0600 
    200 H200       -2.3140  -24.5391  -45.6198 H         1 UNK         0.3000 
    201 H201       -2.3442  -27.3906  -45.6921 H         1 UNK         0.0600 
    202 H202       -0.0972  -25.3873  -46.2666 H         1 UNK         0.0600 
    203 H203        0.1226  -27.1066  -45.9607 H         1 UNK         0.0600 
    204 H204       -0.5035  -26.0642  -44.6912 H         1 UNK         0.0600 
    205 H205       -1.8818  -24.9304  -48.2634 H         1 UNK         0.3000 
    206 H206       -2.2831  -26.9415  -50.3949 H         1 UNK         0.0600 
    207 H207        0.1785  -26.9089  -50.0257 H         1 UNK         0.0600 
    208 H208       -0.2166  -26.1160  -51.5428 H         1 UNK         0.0600 
    209 H209        0.1971  -25.1494  -50.1285 H         1 UNK         0.0600 
    210 H210       -4.3059  -25.8123  -50.3446 H         1 UNK         0.3000 
    211 H211       -4.6916  -23.0517  -50.7687 H         1 UNK         0.0600 
    212 H212       -7.0487  -23.7159  -51.0479 H         1 UNK         0.0600 
    213 H213       -6.3348  -24.6248  -49.7301 H         1 UNK         0.0600 
    214 H214       -6.5845  -25.3966  -51.2946 H         1 UNK         0.0600 
    215 H215       -2.8389  -23.7932  -52.6942 H         1 UNK         0.3000 
    216 H216       -3.9683  -22.7020  -55.1398 H         1 UNK         0.0600 
    217 H217       -2.9020  -25.5784  -55.1601 H         1 UNK         0.0600 
    218 H218       -3.2883  -24.6313  -56.5927 H         1 UNK         0.0600 
    219 H219       -4.5657  -25.0927  -55.4828 H         1 UNK         0.0600 
    220 H220       -1.3440  -23.2407  -52.9850 H         1 UNK         0.3000 
    221 H221        0.8107  -23.4107  -54.7466 H         1 UNK         0.0600 
    222 H222        0.9758  -24.1113  -52.4285 H         1 UNK         0.0600 
    223 H223        0.6525  -22.4858  -51.8427 H         1 UNK         0.0600 
    224 H224        2.1567  -22.8381  -52.6822 H         1 UNK         0.0600 
    225 H225       -0.8740  -20.4777  -53.7333 H         1 UNK         0.3000 
    226 H226        1.2539  -18.7455  -54.8898 H         1 UNK         0.0600 
    227 H227       -1.3025  -17.9972  -53.3882 H         1 UNK         0.0600 
    228 H228        0.3099  -18.1073  -52.6837 H         1 UNK         0.0600 
    229 H229       -0.0341  -16.8995  -53.9036 H         1 UNK         0.0600 
    230 H230       -1.2031  -20.5273  -56.1422 H         1 UNK         0.3000 
    231 H231       -2.3537  -20.6504  -57.9771 H         1 UNK         0.0600 
    232 H232       -0.2774  -19.9218  -59.1296 H         1 UNK         0.0600 
    233 H233       -0.7908  -18.2376  -59.0309 H         1 UNK         0.0600 
    234 H234       -1.7101  -19.3840  -59.9922 H         1 UNK         0.0600 
    235 H235       -2.3277  -17.3369  -56.7633 H         1 UNK         0.3000 
    236 H236       -4.9012  -16.5568  -57.8487 H         1 UNK         0.0600 
    237 H237       -3.0587  -14.9400  -57.3806 H         1 UNK         0.0600 
    238 H238       -4.4985  -14.5205  -56.4688 H         1 UNK         0.0600 
    239 H239       -3.1504  -15.3123  -55.6596 H         1 UNK         0.0600 
    240 H240       -4.3112  -18.8138  -55.5726 H         1 UNK         0.3000 
    241 H241       -5.8632  -18.1852  -53.3336 H         1 UNK         0.0600 
    242 H242       -8.7759  -19.4279  -55.9004 H         1 UNK         0.3800 
    243 H243       -7.1649  -19.0919  -56.4796 H         1 UNK         0.3800 
    244 H244       -5.2621  -20.9706  -54.4242 H         1 UNK         0.0800 
    245 H245       -5.6971  -20.5971  -52.7827 H         1 UNK         0.0800 
    246 H246       -3.3960  -21.1552  -51.1937 H         1 UNK         0.0800 
    247 H247       -4.3344  -19.6820  -51.0610 H         1 UNK         0.0800 
@<TRIPOS>BOND
     1    1    2 1    
     2    1  127 1    
     3    1  128 1    
     4    1  129 1    
     5    2    3 2    
     6    2    4 am   BACKBONE|DICT|INTERRES
     7    4    5 1    
     8    4  130 1    
     9    5    6 1    
    10    5   65 1    
    11    5  131 1    
    12    6    7 1    
    13    6  132 1    
    14    6  133 1    
    15    7    8 1    
    16    8    9 1    
    17    8  134 1    
    18    8  135 1    
    19    9   10 ar   
    20    9   14 ar   
    21   10   11 ar   
    22   10  136 1    
    23   11   12 ar   
    24   11  126 1    
    25   12   13 ar   
    26   12  137 1    
    27   13   14 ar   
    28   13   15 1    
    29   14  138 1    
    30   15   16 1    
    31   15  139 1    
    32   15  140 1    
    33   16   17 1    
    34   17   18 1    
    35   17  141 1    
    36   17  142 1    
    37   18   19 1    
    38   18   67 1    
    39   18  143 1    
    40   19   20 am   BACKBONE|DICT|INTERRES
    41   19  144 1    
    42   20   21 2    
    43   20   22 1    
    44   22   23 1    
    45   22   24 1    
    46   22  145 1    
    47   23  146 1    
    48   23  147 1    
    49   23  148 1    
    50   24   25 am   BACKBONE|DICT|INTERRES
    51   24  149 1    
    52   25   26 2    
    53   25   27 1    
    54   27   28 1    
    55   27   29 1    
    56   27  150 1    
    57   28  151 1    
    58   28  152 1    
    59   28  153 1    
    60   29   30 am   BACKBONE|DICT|INTERRES
    61   29  154 1    
    62   30   31 2    
    63   30   32 1    
    64   32   33 1    
    65   32   34 1    
    66   32  155 1    
    67   33  156 1    
    68   33  157 1    
    69   33  158 1    
    70   34   35 am   BACKBONE|DICT|INTERRES
    71   34  159 1    
    72   35   36 2    
    73   35   37 1    
    74   37   38 1    
    75   37   39 1    
    76   37  160 1    
    77   38  161 1    
    78   38  162 1    
    79   38  163 1    
    80   39   40 am   BACKBONE|DICT|INTERRES
    81   39  164 1    
    82   40   41 2    
    83   40   42 1    
    84   42   43 1    
    85   42   44 1    
    86   42  165 1    
    87   43  166 1    
    88   43  167 1    
    89   43  168 1    
    90   44   45 am   BACKBONE|DICT|INTERRES
    91   44  169 1    
    92   45   46 2    
    93   45   47 1    
    94   47   48 1    
    95   47   49 1    
    96   47  170 1    
    97   48  171 1    
    98   48  172 1    
    99   48  173 1    
   100   49   50 am   BACKBONE|DICT|INTERRES
   101   49  174 1    
   102   50   51 2    
   103   50   52 1    
   104   52   53 1    
   105   52   54 1    
   106   52  175 1    
   107   53  176 1    
   108   53  177 1    
   109   53  178 1    
   110   54   55 am   BACKBONE|DICT|INTERRES
   111   54  179 1    
   112   55   56 2    
   113   55   57 1    
   114   57   58 1    
   115   57   59 1    
   116   57  180 1    
   117   58  181 1    
   118   58  182 1    
   119   58  183 1    
   120   59   60 am   BACKBONE|DICT|INTERRES
   121   59  184 1    
   122   60   61 2    
   123   60   62 1    
   124   62   63 1    
   125   62   64 1    
   126   62  185 1    
   127   63  186 1    
   128   63  187 1    
   129   63  188 1    
   130   64   65 am   BACKBONE|DICT|INTERRES
   131   64  189 1    
   132   65   66 2    
   133   67   68 2    
   134   67   69 am   BACKBONE|DICT|INTERRES
   135   69   70 1    
   136   69  190 1    
   137   70   71 1    
   138   70   72 1    
   139   70  191 1    
   140   71  192 1    
   141   71  193 1    
   142   71  194 1    
   143   72   73 2    
   144   72   74 am   BACKBONE|DICT|INTERRES
   145   74   75 1    
   146   74  195 1    
   147   75   76 1    
   148   75   77 1    
   149   75  196 1    
   150   76  197 1    
   151   76  198 1    
   152   76  199 1    
   153   77   78 2    
   154   77   79 am   BACKBONE|DICT|INTERRES
   155   79   80 1    
   156   79  200 1    
   157   80   81 1    
   158   80   82 1    
   159   80  201 1    
   160   81  202 1    
   161   81  203 1    
   162   81  204 1    
   163   82   83 2    
   164   82   84 am   BACKBONE|DICT|INTERRES
   165   84   85 1    
   166   84  205 1    
   167   85   86 1    
   168   85   87 1    
   169   85  206 1    
   170   86  207 1    
   171   86  208 1    
   172   86  209 1    
   173   87   88 2    
   174   87   89 am   BACKBONE|DICT|INTERRES
   175   89   90 1    
   176   89  210 1    
   177   90   91 1    
   178   90   92 1    
   179   90  211 1    
   180   91  212 1    
   181   91  213 1    
   182   91  214 1    
   183   92   93 2    
   184   92   94 am   BACKBONE|DICT|INTERRES
   185   94   95 1    
   186   94  215 1    
   187   95   96 1    
   188   95   97 1    
   189   95  216 1    
   190   96  217 1    
   191   96  218 1    
   192   96  219 1    
   193   97   98 2    
   194   97   99 am   BACKBONE|DICT|INTERRES
   195   99  100 1    
   196   99  220 1    
   197  100  101 1    
   198  100  102 1    
   199  100  221 1    
   200  101  222 1    
   201  101  223 1    
   202  101  224 1    
   203  102  103 2    
   204  102  104 am   BACKBONE|DICT|INTERRES
   205  104  105 1    
   206  104  225 1    
   207  105  106 1    
   208  105  107 1    
   209  105  226 1    
   210  106  227 1    
   211  106  228 1    
   212  106  229 1    
   213  107  108 2    
   214  107  109 am   BACKBONE|DICT|INTERRES
   215  109  110 1    
   216  109  230 1    
   217  110  111 1    
   218  110  112 1    
   219  110  231 1    
   220  111  232 1    
   221  111  233 1    
   222  111  234 1    
   223  112  113 2    
   224  112  114 am   BACKBONE|DICT|INTERRES
   225  114  115 1    
   226  114  235 1    
   227  115  116 1    
   228  115  117 1    
   229  115  236 1    
   230  116  237 1    
   231  116  238 1    
   232  116  239 1    
   233  117  118 2    
   234  117  119 am   BACKBONE|DICT|INTERRES
   235  119  120 1    
   236  119  240 1    
   237  120  121 1    
   238  120  124 1    
   239  120  241 1    
   240  121  122 am   BACKBONE|DICT|INTERRES
   241  121  123 2    
   242  122  242 1    
   243  122  243 1    
   244  124  125 1    
   245  124  244 1    
   246  124  245 1    
   247  125  126 1    
   248  126  246 1    
   249  126  247 1    
@<TRIPOS>SUBSTRUCTURE
     1 UNK         1 GROUP             0       ****    0 ROOT    
