@<TRIPOS>MOLECULE
3R540
247   249    1
SMALL
USER_CHARGES


@<TRIPOS>ATOM
      1 CA         -4.8453  -11.9709  -46.2582 C.3       0 UNK        -0.1800 
      2 C          -3.7368  -12.6716  -45.4852 C.2       0 UNK         0.5000 
      3 O          -3.4331  -12.2655  -44.3646 O.2       0 UNK        -0.5000 
      4 N          -3.1459  -13.7120  -46.0926 N.am      1 UNK        -0.5000 
      5 CA         -2.0718  -14.5791  -45.5798 C.3       1 UNK         0.1400 
      6 C6         -2.5700  -15.7719  -44.7150 C.3       23 UNK        -0.0398 
      7 S7         -3.2923  -15.3831  -43.0803 S.3       23 UNK        -0.2404 
      8 C8         -5.0851  -15.4423  -43.3992 C.3       23 UNK        -0.0205 
      9 C9         -5.5632  -16.8148  -43.8493 C.ar      23 UNK        -0.0193 
     10 C10        -5.9093  -17.0303  -45.1862 C.ar      23 UNK        -0.1150 
     11 C11        -6.3707  -18.2793  -45.6066 C.ar      23 UNK        -0.0193 
     12 C12        -6.5039  -19.3123  -44.6771 C.ar      23 UNK        -0.1150 
     13 C13        -6.1503  -19.1149  -43.3388 C.ar      23 UNK        -0.0193 
     14 C14        -5.6813  -17.8622  -42.9304 C.ar      23 UNK        -0.1150 
     15 C15        -6.2963  -20.2461  -42.3308 C.3       23 UNK        -0.0205 
     16 S16        -4.7588  -21.2064  -42.1391 S.3       23 UNK        -0.2404 
     17 C17        -4.6308  -22.0506  -43.7544 C.3       23 UNK        -0.0398 
     18 CA         -3.4311  -21.5208  -44.5980 C.3       11 UNK         0.1400 
     19 N          -2.1459  -21.7732  -43.9300 N.am      11 UNK        -0.5000 
     20 C          -1.6247  -22.9800  -43.6740 C.2       10 UNK         0.5000 
     21 O          -2.0566  -24.0250  -44.1671 O.2       10 UNK        -0.5000 
     22 CA         -0.4436  -23.0217  -42.6878 C.3       10 UNK         0.1400 
     23 CB          0.0696  -24.4601  -42.4374 C.3       10 UNK        -0.1800 
     24 N           0.6389  -22.1280  -43.1091 N.am      10 UNK        -0.5000 
     25 C           1.6673  -21.7639  -42.3297 C.2       9 UNK         0.5000 
     26 O           1.7845  -22.0977  -41.1497 O.2       9 UNK        -0.5000 
     27 CA          2.7517  -20.8742  -42.9625 C.3       9 UNK         0.1400 
     28 CB          3.6737  -21.6844  -43.8850 C.3       9 UNK        -0.1800 
     29 N           2.1989  -19.7340  -43.6908 N.am      9 UNK        -0.5000 
     30 C           1.6932  -18.6464  -43.0890 C.2       8 UNK         0.5000 
     31 O           1.6135  -18.5203  -41.8664 O.2       8 UNK        -0.5000 
     32 CA          1.2205  -17.4876  -43.9880 C.3       8 UNK         0.1400 
     33 CB          2.3390  -16.4454  -44.1220 C.3       8 UNK        -0.1800 
     34 N           0.8070  -17.9012  -45.3278 N.am      8 UNK        -0.5000 
     35 C          -0.2247  -18.7121  -45.5998 C.2       7 UNK         0.5000 
     36 O          -0.9775  -19.1631  -44.7374 O.2       7 UNK        -0.5000 
     37 CA         -0.4508  -19.0888  -47.0780 C.3       7 UNK         0.1400 
     38 CB         -1.5346  -18.1779  -47.6745 C.3       7 UNK        -0.1800 
     39 N           0.7449  -19.0135  -47.9228 N.am      7 UNK        -0.5000 
     40 C           1.9180  -19.6271  -47.6978 C.2       6 UNK         0.5000 
     41 O           2.1288  -20.3691  -46.7381 O.2       6 UNK        -0.5000 
     42 CA          3.0701  -19.3026  -48.6696 C.3       6 UNK         0.1400 
     43 CB          3.2241  -20.4067  -49.7229 C.3       6 UNK        -0.1800 
     44 N           2.9084  -18.0096  -49.3423 N.am      6 UNK        -0.5000 
     45 C           2.9921  -16.8244  -48.7238 C.2       5 UNK         0.5000 
     46 O           3.2267  -16.6996  -47.5195 O.2       5 UNK        -0.5000 
     47 CA          2.7004  -15.5897  -49.5891 C.3       5 UNK         0.1400 
     48 CB          1.1910  -15.3071  -49.5987 C.3       5 UNK        -0.1800 
     49 N           3.3904  -14.4202  -49.0547 N.am      5 UNK        -0.5000 
     50 C           4.5316  -13.9113  -49.5378 C.2       4 UNK         0.5000 
     51 O           5.1084  -14.3562  -50.5314 O.2       4 UNK        -0.5000 
     52 CA          5.1369  -12.6945  -48.8048 C.3       4 UNK         0.1400 
     53 CB          4.7679  -11.3928  -49.5332 C.3       4 UNK        -0.1800 
     54 N           4.7129  -12.5872  -47.4091 N.am      4 UNK        -0.5000 
     55 C           5.0969  -13.4133  -46.4274 C.2       3 UNK         0.5000 
     56 O           5.9574  -14.2828  -46.5703 O.2       3 UNK        -0.5000 
     57 CA          4.4061  -13.2529  -45.0558 C.3       3 UNK         0.1400 
     58 CB          5.3607  -12.5898  -44.0504 C.3       3 UNK        -0.1800 
     59 N           3.1364  -12.5112  -45.0557 N.am      3 UNK        -0.5000 
     60 C           2.0362  -12.8307  -45.7503 C.2       2 UNK         0.5000 
     61 O           1.9979  -13.7173  -46.6050 O.2       2 UNK        -0.5000 
     62 CA          0.7767  -11.9903  -45.4705 C.3       2 UNK         0.1400 
     63 CB          0.7663  -10.7330  -46.3535 C.3       2 UNK        -0.1800 
     64 N          -0.4440  -12.7551  -45.7256 N.am      2 UNK        -0.5000 
     65 C          -0.8430  -13.8233  -45.0195 C.2       1 UNK         0.5000 
     66 O          -0.2756  -14.2123  -43.9973 O.2       1 UNK        -0.5000 
     67 C          -3.4390  -21.9982  -46.0732 C.2       11 UNK         0.5000 
     68 O          -2.3837  -22.0450  -46.7097 O.2       11 UNK        -0.5000 
     69 N          -4.6223  -22.3385  -46.6080 N.am      12 UNK        -0.5000 
     70 CA         -4.8434  -22.7423  -47.9997 C.3       12 UNK         0.1400 
     71 CB         -6.3493  -22.9121  -48.2429 C.3       12 UNK        -0.1800 
     72 C          -4.0797  -24.0119  -48.4290 C.2       12 UNK         0.5000 
     73 O          -3.7963  -24.1708  -49.6181 O.2       12 UNK        -0.5000 
     74 N          -3.7428  -24.8750  -47.4599 N.am      13 UNK        -0.5000 
     75 CA         -2.9087  -26.0596  -47.6515 C.3       13 UNK         0.1400 
     76 CB         -2.9729  -26.9444  -46.3972 C.3       13 UNK        -0.1800 
     77 C          -1.4566  -25.6827  -47.9907 C.2       13 UNK         0.5000 
     78 O          -0.9202  -26.1715  -48.9859 O.2       13 UNK        -0.5000 
     79 N          -0.8669  -24.7745  -47.1977 N.am      14 UNK        -0.5000 
     80 CA          0.4683  -24.2181  -47.4416 C.3       14 UNK         0.1400 
     81 CB          0.9373  -23.4231  -46.2231 C.3       14 UNK        -0.1800 
     82 C           0.5238  -23.3336  -48.6970 C.2       14 UNK         0.5000 
     83 O           1.5541  -23.2937  -49.3674 O.2       14 UNK        -0.5000 
     84 N          -0.6092  -22.7017  -49.0295 N.am      15 UNK        -0.5000 
     85 CA         -0.8397  -21.9660  -50.2718 C.3       15 UNK         0.1400 
     86 CB         -2.1274  -21.1446  -50.1306 C.3       15 UNK        -0.1800 
     87 C          -0.9171  -22.8599  -51.5314 C.2       15 UNK         0.5000 
     88 O          -1.1654  -22.3261  -52.6115 O.2       15 UNK        -0.5000 
     89 N          -0.7349  -24.1820  -51.3876 N.am      16 UNK        -0.5000 
     90 CA         -0.7412  -25.2048  -52.4364 C.3       16 UNK         0.1400 
     91 CB          0.4019  -24.9718  -53.4472 C.3       16 UNK        -0.1800 
     92 C          -2.1264  -25.3404  -53.0932 C.2       16 UNK         0.5000 
     93 O          -2.2481  -25.2591  -54.3163 O.2       16 UNK        -0.5000 
     94 N          -3.1448  -25.5269  -52.2406 N.am      17 UNK        -0.5000 
     95 CA         -4.5727  -25.5904  -52.5660 C.3       17 UNK         0.1400 
     96 CB         -4.8949  -26.7853  -53.4887 C.3       17 UNK        -0.1800 
     97 C          -5.0881  -24.2387  -53.0962 C.2       17 UNK         0.5000 
     98 O          -5.7726  -24.1871  -54.1197 O.2       17 UNK        -0.5000 
     99 N          -4.7357  -23.1726  -52.3632 N.am      18 UNK        -0.5000 
    100 CA        -5.0939  -21.7724  -52.6058 C.3       18 UNK         0.1400 
    101 CB        -6.6031  -21.5547  -52.3698 C.3       18 UNK        -0.1800 
    102 C         -4.6048  -21.2334  -53.9686 C.2       18 UNK         0.5000 
    103 O         -5.3790  -20.6213  -54.7078 O.2       18 UNK        -0.5000 
    104 N         -3.3254  -21.4771  -54.2776 N.am      19 UNK        -0.5000 
    105 CA        -2.6371  -20.9370  -55.4477 C.3       19 UNK         0.1400 
    106 CB        -1.7779  -22.0405  -56.0861 C.3       19 UNK        -0.1800 
    107 C         -1.7763  -19.7269  -55.0471 C.2       19 UNK         0.5000 
    108 O         -1.9053  -18.6569  -55.6439 O.2       19 UNK        -0.5000 
    109 N         -0.9239  -19.9087  -54.0309 N.am      20 UNK        -0.5000 
    110 CA        -0.0382  -18.8914  -53.4684 C.3       20 UNK         0.1400 
    111 CB         1.2498  -19.5744  -52.9782 C.3       20 UNK        -0.1800 
    112 C         -0.7715  -18.1208  -52.3562 C.2       20 UNK         0.5000 
    113 O         -0.4860  -18.3203  -51.1732 O.2       20 UNK        -0.5000 
    114 N         -1.7222  -17.2813  -52.7883 N.am      21 UNK        -0.5000 
    115 CA        -2.7521  -16.5850  -52.0086 C.3       21 UNK         0.1400 
    116 CB        -2.1616  -15.7683  -50.8392 C.3       21 UNK        -0.1800 
    117 C         -3.8962  -17.5314  -51.5895 C.2       21 UNK         0.5000 
    118 O         -3.9505  -18.6711  -52.0536 O.2       21 UNK        -0.5000 
    119 N         -4.8263  -17.0138  -50.7757 N.am      22 UNK        -0.5000 
    120 CA        -6.1365  -17.6129  -50.4554 C.3       22 UNK         0.1400 
    121 C         -7.1135  -17.6468  -51.6738 C.2       22 UNK         0.5000 
    122 N         -8.3137  -18.1901  -51.5131 N.am      22 UNK        -0.7600 
    123 O         -6.8272  -17.1396  -52.7564 O.2       22 UNK        -0.5000 
    124 C124       -6.0369  -18.9793  -49.7112 C.3       23 UNK        -0.0398 
    125 S125       -5.2591  -18.8264  -48.0722 S.3       23 UNK        -0.2404 
    126 C126       -6.7371  -18.5059  -47.0618 C.3       23 UNK        -0.0205 
    127 H127       -5.0123  -12.4262  -47.2347 H         1 UNK         0.0600 
    128 H128       -4.5910  -10.9221  -46.4112 H         1 UNK         0.0600 
    129 H129       -5.7793  -12.0180  -45.6980 H         1 UNK         0.0600 
    130 H130       -3.4634  -13.9511  -47.0212 H         1 UNK         0.3000 
    131 H131       -1.6735  -15.0427  -46.4836 H         1 UNK         0.0600 
    132 H132       -1.7392  -16.4511  -44.5300 H         1 UNK         0.0800 
    133 H133       -3.2764  -16.3612  -45.2966 H         1 UNK         0.0800 
    134 H134       -5.3472  -14.6845  -44.1376 H         1 UNK         0.0800 
    135 H135       -5.6105  -15.1637  -42.4848 H         1 UNK         0.0800 
    136 H136       -5.8158  -16.2273  -45.9040 H         1 UNK         0.1150 
    137 H137       -6.8877  -20.2685  -45.0006 H         1 UNK         0.1150 
    138 H138       -5.4109  -17.6998  -41.8963 H         1 UNK         0.1150 
    139 H139       -6.5734  -19.8346  -41.3590 H         1 UNK         0.0800 
    140 H140       -7.1122  -20.9115  -42.6175 H         1 UNK         0.0800 
    141 H141       -5.5823  -21.9359  -44.2682 H         1 UNK         0.0800 
    142 H142       -4.5320  -23.1216  -43.5725 H         1 UNK         0.0800 
    143 H143       -3.5259  -20.4353  -44.6601 H         1 UNK         0.0600 
    144 H144       -1.6767  -20.9439  -43.5886 H         1 UNK         0.3000 
    145 H145       -0.8366  -22.6437  -41.7417 H         1 UNK         0.0600 
    146 H146        0.8151  -24.4946  -41.6440 H         1 UNK         0.0600 
    147 H147       -0.7453  -25.1147  -42.1258 H         1 UNK         0.0600 
    148 H148        0.5142  -24.8992  -43.3287 H         1 UNK         0.0600 
    149 H149        0.5931  -21.7808  -44.0569 H         1 UNK         0.3000 
    150 H150        3.3710  -20.4888  -42.1493 H         1 UNK         0.0600 
    151 H151        4.0970  -22.5422  -43.3609 H         1 UNK         0.0600 
    152 H152        4.5058  -21.0767  -44.2407 H         1 UNK         0.0600 
    153 H153        3.1428  -22.0613  -44.7565 H         1 UNK         0.0600 
    154 H154        2.2144  -19.7812  -44.7039 H         1 UNK         0.3000 
    155 H155        0.3656  -17.0166  -43.4993 H         1 UNK         0.0600 
    156 H156        3.2256  -16.8631  -44.6012 H         1 UNK         0.0600 
    157 H157        2.6380  -16.0600  -43.1465 H         1 UNK         0.0600 
    158 H158        2.0084  -15.5973  -44.7179 H         1 UNK         0.0600 
    159 H159        1.3873  -17.5834  -46.0929 H         1 UNK         0.3000 
    160 H160       -0.7981  -20.1206  -47.1055 H         1 UNK         0.0600 
    161 H161       -1.7806  -18.4604  -48.6972 H         1 UNK         0.0600 
    162 H162       -1.2164  -17.1355  -47.6877 H         1 UNK         0.0600 
    163 H163       -2.4552  -18.2348  -47.0925 H         1 UNK         0.0600 
    164 H164        0.6621  -18.4480  -48.7560 H         1 UNK         0.3000 
    165 H165        3.9908  -19.2640  -48.0834 H         1 UNK         0.0600 
    166 H166        4.0352  -20.1866  -50.4170 H         1 UNK         0.0600 
    167 H167        3.4546  -21.3613  -49.2487 H         1 UNK         0.0600 
    168 H168        2.3107  -20.5415  -50.3005 H         1 UNK         0.0600 
    169 H169        2.6903  -18.0383  -50.3275 H         1 UNK         0.3000 
    170 H170        3.0226  -15.7888  -50.6133 H         1 UNK         0.0600 
    171 H171        0.6449  -16.1485  -50.0237 H         1 UNK         0.0600 
    172 H172        0.8017  -15.1385  -48.5938 H         1 UNK         0.0600 
    173 H173        0.9576  -14.4287  -50.2003 H         1 UNK         0.0600 
    174 H174        3.0150  -14.0620  -48.1797 H         1 UNK         0.3000 
    175 H175        6.2233  -12.8029  -48.8269 H         1 UNK         0.0600 
    176 H176        3.6904  -11.2229  -49.5316 H         1 UNK         0.0600 
    177 H177        5.2455  -10.5305  -49.0677 H         1 UNK         0.0600 
    178 H178        5.0942  -11.4211  -50.5737 H         1 UNK         0.0600 
    179 H179        4.0008  -11.9034  -47.2013 H         1 UNK         0.3000 
    180 H180        4.1894  -14.2612  -44.6995 H         1 UNK         0.0600 
    181 H181        5.5880  -11.5610  -44.3323 H         1 UNK         0.0600 
    182 H182        6.3064  -13.1303  -43.9906 H         1 UNK         0.0600 
    183 H183        4.9334  -12.5783  -43.0475 H         1 UNK         0.0600 
    184 H184        3.0821  -11.7437  -44.4016 H         1 UNK         0.3000 
    185 H185        0.7788  -11.6885  -44.4211 H         1 UNK         0.0600 
    186 H186       -0.1104  -10.1170  -46.1521 H         1 UNK         0.0600 
    187 H187        1.6453  -10.1147  -46.1670 H         1 UNK         0.0600 
    188 H188        0.7624  -10.9863  -47.4147 H         1 UNK         0.0600 
    189 H189       -0.9597  -12.5123  -46.5579 H         1 UNK         0.3000 
    190 H190       -5.4508  -22.2802  -46.0367 H         1 UNK         0.3000 
    191 H191       -4.5014  -21.9198  -48.6266 H         1 UNK         0.0600 
    192 H192       -6.5485  -23.2020  -49.2755 H         1 UNK         0.0600 
    193 H193       -6.8853  -21.9805  -48.0602 H         1 UNK         0.0600 
    194 H194       -6.7772  -23.6809  -47.5984 H         1 UNK         0.0600 
    195 H195       -4.0032  -24.6530  -46.5104 H         1 UNK         0.3000 
    196 H196       -3.3131  -26.6295  -48.4909 H         1 UNK         0.0600 
    197 H197       -2.3620  -27.8396  -46.5201 H         1 UNK         0.0600 
    198 H198       -3.9933  -27.2726  -46.1994 H         1 UNK         0.0600 
    199 H199       -2.6125  -26.4202  -45.5112 H         1 UNK         0.0600 
    200 H200       -1.3862  -24.3912  -46.4172 H         1 UNK         0.3000 
    201 H201        1.1595  -25.0502  -47.5911 H         1 UNK         0.0600 
    202 H202        0.2847  -22.5733  -46.0212 H         1 UNK         0.0600 
    203 H203        1.9412  -23.0361  -46.3942 H         1 UNK         0.0600 
    204 H204        0.9802  -24.0518  -45.3375 H         1 UNK         0.0600 
    205 H205       -1.3811  -22.7383  -48.3722 H         1 UNK         0.3000 
    206 H206       -0.0092  -21.2716  -50.4007 H         1 UNK         0.0600 
    207 H207       -2.1925  -20.6493  -49.1638 H         1 UNK         0.0600 
    208 H208       -2.1843  -20.3758  -50.8999 H         1 UNK         0.0600 
    209 H209       -3.0067  -21.7709  -50.2456 H         1 UNK         0.0600 
    210 H210       -0.5860  -24.5362  -50.4513 H         1 UNK         0.3000 
    211 H211       -0.5443  -26.1547  -51.9371 H         1 UNK         0.0600 
    212 H212        1.3651  -24.9026  -52.9417 H         1 UNK         0.0600 
    213 H213        0.2607  -24.0578  -54.0239 H         1 UNK         0.0600 
    214 H214        0.4660  -25.7969  -54.1573 H         1 UNK         0.0600 
    215 H215       -2.9384  -25.5006  -51.2496 H         1 UNK         0.3000 
    216 H216       -5.0912  -25.7632  -51.6217 H         1 UNK         0.0600 
    217 H217       -5.9726  -26.9028  -53.6070 H         1 UNK         0.0600 
    218 H218       -4.5106  -27.7175  -53.0750 H         1 UNK         0.0600 
    219 H219       -4.4721  -26.6604  -54.4857 H         1 UNK         0.0600 
    220 H220       -4.1845  -23.3537  -51.5320 H         1 UNK         0.3000 
    221 H221       -4.5631  -21.1938  -51.8529 H         1 UNK         0.0600 
    222 H222       -7.2112  -22.1119  -53.0826 H         1 UNK         0.0600 
    223 H223       -6.8950  -21.8610  -51.3658 H         1 UNK         0.0600 
    224 H224       -6.8641  -20.5023  -52.4757 H         1 UNK         0.0600 
    225 H225       -2.7384  -21.9701  -53.6109 H         1 UNK         0.3000 
    226 H226       -3.3579  -20.6033  -56.1968 H         1 UNK         0.0600 
    227 H227       -1.2487  -21.6658  -56.9630 H         1 UNK         0.0600 
    228 H228       -1.0322  -22.4302  -55.3926 H         1 UNK         0.0600 
    229 H229       -2.3954  -22.8785  -56.4100 H         1 UNK         0.0600 
    230 H230       -0.9304  -20.8076  -53.5534 H         1 UNK         0.3000 
    231 H231        0.2443  -18.1743  -54.2420 H         1 UNK         0.0600 
    232 H232        1.7972  -20.0178  -53.8100 H         1 UNK         0.0600 
    233 H233        1.0367  -20.3684  -52.2649 H         1 UNK         0.0600 
    234 H234        1.9161  -18.8594  -52.4946 H         1 UNK         0.0600 
    235 H235       -1.8848  -17.2762  -53.7875 H         1 UNK         0.3000 
    236 H236       -3.1998  -15.8728  -52.7032 H         1 UNK         0.0600 
    237 H237       -1.3197  -15.1629  -51.1734 H         1 UNK         0.0600 
    238 H238       -2.8979  -15.0813  -50.4221 H         1 UNK         0.0600 
    239 H239       -1.8198  -16.4075  -50.0268 H         1 UNK         0.0600 
    240 H240       -4.7054  -16.0629  -50.4614 H         1 UNK         0.3000 
    241 H241       -6.6002  -16.9023  -49.7707 H         1 UNK         0.0600 
    242 H242       -8.6211  -18.5706  -50.6327 H         1 UNK         0.3800 
    243 H243       -8.9499  -18.1905  -52.2954 H         1 UNK         0.3800 
    244 H244       -7.0167  -19.4365  -49.5731 H         1 UNK         0.0800 
    245 H245       -5.4638  -19.7003  -50.2904 H         1 UNK         0.0800 
    246 H246       -7.2614  -17.6296  -47.4456 H         1 UNK         0.0800 
    247 H247       -7.4285  -19.3452  -47.1517 H         1 UNK         0.0800 
@<TRIPOS>BOND
     1    1    2 1    
     2    1  127 1    
     3    1  128 1    
     4    1  129 1    
     5    2    3 2    
     6    2    4 am   BACKBONE|DICT|INTERRES
     7    4    5 1    
     8    4  130 1    
     9    5    6 1    
    10    5   65 1    
    11    5  131 1    
    12    6    7 1    
    13    6  132 1    
    14    6  133 1    
    15    7    8 1    
    16    8    9 1    
    17    8  134 1    
    18    8  135 1    
    19    9   10 ar   
    20    9   14 ar   
    21   10   11 ar   
    22   10  136 1    
    23   11   12 ar   
    24   11  126 1    
    25   12   13 ar   
    26   12  137 1    
    27   13   14 ar   
    28   13   15 1    
    29   14  138 1    
    30   15   16 1    
    31   15  139 1    
    32   15  140 1    
    33   16   17 1    
    34   17   18 1    
    35   17  141 1    
    36   17  142 1    
    37   18   19 1    
    38   18   67 1    
    39   18  143 1    
    40   19   20 am   BACKBONE|DICT|INTERRES
    41   19  144 1    
    42   20   21 2    
    43   20   22 1    
    44   22   23 1    
    45   22   24 1    
    46   22  145 1    
    47   23  146 1    
    48   23  147 1    
    49   23  148 1    
    50   24   25 am   BACKBONE|DICT|INTERRES
    51   24  149 1    
    52   25   26 2    
    53   25   27 1    
    54   27   28 1    
    55   27   29 1    
    56   27  150 1    
    57   28  151 1    
    58   28  152 1    
    59   28  153 1    
    60   29   30 am   BACKBONE|DICT|INTERRES
    61   29  154 1    
    62   30   31 2    
    63   30   32 1    
    64   32   33 1    
    65   32   34 1    
    66   32  155 1    
    67   33  156 1    
    68   33  157 1    
    69   33  158 1    
    70   34   35 am   BACKBONE|DICT|INTERRES
    71   34  159 1    
    72   35   36 2    
    73   35   37 1    
    74   37   38 1    
    75   37   39 1    
    76   37  160 1    
    77   38  161 1    
    78   38  162 1    
    79   38  163 1    
    80   39   40 am   BACKBONE|DICT|INTERRES
    81   39  164 1    
    82   40   41 2    
    83   40   42 1    
    84   42   43 1    
    85   42   44 1    
    86   42  165 1    
    87   43  166 1    
    88   43  167 1    
    89   43  168 1    
    90   44   45 am   BACKBONE|DICT|INTERRES
    91   44  169 1    
    92   45   46 2    
    93   45   47 1    
    94   47   48 1    
    95   47   49 1    
    96   47  170 1    
    97   48  171 1    
    98   48  172 1    
    99   48  173 1    
   100   49   50 am   BACKBONE|DICT|INTERRES
   101   49  174 1    
   102   50   51 2    
   103   50   52 1    
   104   52   53 1    
   105   52   54 1    
   106   52  175 1    
   107   53  176 1    
   108   53  177 1    
   109   53  178 1    
   110   54   55 am   BACKBONE|DICT|INTERRES
   111   54  179 1    
   112   55   56 2    
   113   55   57 1    
   114   57   58 1    
   115   57   59 1    
   116   57  180 1    
   117   58  181 1    
   118   58  182 1    
   119   58  183 1    
   120   59   60 am   BACKBONE|DICT|INTERRES
   121   59  184 1    
   122   60   61 2    
   123   60   62 1    
   124   62   63 1    
   125   62   64 1    
   126   62  185 1    
   127   63  186 1    
   128   63  187 1    
   129   63  188 1    
   130   64   65 am   BACKBONE|DICT|INTERRES
   131   64  189 1    
   132   65   66 2    
   133   67   68 2    
   134   67   69 am   BACKBONE|DICT|INTERRES
   135   69   70 1    
   136   69  190 1    
   137   70   71 1    
   138   70   72 1    
   139   70  191 1    
   140   71  192 1    
   141   71  193 1    
   142   71  194 1    
   143   72   73 2    
   144   72   74 am   BACKBONE|DICT|INTERRES
   145   74   75 1    
   146   74  195 1    
   147   75   76 1    
   148   75   77 1    
   149   75  196 1    
   150   76  197 1    
   151   76  198 1    
   152   76  199 1    
   153   77   78 2    
   154   77   79 am   BACKBONE|DICT|INTERRES
   155   79   80 1    
   156   79  200 1    
   157   80   81 1    
   158   80   82 1    
   159   80  201 1    
   160   81  202 1    
   161   81  203 1    
   162   81  204 1    
   163   82   83 2    
   164   82   84 am   BACKBONE|DICT|INTERRES
   165   84   85 1    
   166   84  205 1    
   167   85   86 1    
   168   85   87 1    
   169   85  206 1    
   170   86  207 1    
   171   86  208 1    
   172   86  209 1    
   173   87   88 2    
   174   87   89 am   BACKBONE|DICT|INTERRES
   175   89   90 1    
   176   89  210 1    
   177   90   91 1    
   178   90   92 1    
   179   90  211 1    
   180   91  212 1    
   181   91  213 1    
   182   91  214 1    
   183   92   93 2    
   184   92   94 am   BACKBONE|DICT|INTERRES
   185   94   95 1    
   186   94  215 1    
   187   95   96 1    
   188   95   97 1    
   189   95  216 1    
   190   96  217 1    
   191   96  218 1    
   192   96  219 1    
   193   97   98 2    
   194   97   99 am   BACKBONE|DICT|INTERRES
   195   99  100 1    
   196   99  220 1    
   197  100  101 1    
   198  100  102 1    
   199  100  221 1    
   200  101  222 1    
   201  101  223 1    
   202  101  224 1    
   203  102  103 2    
   204  102  104 am   BACKBONE|DICT|INTERRES
   205  104  105 1    
   206  104  225 1    
   207  105  106 1    
   208  105  107 1    
   209  105  226 1    
   210  106  227 1    
   211  106  228 1    
   212  106  229 1    
   213  107  108 2    
   214  107  109 am   BACKBONE|DICT|INTERRES
   215  109  110 1    
   216  109  230 1    
   217  110  111 1    
   218  110  112 1    
   219  110  231 1    
   220  111  232 1    
   221  111  233 1    
   222  111  234 1    
   223  112  113 2    
   224  112  114 am   BACKBONE|DICT|INTERRES
   225  114  115 1    
   226  114  235 1    
   227  115  116 1    
   228  115  117 1    
   229  115  236 1    
   230  116  237 1    
   231  116  238 1    
   232  116  239 1    
   233  117  118 2    
   234  117  119 am   BACKBONE|DICT|INTERRES
   235  119  120 1    
   236  119  240 1    
   237  120  121 1    
   238  120  124 1    
   239  120  241 1    
   240  121  122 am   BACKBONE|DICT|INTERRES
   241  121  123 2    
   242  122  242 1    
   243  122  243 1    
   244  124  125 1    
   245  124  244 1    
   246  124  245 1    
   247  125  126 1    
   248  126  246 1    
   249  126  247 1    
@<TRIPOS>SUBSTRUCTURE
     1 UNK         1 GROUP             0       ****    0 ROOT    
