@<TRIPOS>MOLECULE
3R540
247   249    1
SMALL
USER_CHARGES


@<TRIPOS>ATOM
      1 CA          0.3717  -15.9846  -47.7743 C.3       0 UNK        -0.1800 
      2 C          -0.5015  -14.9553  -47.0786 C.2       0 UNK         0.5000 
      3 O          -0.0029  -13.9006  -46.6859 O.2       0 UNK        -0.5000 
      4 N          -1.8050  -15.2400  -46.9438 N.am      1 UNK        -0.5000 
      5 CA         -2.7910  -14.3803  -46.2680 C.3       1 UNK         0.1400 
      6 C6         -4.1775  -15.0513  -46.1184 C.3       23 UNK        -0.0398 
      7 S7         -4.1114  -16.6103  -45.1752 S.3       23 UNK        -0.2404 
      8 C8         -4.7957  -17.7941  -46.3783 C.3       23 UNK        -0.0205 
      9 C9         -3.8873  -17.9806  -47.5842 C.ar      23 UNK        -0.0193 
     10 C10        -4.3122  -17.6126  -48.8623 C.ar      23 UNK        -0.1150 
     11 C11        -3.4829  -17.8163  -49.9682 C.ar      23 UNK        -0.0193 
     12 C12        -2.2148  -18.3778  -49.7888 C.ar      23 UNK        -0.1150 
     13 C13        -1.7782  -18.7474  -48.5153 C.ar      23 UNK        -0.0193 
     14 C14        -2.6227  -18.5460  -47.4204 C.ar      23 UNK        -0.1150 
     15 C15        -0.3922  -19.3479  -48.3241 C.3       23 UNK        -0.0205 
     16 S16        -0.3780  -21.1507  -48.5517 S.3       23 UNK        -0.2404 
     17 C17        -1.4536  -21.6939  -47.1871 C.3       23 UNK        -0.0398 
     18 CA         -1.0037  -23.0392  -46.5834 C.3       11 UNK         0.1400 
     19 N           0.2436  -22.9388  -45.8172 N.am      11 UNK        -0.5000 
     20 C           0.9115  -23.9909  -45.3219 C.2       10 UNK         0.5000 
     21 O           0.5601  -25.1589  -45.4839 O.2       10 UNK        -0.5000 
     22 CA          2.1350  -23.6895  -44.4427 C.3       10 UNK         0.1400 
     23 CB          3.3649  -23.3406  -45.2948 C.3       10 UNK        -0.1800 
     24 N           1.8528  -22.6125  -43.4948 N.am      10 UNK        -0.5000 
     25 C           1.0648  -22.7480  -42.4182 C.2       9 UNK         0.5000 
     26 O           0.5470  -23.8135  -42.0827 O.2       9 UNK        -0.5000 
     27 CA          0.7824  -21.4763  -41.5955 C.3       9 UNK         0.1400 
     28 CB          1.8528  -21.2851  -40.5112 C.3       9 UNK        -0.1800 
     29 N           0.7084  -20.2715  -42.4242 N.am      9 UNK        -0.5000 
     30 C          -0.2835  -20.0188  -43.2917 C.2       8 UNK         0.5000 
     31 O          -1.2488  -20.7635  -43.4574 O.2       8 UNK        -0.5000 
     32 CA         -0.1473  -18.7635  -44.1747 C.3       8 UNK         0.1400 
     33 CB         -0.7942  -17.5426  -43.5074 C.3       8 UNK        -0.1800 
     34 N           1.2317  -18.4499  -44.5449 N.am      8 UNK        -0.5000 
     35 C           2.0533  -19.2878  -45.1968 C.2       7 UNK         0.5000 
     36 O           1.6916  -20.3813  -45.6303 O.2       7 UNK        -0.5000 
     37 CA          3.5291  -18.8708  -45.3538 C.3       7 UNK         0.1400 
     38 CB          3.7797  -18.3499  -46.7768 C.3       7 UNK        -0.1800 
     39 N           3.9705  -17.8565  -44.3936 N.am      7 UNK        -0.5000 
     40 C           3.9186  -17.9483  -43.0556 C.2       6 UNK         0.5000 
     41 O           3.5665  -18.9636  -42.4538 O.2       6 UNK        -0.5000 
     42 CA          4.2481  -16.6673  -42.2607 C.3       6 UNK         0.1400 
     43 CB          5.6734  -16.7401  -41.6932 C.3       6 UNK        -0.1800 
     44 N           4.1045  -15.4301  -43.0401 N.am      6 UNK        -0.5000 
     45 C           2.9648  -14.9844  -43.5886 C.2       5 UNK         0.5000 
     46 O           1.8842  -15.5721  -43.4957 O.2       5 UNK        -0.5000 
     47 CA          3.0912  -13.7248  -44.4600 C.3       5 UNK         0.1400 
     48 CB          3.5826  -14.1032  -45.8666 C.3       5 UNK        -0.1800 
     49 N           1.8188  -13.0238  -44.5925 N.am      5 UNK        -0.5000 
     50 C           1.3166  -12.1575  -43.7040 C.2       4 UNK         0.5000 
     51 O           1.8695  -11.8749  -42.6390 O.2       4 UNK        -0.5000 
     52 CA         -0.0108  -11.4740  -44.1054 C.3       4 UNK         0.1400 
     53 CB         -0.3331  -10.2197  -43.2670 C.3       4 UNK        -0.1800 
     54 N          -0.0656  -11.1792  -45.5425 N.am      4 UNK        -0.5000 
     55 C           0.7639  -10.3985  -46.2533 C.2       3 UNK         0.5000 
     56 O           1.6101   -9.6577  -45.7514 O.2       3 UNK        -0.5000 
     57 CA          0.6666  -10.4885  -47.7894 C.3       3 UNK         0.1400 
     58 CB          1.9238  -11.1665  -48.3593 C.3       3 UNK        -0.1800 
     59 N          -0.4995  -11.2559  -48.2307 N.am      3 UNK        -0.5000 
     60 C          -1.6335  -10.7282  -48.7101 C.2       2 UNK         0.5000 
     61 O          -1.8154   -9.5206  -48.8683 O.2       2 UNK        -0.5000 
     62 CA         -2.7640  -11.7163  -49.0657 C.3       2 UNK         0.1400 
     63 CB         -2.6998  -12.0946  -50.5537 C.3       2 UNK        -0.1800 
     64 N          -2.7403  -12.9424  -48.2647 N.am      2 UNK        -0.5000 
     65 C          -2.9541  -13.0020  -46.9422 C.2       1 UNK         0.5000 
     66 O          -3.2321  -12.0224  -46.2509 O.2       1 UNK        -0.5000 
     67 C          -2.1508  -23.6606  -45.7655 C.2       11 UNK         0.5000 
     68 O          -2.9108  -24.4509  -46.3211 O.2       11 UNK        -0.5000 
     69 N          -2.2405  -23.3380  -44.4672 N.am      12 UNK        -0.5000 
     70 CA         -3.2153  -23.9220  -43.5422 C.3       12 UNK         0.1400 
     71 CB         -3.1358  -23.1994  -42.1891 C.3       12 UNK        -0.1800 
     72 C          -3.0470  -25.4434  -43.3559 C.2       12 UNK         0.5000 
     73 O          -4.0445  -26.1427  -43.1745 O.2       12 UNK        -0.5000 
     74 N          -1.7996  -25.9279  -43.4204 N.am      13 UNK        -0.5000 
     75 CA         -1.4661  -27.3490  -43.3660 C.3       13 UNK         0.1400 
     76 CB         -0.0217  -27.5137  -42.8667 C.3       13 UNK        -0.1800 
     77 C          -1.6601  -28.0382  -44.7291 C.2       13 UNK         0.5000 
     78 O          -2.2398  -29.1236  -44.7825 O.2       13 UNK        -0.5000 
     79 N          -1.1591  -27.4081  -45.8008 N.am      14 UNK        -0.5000 
     80 CA         -1.1533  -27.9541  -47.1592 C.3       14 UNK         0.1400 
     81 CB         -0.1478  -27.1654  -48.0119 C.3       14 UNK        -0.1800 
     82 C          -2.5331  -27.9567  -47.8405 C.2       14 UNK         0.5000 
     83 O          -2.8087  -28.8588  -48.6329 O.2       14 UNK        -0.5000 
     84 N          -3.3534  -26.9360  -47.5531 N.am      15 UNK        -0.5000 
     85 CA         -4.6784  -26.6221  -48.1033 C.3       15 UNK         0.1400 
     86 CB         -5.6941  -27.7463  -47.8245 C.3       15 UNK        -0.1800 
     87 C          -4.6573  -26.2299  -49.5939 C.2       15 UNK         0.5000 
     88 O          -5.1351  -25.1522  -49.9485 O.2       15 UNK        -0.5000 
     89 N          -4.0830  -27.0938  -50.4393 N.am      16 UNK        -0.5000 
     90 CA         -3.9893  -26.9398  -51.8935 C.3       16 UNK         0.1400 
     91 CB         -3.5466  -28.2802  -52.4998 C.3       16 UNK        -0.1800 
     92 C          -3.0477  -25.8068  -52.3490 C.2       16 UNK         0.5000 
     93 O          -3.1559  -25.3533  -53.4886 O.2       16 UNK        -0.5000 
     94 N          -2.1448  -25.3693  -51.4606 N.am      17 UNK        -0.5000 
     95 CA         -1.1794  -24.2945  -51.7009 C.3       17 UNK         0.1400 
     96 CB         -0.1000  -24.3487  -50.6103 C.3       17 UNK        -0.1800 
     97 C          -1.8105  -22.8884  -51.7698 C.2       17 UNK         0.5000 
     98 O          -1.1713  -21.9707  -52.2869 O.2       17 UNK        -0.5000 
     99 N          -3.0414  -22.7327  -51.2607 N.am      18 UNK        -0.5000 
    100 CA        -3.8086  -21.4889  -51.2912 C.3       18 UNK         0.1400 
    101 CB        -4.8886  -21.5371  -50.1971 C.3       18 UNK        -0.1800 
    102 C         -4.3889  -21.2244  -52.6966 C.2       18 UNK         0.5000 
    103 O         -5.5755  -21.4565  -52.9368 O.2       18 UNK        -0.5000 
    104 N         -3.5178  -20.7760  -53.6085 N.am      19 UNK        -0.5000 
    105 CA        -3.8248  -20.3966  -54.9891 C.3       19 UNK         0.1400 
    106 CB        -2.4946  -20.1760  -55.7289 C.3       19 UNK        -0.1800 
    107 C         -4.7127  -19.1384  -55.0903 C.2       19 UNK         0.5000 
    108 O         -4.9155  -18.4321  -54.1047 O.2       19 UNK        -0.5000 
    109 N         -5.2094  -18.8485  -56.2975 N.am      20 UNK        -0.5000 
    110 CA        -6.0501  -17.6772  -56.5660 C.3       20 UNK         0.1400 
    111 CB        -6.7717  -17.8880  -57.9067 C.3       20 UNK        -0.1800 
    112 C         -5.2809  -16.3377  -56.5770 C.2       20 UNK         0.5000 
    113 O         -5.9112  -15.2868  -56.4538 O.2       20 UNK        -0.5000 
    114 N         -3.9559  -16.3913  -56.7774 N.am      21 UNK        -0.5000 
    115 CA        -3.1033  -15.2284  -57.0256 C.3       21 UNK         0.1400 
    116 CB        -1.7833  -15.6604  -57.6845 C.3       21 UNK        -0.1800 
    117 C         -2.9429  -14.2271  -55.8515 C.2       21 UNK         0.5000 
    118 O         -3.2196  -13.0486  -56.0708 O.2       21 UNK        -0.5000 
    119 N         -2.5542  -14.5968  -54.6193 N.am      22 UNK        -0.5000 
    120 CA        -1.9914  -15.8666  -54.1246 C.3       22 UNK         0.1400 
    121 C         -0.5421  -16.1593  -54.6089 C.2       22 UNK         0.5000 
    122 N          0.2157  -15.1721  -55.0710 N.am      22 UNK        -0.7600 
    123 O         -0.1042  -17.3045  -54.5724 O.2       22 UNK        -0.5000 
    124 C124       -1.9962  -15.9090  -52.5707 C.3       23 UNK        -0.0398 
    125 S125       -3.6579  -15.7585  -51.8349 S.3       23 UNK        -0.2404 
    126 C126       -3.9859  -17.4834  -51.3602 C.3       23 UNK        -0.0205 
    127 H127        1.2800  -15.5191  -48.1566 H         1 UNK         0.0600 
    128 H128        0.6574  -16.7683  -47.0737 H         1 UNK         0.0600 
    129 H129       -0.1531  -16.4299  -48.6182 H         1 UNK         0.0600 
    130 H130       -2.1596  -16.1254  -47.2797 H         1 UNK         0.3000 
    131 H131       -2.4046  -14.1914  -45.2639 H         1 UNK         0.0600 
    132 H132       -4.6255  -15.2262  -47.0979 H         1 UNK         0.0800 
    133 H133       -4.8645  -14.3881  -45.5892 H         1 UNK         0.0800 
    134 H134       -5.7905  -17.4653  -46.6829 H         1 UNK         0.0800 
    135 H135       -4.9299  -18.7580  -45.8855 H         1 UNK         0.0800 
    136 H136       -5.2952  -17.1851  -49.0024 H         1 UNK         0.1150 
    137 H137       -1.5723  -18.5498  -50.6404 H         1 UNK         0.1150 
    138 H138       -2.3131  -18.8298  -46.4293 H         1 UNK         0.1150 
    139 H139        0.3040  -18.9039  -49.0368 H         1 UNK         0.0800 
    140 H140       -0.0058  -19.1051  -47.3363 H         1 UNK         0.0800 
    141 H141       -1.4775  -20.9380  -46.4030 H         1 UNK         0.0800 
    142 H142       -2.4662  -21.7569  -47.5908 H         1 UNK         0.0800 
    143 H143       -0.8131  -23.7295  -47.4057 H         1 UNK         0.0600 
    144 H144        0.6291  -22.0080  -45.6840 H         1 UNK         0.3000 
    145 H145        2.3689  -24.5930  -43.8751 H         1 UNK         0.0600 
    146 H146        4.2337  -23.1373  -44.6686 H         1 UNK         0.0600 
    147 H147        3.6256  -24.1707  -45.9525 H         1 UNK         0.0600 
    148 H148        3.1953  -22.4691  -45.9264 H         1 UNK         0.0600 
    149 H149        2.1910  -21.6923  -43.7374 H         1 UNK         0.3000 
    150 H150       -0.1822  -21.6083  -41.1006 H         1 UNK         0.0600 
    151 H151        1.8941  -22.1500  -39.8479 H         1 UNK         0.0600 
    152 H152        1.6389  -20.4120  -39.8945 H         1 UNK         0.0600 
    153 H153        2.8458  -21.1556  -40.9432 H         1 UNK         0.0600 
    154 H154        1.4994  -19.6395  -42.3796 H         1 UNK         0.3000 
    155 H155       -0.6825  -18.9696  -45.0966 H         1 UNK         0.0600 
    156 H156       -0.7981  -16.6828  -44.1782 H         1 UNK         0.0600 
    157 H157       -0.2661  -17.2556  -42.5974 H         1 UNK         0.0600 
    158 H158       -1.8309  -17.7476  -43.2373 H         1 UNK         0.0600 
    159 H159        1.5929  -17.5608  -44.2169 H         1 UNK         0.3000 
    160 H160        4.1371  -19.7640  -45.1972 H         1 UNK         0.0600 
    161 H161        3.2204  -17.4346  -46.9748 H         1 UNK         0.0600 
    162 H162        3.4769  -19.0868  -47.5224 H         1 UNK         0.0600 
    163 H163        4.8368  -18.1403  -46.9406 H         1 UNK         0.0600 
    164 H164        4.2777  -16.9794  -44.7853 H         1 UNK         0.3000 
    165 H165        3.5471  -16.6168  -41.4250 H         1 UNK         0.0600 
    166 H166        6.4216  -16.7684  -42.4863 H         1 UNK         0.0600 
    167 H167        5.8894  -15.8819  -41.0565 H         1 UNK         0.0600 
    168 H168        5.8065  -17.6354  -41.0842 H         1 UNK         0.0600 
    169 H169        4.9500  -14.8948  -43.1778 H         1 UNK         0.3000 
    170 H170        3.8213  -13.0531  -44.0033 H         1 UNK         0.0600 
    171 H171        4.5491  -14.6067  -45.8276 H         1 UNK         0.0600 
    172 H172        2.8831  -14.7713  -46.3702 H         1 UNK         0.0600 
    173 H173        3.7070  -13.2177  -46.4899 H         1 UNK         0.0600 
    174 H174        1.2550  -13.2601  -45.4046 H         1 UNK         0.3000 
    175 H175       -0.7966  -12.2068  -43.9169 H         1 UNK         0.0600 
    176 H176       -1.2747   -9.7688  -43.5804 H         1 UNK         0.0600 
    177 H177       -0.4304  -10.4720  -42.2106 H         1 UNK         0.0600 
    178 H178        0.4466   -9.4623  -43.3505 H         1 UNK         0.0600 
    179 H179       -0.7063  -11.7562  -46.0689 H         1 UNK         0.3000 
    180 H180        0.6237   -9.4680  -48.1752 H         1 UNK         0.0600 
    181 H181        1.9008  -11.1844  -49.4490 H         1 UNK         0.0600 
    182 H182        2.8286  -10.6344  -48.0629 H         1 UNK         0.0600 
    183 H183        2.0173  -12.1955  -48.0098 H         1 UNK         0.0600 
    184 H184       -0.4413  -12.2592  -48.1098 H         1 UNK         0.3000 
    185 H185       -3.7138  -11.2104  -48.8806 H         1 UNK         0.0600 
    186 H186       -3.5451  -12.7218  -50.8377 H         1 UNK         0.0600 
    187 H187       -2.7304  -11.2058  -51.1853 H         1 UNK         0.0600 
    188 H188       -1.7841  -12.6367  -50.7931 H         1 UNK         0.0600 
    189 H189       -2.5159  -13.7980  -48.7519 H         1 UNK         0.3000 
    190 H190       -1.6295  -22.6205  -44.0898 H         1 UNK         0.3000 
    191 H191       -4.2101  -23.7517  -43.9590 H         1 UNK         0.0600 
    192 H192       -3.8602  -23.6084  -41.4837 H         1 UNK         0.0600 
    193 H193       -3.3530  -22.1366  -42.2962 H         1 UNK         0.0600 
    194 H194       -2.1478  -23.2963  -41.7387 H         1 UNK         0.0600 
    195 H195       -1.0345  -25.2842  -43.5709 H         1 UNK         0.3000 
    196 H196       -2.1236  -27.8398  -42.6451 H         1 UNK         0.0600 
    197 H197        0.2467  -28.5681  -42.7913 H         1 UNK         0.0600 
    198 H198        0.1041  -27.0737  -41.8772 H         1 UNK         0.0600 
    199 H199        0.6974  -27.0390  -43.5347 H         1 UNK         0.0600 
    200 H200       -0.6527  -26.5362  -45.6621 H         1 UNK         0.3000 
    201 H201       -0.8115  -28.9900  -47.1074 H         1 UNK         0.0600 
    202 H202        0.8585  -27.2349  -47.5985 H         1 UNK         0.0600 
    203 H203       -0.4122  -26.1094  -48.0659 H         1 UNK         0.0600 
    204 H204       -0.1078  -27.5496  -49.0321 H         1 UNK         0.0600 
    205 H205       -3.0034  -26.2163  -46.9248 H         1 UNK         0.3000 
    206 H206       -5.0184  -25.7412  -47.5564 H         1 UNK         0.0600 
    207 H207       -5.7470  -27.9709  -46.7591 H         1 UNK         0.0600 
    208 H208       -6.6942  -27.4523  -48.1451 H         1 UNK         0.0600 
    209 H209       -5.4441  -28.6687  -48.3488 H         1 UNK         0.0600 
    210 H210       -3.6802  -27.9362  -50.0364 H         1 UNK         0.3000 
    211 H211       -4.9861  -26.7045  -52.2719 H         1 UNK         0.0600 
    212 H212       -2.5630  -28.5797  -52.1354 H         1 UNK         0.0600 
    213 H213       -3.4908  -28.2203  -53.5875 H         1 UNK         0.0600 
    214 H214       -4.2511  -29.0754  -52.2553 H         1 UNK         0.0600 
    215 H215       -2.1296  -25.8020  -50.5497 H         1 UNK         0.3000 
    216 H216       -0.6980  -24.4791  -52.6635 H         1 UNK         0.0600 
    217 H217        0.6552  -23.5770  -50.7663 H         1 UNK         0.0600 
    218 H218        0.4140  -25.3100  -50.6068 H         1 UNK         0.0600 
    219 H219       -0.5281  -24.1900  -49.6221 H         1 UNK         0.0600 
    220 H220       -3.5179  -23.5435  -50.8894 H         1 UNK         0.3000 
    221 H221       -3.1381  -20.6636  -51.0488 H         1 UNK         0.0600 
    222 H222       -5.5812  -22.3661  -50.3473 H         1 UNK         0.0600 
    223 H223       -4.4419  -21.6478  -49.2090 H         1 UNK         0.0600 
    224 H224       -5.4715  -20.6152  -50.1867 H         1 UNK         0.0600 
    225 H225       -2.5486  -20.6965  -53.3249 H         1 UNK         0.3000 
    226 H226       -4.3581  -21.2262  -55.4573 H         1 UNK         0.0600 
    227 H227       -2.6552  -19.9560  -56.7848 H         1 UNK         0.0600 
    228 H228       -1.9314  -19.3452  -55.3017 H         1 UNK         0.0600 
    229 H229       -1.8650  -21.0648  -55.6799 H         1 UNK         0.0600 
    230 H230       -5.0151  -19.4587  -57.0787 H         1 UNK         0.3000 
    231 H231       -6.8088  -17.6090  -55.7832 H         1 UNK         0.0600 
    232 H232       -7.4366  -17.0524  -58.1294 H         1 UNK         0.0600 
    233 H233       -7.3831  -18.7904  -57.8886 H         1 UNK         0.0600 
    234 H234       -6.0663  -17.9752  -58.7341 H         1 UNK         0.0600 
    235 H235       -3.5267  -17.2992  -56.8667 H         1 UNK         0.3000 
    236 H236       -3.6200  -14.6541  -57.7984 H         1 UNK         0.0600 
    237 H237       -1.3435  -16.5319  -57.2029 H         1 UNK         0.0600 
    238 H238       -1.9464  -15.9259  -58.7292 H         1 UNK         0.0600 
    239 H239       -1.0467  -14.8562  -57.6716 H         1 UNK         0.0600 
    240 H240       -2.5627  -13.8718  -53.9188 H         1 UNK         0.3000 
    241 H241       -2.6186  -16.6827  -54.4829 H         1 UNK         0.0600 
    242 H242        1.1526  -15.3744  -55.3828 H         1 UNK         0.3800 
    243 H243       -0.1236  -14.2235  -55.0947 H         1 UNK         0.3800 
    244 H244       -1.3851  -15.0986  -52.1692 H         1 UNK         0.0800 
    245 H245       -1.5337  -16.8285  -52.2103 H         1 UNK         0.0800 
    246 H246       -5.0595  -17.6680  -51.4195 H         1 UNK         0.0800 
    247 H247       -3.5218  -18.1576  -52.0789 H         1 UNK         0.0800 
@<TRIPOS>BOND
     1    1    2 1    
     2    1  127 1    
     3    1  128 1    
     4    1  129 1    
     5    2    3 2    
     6    2    4 am   BACKBONE|DICT|INTERRES
     7    4    5 1    
     8    4  130 1    
     9    5    6 1    
    10    5   65 1    
    11    5  131 1    
    12    6    7 1    
    13    6  132 1    
    14    6  133 1    
    15    7    8 1    
    16    8    9 1    
    17    8  134 1    
    18    8  135 1    
    19    9   10 ar   
    20    9   14 ar   
    21   10   11 ar   
    22   10  136 1    
    23   11   12 ar   
    24   11  126 1    
    25   12   13 ar   
    26   12  137 1    
    27   13   14 ar   
    28   13   15 1    
    29   14  138 1    
    30   15   16 1    
    31   15  139 1    
    32   15  140 1    
    33   16   17 1    
    34   17   18 1    
    35   17  141 1    
    36   17  142 1    
    37   18   19 1    
    38   18   67 1    
    39   18  143 1    
    40   19   20 am   BACKBONE|DICT|INTERRES
    41   19  144 1    
    42   20   21 2    
    43   20   22 1    
    44   22   23 1    
    45   22   24 1    
    46   22  145 1    
    47   23  146 1    
    48   23  147 1    
    49   23  148 1    
    50   24   25 am   BACKBONE|DICT|INTERRES
    51   24  149 1    
    52   25   26 2    
    53   25   27 1    
    54   27   28 1    
    55   27   29 1    
    56   27  150 1    
    57   28  151 1    
    58   28  152 1    
    59   28  153 1    
    60   29   30 am   BACKBONE|DICT|INTERRES
    61   29  154 1    
    62   30   31 2    
    63   30   32 1    
    64   32   33 1    
    65   32   34 1    
    66   32  155 1    
    67   33  156 1    
    68   33  157 1    
    69   33  158 1    
    70   34   35 am   BACKBONE|DICT|INTERRES
    71   34  159 1    
    72   35   36 2    
    73   35   37 1    
    74   37   38 1    
    75   37   39 1    
    76   37  160 1    
    77   38  161 1    
    78   38  162 1    
    79   38  163 1    
    80   39   40 am   BACKBONE|DICT|INTERRES
    81   39  164 1    
    82   40   41 2    
    83   40   42 1    
    84   42   43 1    
    85   42   44 1    
    86   42  165 1    
    87   43  166 1    
    88   43  167 1    
    89   43  168 1    
    90   44   45 am   BACKBONE|DICT|INTERRES
    91   44  169 1    
    92   45   46 2    
    93   45   47 1    
    94   47   48 1    
    95   47   49 1    
    96   47  170 1    
    97   48  171 1    
    98   48  172 1    
    99   48  173 1    
   100   49   50 am   BACKBONE|DICT|INTERRES
   101   49  174 1    
   102   50   51 2    
   103   50   52 1    
   104   52   53 1    
   105   52   54 1    
   106   52  175 1    
   107   53  176 1    
   108   53  177 1    
   109   53  178 1    
   110   54   55 am   BACKBONE|DICT|INTERRES
   111   54  179 1    
   112   55   56 2    
   113   55   57 1    
   114   57   58 1    
   115   57   59 1    
   116   57  180 1    
   117   58  181 1    
   118   58  182 1    
   119   58  183 1    
   120   59   60 am   BACKBONE|DICT|INTERRES
   121   59  184 1    
   122   60   61 2    
   123   60   62 1    
   124   62   63 1    
   125   62   64 1    
   126   62  185 1    
   127   63  186 1    
   128   63  187 1    
   129   63  188 1    
   130   64   65 am   BACKBONE|DICT|INTERRES
   131   64  189 1    
   132   65   66 2    
   133   67   68 2    
   134   67   69 am   BACKBONE|DICT|INTERRES
   135   69   70 1    
   136   69  190 1    
   137   70   71 1    
   138   70   72 1    
   139   70  191 1    
   140   71  192 1    
   141   71  193 1    
   142   71  194 1    
   143   72   73 2    
   144   72   74 am   BACKBONE|DICT|INTERRES
   145   74   75 1    
   146   74  195 1    
   147   75   76 1    
   148   75   77 1    
   149   75  196 1    
   150   76  197 1    
   151   76  198 1    
   152   76  199 1    
   153   77   78 2    
   154   77   79 am   BACKBONE|DICT|INTERRES
   155   79   80 1    
   156   79  200 1    
   157   80   81 1    
   158   80   82 1    
   159   80  201 1    
   160   81  202 1    
   161   81  203 1    
   162   81  204 1    
   163   82   83 2    
   164   82   84 am   BACKBONE|DICT|INTERRES
   165   84   85 1    
   166   84  205 1    
   167   85   86 1    
   168   85   87 1    
   169   85  206 1    
   170   86  207 1    
   171   86  208 1    
   172   86  209 1    
   173   87   88 2    
   174   87   89 am   BACKBONE|DICT|INTERRES
   175   89   90 1    
   176   89  210 1    
   177   90   91 1    
   178   90   92 1    
   179   90  211 1    
   180   91  212 1    
   181   91  213 1    
   182   91  214 1    
   183   92   93 2    
   184   92   94 am   BACKBONE|DICT|INTERRES
   185   94   95 1    
   186   94  215 1    
   187   95   96 1    
   188   95   97 1    
   189   95  216 1    
   190   96  217 1    
   191   96  218 1    
   192   96  219 1    
   193   97   98 2    
   194   97   99 am   BACKBONE|DICT|INTERRES
   195   99  100 1    
   196   99  220 1    
   197  100  101 1    
   198  100  102 1    
   199  100  221 1    
   200  101  222 1    
   201  101  223 1    
   202  101  224 1    
   203  102  103 2    
   204  102  104 am   BACKBONE|DICT|INTERRES
   205  104  105 1    
   206  104  225 1    
   207  105  106 1    
   208  105  107 1    
   209  105  226 1    
   210  106  227 1    
   211  106  228 1    
   212  106  229 1    
   213  107  108 2    
   214  107  109 am   BACKBONE|DICT|INTERRES
   215  109  110 1    
   216  109  230 1    
   217  110  111 1    
   218  110  112 1    
   219  110  231 1    
   220  111  232 1    
   221  111  233 1    
   222  111  234 1    
   223  112  113 2    
   224  112  114 am   BACKBONE|DICT|INTERRES
   225  114  115 1    
   226  114  235 1    
   227  115  116 1    
   228  115  117 1    
   229  115  236 1    
   230  116  237 1    
   231  116  238 1    
   232  116  239 1    
   233  117  118 2    
   234  117  119 am   BACKBONE|DICT|INTERRES
   235  119  120 1    
   236  119  240 1    
   237  120  121 1    
   238  120  124 1    
   239  120  241 1    
   240  121  122 am   BACKBONE|DICT|INTERRES
   241  121  123 2    
   242  122  242 1    
   243  122  243 1    
   244  124  125 1    
   245  124  244 1    
   246  124  245 1    
   247  125  126 1    
   248  126  246 1    
   249  126  247 1    
@<TRIPOS>SUBSTRUCTURE
     1 UNK         1 GROUP             0       ****    0 ROOT    
