@<TRIPOS>MOLECULE
3R540
247   249    1
SMALL
USER_CHARGES


@<TRIPOS>ATOM
      1 CA          7.0931  -15.9002  -45.2634 C.3       0 UNK        -0.1800 
      2 C           5.7529  -15.3070  -45.6730 C.2       0 UNK         0.5000 
      3 O           4.7395  -15.5857  -45.0346 O.2       0 UNK        -0.5000 
      4 N           5.7426  -14.4845  -46.7304 N.am      1 UNK        -0.5000 
      5 CA          4.5346  -13.8469  -47.2756 C.3       1 UNK         0.1400 
      6 C6          4.7197  -13.3731  -48.7412 C.3       23 UNK        -0.0398 
      7 S7          5.3251  -14.6779  -49.8668 S.3       23 UNK        -0.2404 
      8 C8          4.1000  -14.6508  -51.2210 C.3       23 UNK        -0.0205 
      9 C9          2.9031  -15.5573  -50.9597 C.ar      23 UNK        -0.0193 
     10 C10         1.6002  -15.0438  -50.9635 C.ar      23 UNK        -0.1150 
     11 C11         0.5040  -15.8896  -50.7552 C.ar      23 UNK        -0.0193 
     12 C12         0.7243  -17.2514  -50.5453 C.ar      23 UNK        -0.1150 
     13 C13         2.0144  -17.7821  -50.5499 C.ar      23 UNK        -0.0193 
     14 C14         3.0999  -16.9280  -50.7588 C.ar      23 UNK        -0.1150 
     15 C15         2.2328  -19.2754  -50.3476 C.3       23 UNK        -0.0205 
     16 S16         1.9148  -19.7895  -48.6297 S.3       23 UNK        -0.2404 
     17 C17         0.0972  -19.9472  -48.6081 C.3       23 UNK        -0.0398 
     18 CA         -0.3679  -21.1713  -47.7939 C.3       11 UNK         0.1400 
     19 N          -0.0269  -21.0468  -46.3751 N.am      11 UNK        -0.5000 
     20 C          -0.1190  -22.0351  -45.4760 C.2       10 UNK         0.5000 
     21 O          -0.6406  -23.1229  -45.7267 O.2       10 UNK        -0.5000 
     22 CA          0.4533  -21.7604  -44.0694 C.3       10 UNK         0.1400 
     23 CB          0.9151  -23.0483  -43.3576 C.3       10 UNK        -0.1800 
     24 N           1.5160  -20.7482  -44.0559 N.am      10 UNK        -0.5000 
     25 C           2.7069  -20.7848  -44.6763 C.2       9 UNK         0.5000 
     26 O           3.0983  -21.7369  -45.3519 O.2       9 UNK        -0.5000 
     27 CA          3.6174  -19.5514  -44.5065 C.3       9 UNK         0.1400 
     28 CB          4.0759  -18.9829  -45.8595 C.3       9 UNK        -0.1800 
     29 N           2.9448  -18.4908  -43.7535 N.am      9 UNK        -0.5000 
     30 C           3.2626  -18.1157  -42.5091 C.2       8 UNK         0.5000 
     31 O           4.2210  -18.5638  -41.8784 O.2       8 UNK        -0.5000 
     32 CA          2.3257  -17.0991  -41.8328 C.3       8 UNK         0.1400 
     33 CB          2.7250  -15.6614  -42.1965 C.3       8 UNK        -0.1800 
     34 N           0.9072  -17.3033  -42.1410 N.am      8 UNK        -0.5000 
     35 C           0.1806  -18.3687  -41.7722 C.2       7 UNK         0.5000 
     36 O           0.6572  -19.3587  -41.2184 O.2       7 UNK        -0.5000 
     37 CA         -1.3254  -18.3378  -42.0791 C.3       7 UNK         0.1400 
     38 CB         -2.0673  -17.5038  -41.0234 C.3       7 UNK        -0.1800 
     39 N          -1.5897  -17.7725  -43.3985 N.am      7 UNK        -0.5000 
     40 C          -2.0109  -18.4640  -44.4651 C.2       6 UNK         0.5000 
     41 O          -2.2396  -19.6738  -44.4672 O.2       6 UNK        -0.5000 
     42 CA         -2.1869  -17.6718  -45.7737 C.3       6 UNK         0.1400 
     43 CB         -3.5745  -17.0119  -45.8061 C.3       6 UNK        -0.1800 
     44 N          -1.1858  -16.6303  -45.9844 N.am      6 UNK        -0.5000 
     45 C           0.1462  -16.7498  -45.8991 C.2       5 UNK         0.5000 
     46 O           0.7412  -17.8040  -45.6677 O.2       5 UNK        -0.5000 
     47 CA          0.9292  -15.4307  -46.0430 C.3       5 UNK         0.1400 
     48 CB          1.1063  -15.1380  -47.5369 C.3       5 UNK        -0.1800 
     49 N           0.2896  -14.2605  -45.4178 N.am      5 UNK        -0.5000 
     50 C          -0.2447  -14.1887  -44.1896 C.2       4 UNK         0.5000 
     51 O          -0.2858  -15.1328  -43.3995 O.2       4 UNK        -0.5000 
     52 CA         -0.8210  -12.8322  -43.7725 C.3       4 UNK         0.1400 
     53 CB         -1.9387  -12.9810  -42.7184 C.3       4 UNK        -0.1800 
     54 N           0.2727  -12.0228  -43.2529 N.am      4 UNK        -0.5000 
     55 C           0.2399  -10.7066  -43.0305 C.2       3 UNK         0.5000 
     56 O          -0.7348   -9.9950  -43.2759 O.2       3 UNK        -0.5000 
     57 CA          1.5115  -10.0681  -42.4406 C.3       3 UNK         0.1400 
     58 CB          1.7845  -10.5605  -41.0053 C.3       3 UNK        -0.1800 
     59 N           2.6966  -10.2031  -43.2961 N.am      3 UNK        -0.5000 
     60 C           3.3644  -11.3127  -43.6388 C.2       2 UNK         0.5000 
     61 O           3.0787  -12.4463  -43.2462 O.2       2 UNK        -0.5000 
     62 CA          4.5865  -11.0928  -44.5508 C.3       2 UNK         0.1400 
     63 CB          5.8432  -10.8367  -43.7045 C.3       2 UNK        -0.1800 
     64 N           4.8509  -12.2150  -45.4496 N.am      2 UNK        -0.5000 
     65 C           4.0270  -12.6718  -46.4034 C.2       1 UNK         0.5000 
     66 O           2.9228  -12.1785  -46.6378 O.2       1 UNK        -0.5000 
     67 C          -1.8573  -21.4769  -48.0568 C.2       11 UNK         0.5000 
     68 O          -2.1637  -22.1056  -49.0710 O.2       11 UNK        -0.5000 
     69 N          -2.7605  -21.0735  -47.1518 N.am      12 UNK        -0.5000 
     70 CA         -4.1865  -21.3923  -47.2580 C.3       12 UNK         0.1400 
     71 CB         -5.0122  -20.4059  -46.4257 C.3       12 UNK        -0.1800 
     72 C          -4.4972  -22.8438  -46.8581 C.2       12 UNK         0.5000 
     73 O          -5.4816  -23.3993  -47.3435 O.2       12 UNK        -0.5000 
     74 N          -3.6514  -23.4426  -46.0088 N.am      13 UNK        -0.5000 
     75 CA         -3.7267  -24.8559  -45.6488 C.3       13 UNK         0.1400 
     76 CB         -3.1056  -25.0727  -44.2600 C.3       13 UNK        -0.1800 
     77 C          -3.0312  -25.7238  -46.7092 C.2       13 UNK         0.5000 
     78 O          -3.5814  -26.7506  -47.1047 O.2       13 UNK        -0.5000 
     79 N          -1.8508  -25.2815  -47.1674 N.am      14 UNK        -0.5000 
     80 CA         -1.0135  -25.9780  -48.1452 C.3       14 UNK         0.1400 
     81 CB          0.3495  -25.2776  -48.2461 C.3       14 UNK        -0.1800 
     82 C          -1.6683  -26.0979  -49.5327 C.2       14 UNK         0.5000 
     83 O          -1.6591  -27.1842  -50.1123 O.2       14 UNK        -0.5000 
     84 N          -2.2447  -24.9938  -50.0294 N.am      15 UNK        -0.5000 
     85 CA         -2.9744  -24.9568  -51.3007 C.3       15 UNK         0.1400 
     86 CB         -2.8394  -23.5525  -51.9097 C.3       15 UNK        -0.1800 
     87 C          -4.4632  -25.3228  -51.1403 C.2       15 UNK         0.5000 
     88 O          -5.1744  -25.4120  -52.1442 O.2       15 UNK        -0.5000 
     89 N          -4.9259  -25.4585  -49.8870 N.am      16 UNK        -0.5000 
     90 CA         -6.3030  -25.7322  -49.4490 C.3       16 UNK         0.1400 
     91 CB         -6.7263  -27.1491  -49.8878 C.3       16 UNK        -0.1800 
     92 C          -7.3295  -24.6601  -49.8850 C.2       16 UNK         0.5000 
     93 O          -8.5326  -24.9247  -49.8616 O.2       16 UNK        -0.5000 
     94 N          -6.8299  -23.4928  -50.3247 N.am      17 UNK        -0.5000 
     95 CA         -7.5313  -22.4179  -51.0356 C.3       17 UNK         0.1400 
     96 CB         -8.5585  -21.7300  -50.1138 C.3       17 UNK        -0.1800 
     97 C          -8.1460  -22.8736  -52.3827 C.2       17 UNK         0.5000 
     98 O          -9.0395  -22.2011  -52.8993 O.2       17 UNK        -0.5000 
     99 N          -7.6726  -24.0088  -52.9181 N.am      18 UNK        -0.5000 
    100 CA        -8.2363  -24.7022  -54.0746 C.3       18 UNK         0.1400 
    101 CB        -8.7010  -26.1016  -53.6393 C.3       18 UNK        -0.1800 
    102 C         -7.2162  -24.8038  -55.2160 C.2       18 UNK         0.5000 
    103 O         -7.5744  -24.5472  -56.3662 O.2       18 UNK        -0.5000 
    104 N         -5.9610  -25.1485  -54.8893 N.am      19 UNK        -0.5000 
    105 CA        -4.8470  -25.1713  -55.8436 C.3       19 UNK         0.1400 
    106 CB        -3.6810  -25.9746  -55.2489 C.3       19 UNK        -0.1800 
    107 C         -4.3935  -23.7492  -56.2247 C.2       19 UNK         0.5000 
    108 O         -3.9481  -23.5243  -57.3506 O.2       19 UNK        -0.5000 
    109 N         -4.5553  -22.8177  -55.2810 N.am      20 UNK        -0.5000 
    110 CA        -4.3691  -21.3844  -55.4201 C.3       20 UNK         0.1400 
    111 CB        -2.8755  -21.0227  -55.3471 C.3       20 UNK        -0.1800 
    112 C         -5.1435  -20.7401  -54.2677 C.2       20 UNK         0.5000 
    113 O         -5.0736  -21.2436  -53.1432 O.2       20 UNK        -0.5000 
    114 N         -5.8377  -19.6291  -54.5427 N.am      21 UNK        -0.5000 
    115 CA        -6.6218  -18.8738  -53.5558 C.3       21 UNK         0.1400 
    116 CB        -7.4335  -17.7908  -54.2821 C.3       21 UNK        -0.1800 
    117 C         -5.7660  -18.2490  -52.4341 C.2       21 UNK         0.5000 
    118 O         -6.2791  -17.9974  -51.3437 O.2       21 UNK        -0.5000 
    119 N         -4.4756  -18.0384  -52.7227 N.am      22 UNK        -0.5000 
    120 CA        -3.4355  -17.6419  -51.7639 C.3       22 UNK         0.1400 
    121 C         -3.0960  -18.7373  -50.7055 C.2       22 UNK         0.5000 
    122 N         -3.4030  -20.0114  -50.9313 N.am      22 UNK        -0.7600 
    123 O         -2.5399  -18.4216  -49.6591 O.2       22 UNK        -0.5000 
    124 C124       -2.1521  -17.1589  -52.5091 C.3       23 UNK        -0.0398 
    125 S125       -1.7905  -15.3826  -52.2839 S.3       23 UNK        -0.2404 
    126 C126       -0.9143  -15.3362  -50.6866 C.3       23 UNK        -0.0205 
    127 H127        7.9016  -15.5635  -45.9132 H         1 UNK         0.0600 
    128 H128        7.0511  -16.9883  -45.3084 H         1 UNK         0.0600 
    129 H129        7.3342  -15.6101  -44.2406 H         1 UNK         0.0600 
    130 H130        6.6001  -14.3031  -47.2332 H         1 UNK         0.3000 
    131 H131        3.7552  -14.6075  -47.2747 H         1 UNK         0.0600 
    132 H132        5.4276  -12.5434  -48.7870 H         1 UNK         0.0800 
    133 H133        3.7747  -12.9861  -49.1273 H         1 UNK         0.0800 
    134 H134        4.5910  -14.9931  -52.1331 H         1 UNK         0.0800 
    135 H135        3.7857  -13.6246  -51.4176 H         1 UNK         0.0800 
    136 H136        1.4372  -13.9869  -51.1210 H         1 UNK         0.1150 
    137 H137       -0.1172  -17.8993  -50.3670 H         1 UNK         0.1150 
    138 H138        4.1040  -17.3283  -50.7676 H         1 UNK         0.1150 
    139 H139        1.6045  -19.8412  -51.0367 H         1 UNK         0.0800 
    140 H140        3.2616  -19.5400  -50.5957 H         1 UNK         0.0800 
    141 H141       -0.2563  -20.0352  -49.6367 H         1 UNK         0.0800 
    142 H142       -0.3301  -19.0273  -48.2064 H         1 UNK         0.0800 
    143 H143        0.1829  -22.0346  -48.1694 H         1 UNK         0.0600 
    144 H144        0.4130  -20.1793  -46.0956 H         1 UNK         0.3000 
    145 H145       -0.3679  -21.3440  -43.4854 H         1 UNK         0.0600 
    146 H146        1.3106  -22.8297  -42.3656 H         1 UNK         0.0600 
    147 H147        0.0851  -23.7436  -43.2279 H         1 UNK         0.0600 
    148 H148        1.6898  -23.5676  -43.9225 H         1 UNK         0.0600 
    149 H149        1.3245  -19.9306  -43.4949 H         1 UNK         0.3000 
    150 H150        4.5053  -19.9007  -43.9763 H         1 UNK         0.0600 
    151 H151        4.4733  -19.7618  -46.5110 H         1 UNK         0.0600 
    152 H152        4.8668  -18.2478  -45.7208 H         1 UNK         0.0600 
    153 H153        3.2597  -18.4914  -46.3878 H         1 UNK         0.0600 
    154 H154        2.1470  -18.0654  -44.2147 H         1 UNK         0.3000 
    155 H155        2.4449  -17.2155  -40.7536 H         1 UNK         0.0600 
    156 H156        3.7728  -15.4717  -41.9600 H         1 UNK         0.0600 
    157 H157        2.1298  -14.9322  -41.6462 H         1 UNK         0.0600 
    158 H158        2.5924  -15.4632  -43.2602 H         1 UNK         0.0600 
    159 H159        0.4381  -16.5212  -42.5946 H         1 UNK         0.3000 
    160 H160       -1.6975  -19.3628  -42.0218 H         1 UNK         0.0600 
    161 H161       -1.7488  -16.4604  -41.0359 H         1 UNK         0.0600 
    162 H162       -1.8873  -17.8920  -40.0202 H         1 UNK         0.0600 
    163 H163       -3.1439  -17.5258  -41.1926 H         1 UNK         0.0600 
    164 H164       -1.3682  -16.7893  -43.5157 H         1 UNK         0.3000 
    165 H165       -2.1148  -18.3751  -46.6041 H         1 UNK         0.0600 
    166 H166       -3.8246  -16.6733  -46.8119 H         1 UNK         0.0600 
    167 H167       -4.3563  -17.7008  -45.4886 H         1 UNK         0.0600 
    168 H168       -3.6246  -16.1509  -45.1385 H         1 UNK         0.0600 
    169 H169       -1.5498  -15.7085  -46.1727 H         1 UNK         0.3000 
    170 H170        1.9113  -15.5593  -45.5853 H         1 UNK         0.0600 
    171 H171        1.7185  -15.9058  -48.0120 H         1 UNK         0.0600 
    172 H172        0.1448  -15.1170  -48.0488 H         1 UNK         0.0600 
    173 H173        1.5804  -14.1759  -47.7182 H         1 UNK         0.0600 
    174 H174        0.3123  -13.4137  -45.9678 H         1 UNK         0.3000 
    175 H175       -1.2369  -12.3491  -44.6587 H         1 UNK         0.0600 
    176 H176       -2.7177  -13.6593  -43.0688 H         1 UNK         0.0600 
    177 H177       -1.5551  -13.3791  -41.7784 H         1 UNK         0.0600 
    178 H178       -2.4173  -12.0259  -42.5046 H         1 UNK         0.0600 
    179 H179        1.1551  -12.5053  -43.0964 H         1 UNK         0.3000 
    180 H180        1.3188   -8.9961  -42.3771 H         1 UNK         0.0600 
    181 H181        1.9888  -11.6304  -40.9656 H         1 UNK         0.0600 
    182 H182        0.9247  -10.3718  -40.3615 H         1 UNK         0.0600 
    183 H183        2.6376  -10.0417  -40.5683 H         1 UNK         0.0600 
    184 H184        3.0189   -9.3310  -43.6925 H         1 UNK         0.3000 
    185 H185        4.4008  -10.2146  -45.1726 H         1 UNK         0.0600 
    186 H186        5.7018   -9.9846  -43.0385 H         1 UNK         0.0600 
    187 H187        6.0908  -11.6993  -43.0843 H         1 UNK         0.0600 
    188 H188        6.7060  -10.6154  -44.3330 H         1 UNK         0.0600 
    189 H189        5.7209  -12.7061  -45.3109 H         1 UNK         0.3000 
    190 H190       -2.4521  -20.6050  -46.3071 H         1 UNK         0.3000 
    191 H191       -4.4971  -21.2752  -48.2986 H         1 UNK         0.0600 
    192 H192       -4.6877  -20.3765  -45.3856 H         1 UNK         0.0600 
    193 H193       -6.0694  -20.6747  -46.4336 H         1 UNK         0.0600 
    194 H194       -4.9366  -19.4038  -46.8434 H         1 UNK         0.0600 
    195 H195       -2.8304  -22.9395  -45.6968 H         1 UNK         0.3000 
    196 H196       -4.7745  -25.1598  -45.5952 H         1 UNK         0.0600 
    197 H197       -3.1931  -26.1159  -43.9552 H         1 UNK         0.0600 
    198 H198       -3.6108  -24.4703  -43.5054 H         1 UNK         0.0600 
    199 H199       -2.0469  -24.8155  -44.2395 H         1 UNK         0.0600 
    200 H200       -1.4517  -24.4471  -46.7438 H         1 UNK         0.3000 
    201 H201       -0.8447  -26.9891  -47.7689 H         1 UNK         0.0600 
    202 H202        0.8300  -25.2008  -47.2704 H         1 UNK         0.0600 
    203 H203        0.2549  -24.2720  -48.6539 H         1 UNK         0.0600 
    204 H204        1.0242  -25.8320  -48.8993 H         1 UNK         0.0600 
    205 H205       -2.1900  -24.1208  -49.5148 H         1 UNK         0.3000 
    206 H206       -2.5305  -25.6713  -51.9971 H         1 UNK         0.0600 
    207 H207       -1.7968  -23.2388  -51.9660 H         1 UNK         0.0600 
    208 H208       -3.2396  -23.5243  -52.9220 H         1 UNK         0.0600 
    209 H209       -3.3842  -22.8093  -51.3279 H         1 UNK         0.0600 
    210 H210       -4.2540  -25.3620  -49.1389 H         1 UNK         0.3000 
    211 H211       -6.2877  -25.7173  -48.3588 H         1 UNK         0.0600 
    212 H212       -6.8256  -27.2258  -50.9706 H         1 UNK         0.0600 
    213 H213       -7.6867  -27.4257  -49.4515 H         1 UNK         0.0600 
    214 H214       -5.9992  -27.8938  -49.5638 H         1 UNK         0.0600 
    215 H215       -5.8278  -23.3863  -50.2668 H         1 UNK         0.3000 
    216 H216       -6.7731  -21.6745  -51.2792 H         1 UNK         0.0600 
    217 H217       -8.9593  -20.8291  -50.5795 H         1 UNK         0.0600 
    218 H218       -8.1013  -21.4296  -49.1708 H         1 UNK         0.0600 
    219 H219       -9.4013  -22.3831  -49.8864 H         1 UNK         0.0600 
    220 H220       -6.9025  -24.4741  -52.4498 H         1 UNK         0.3000 
    221 H221       -9.1052  -24.1631  -54.4580 H         1 UNK         0.0600 
    222 H222       -7.8757  -26.6983  -53.2487 H         1 UNK         0.0600 
    223 H223       -9.4621  -26.0369  -52.8610 H         1 UNK         0.0600 
    224 H224       -9.1362  -26.6485  -54.4769 H         1 UNK         0.0600 
    225 H225       -5.7315  -25.3498  -53.9192 H         1 UNK         0.3000 
    226 H226       -5.1775  -25.6751  -56.7546 H         1 UNK         0.0600 
    227 H227       -3.9898  -26.9885  -54.9938 H         1 UNK         0.0600 
    228 H228       -2.8591  -26.0533  -55.9617 H         1 UNK         0.0600 
    229 H229       -3.2878  -25.5073  -54.3468 H         1 UNK         0.0600 
    230 H230       -4.9427  -23.0916  -54.3871 H         1 UNK         0.3000 
    231 H231       -4.7881  -21.0554  -56.3732 H         1 UNK         0.0600 
    232 H232       -2.3145  -21.4878  -56.1578 H         1 UNK         0.0600 
    233 H233       -2.4297  -21.3452  -54.4051 H         1 UNK         0.0600 
    234 H234       -2.7297  -19.9451  -55.4287 H         1 UNK         0.0600 
    235 H235       -5.8436  -19.2723  -55.4877 H         1 UNK         0.3000 
    236 H236       -7.3215  -19.5667  -53.0830 H         1 UNK         0.0600 
    237 H237       -8.0483  -17.2263  -53.5797 H         1 UNK         0.0600 
    238 H238       -6.7860  -17.0796  -54.7965 H         1 UNK         0.0600 
    239 H239       -8.1059  -18.2294  -55.0195 H         1 UNK         0.0600 
    240 H240       -4.1610  -18.2710  -53.6518 H         1 UNK         0.3000 
    241 H241       -3.8455  -16.8077  -51.1914 H         1 UNK         0.0600 
    242 H242       -3.1253  -20.7075  -50.2527 H         1 UNK         0.3800 
    243 H243       -3.9064  -20.2988  -51.7620 H         1 UNK         0.3800 
    244 H244       -1.2713  -17.7473  -52.2586 H         1 UNK         0.0800 
    245 H245       -2.2560  -17.3085  -53.5847 H         1 UNK         0.0800 
    246 H246       -0.8830  -14.3016  -50.3422 H         1 UNK         0.0800 
    247 H247       -1.4935  -15.8806  -49.9391 H         1 UNK         0.0800 
@<TRIPOS>BOND
     1    1    2 1    
     2    1  127 1    
     3    1  128 1    
     4    1  129 1    
     5    2    3 2    
     6    2    4 am   BACKBONE|DICT|INTERRES
     7    4    5 1    
     8    4  130 1    
     9    5    6 1    
    10    5   65 1    
    11    5  131 1    
    12    6    7 1    
    13    6  132 1    
    14    6  133 1    
    15    7    8 1    
    16    8    9 1    
    17    8  134 1    
    18    8  135 1    
    19    9   10 ar   
    20    9   14 ar   
    21   10   11 ar   
    22   10  136 1    
    23   11   12 ar   
    24   11  126 1    
    25   12   13 ar   
    26   12  137 1    
    27   13   14 ar   
    28   13   15 1    
    29   14  138 1    
    30   15   16 1    
    31   15  139 1    
    32   15  140 1    
    33   16   17 1    
    34   17   18 1    
    35   17  141 1    
    36   17  142 1    
    37   18   19 1    
    38   18   67 1    
    39   18  143 1    
    40   19   20 am   BACKBONE|DICT|INTERRES
    41   19  144 1    
    42   20   21 2    
    43   20   22 1    
    44   22   23 1    
    45   22   24 1    
    46   22  145 1    
    47   23  146 1    
    48   23  147 1    
    49   23  148 1    
    50   24   25 am   BACKBONE|DICT|INTERRES
    51   24  149 1    
    52   25   26 2    
    53   25   27 1    
    54   27   28 1    
    55   27   29 1    
    56   27  150 1    
    57   28  151 1    
    58   28  152 1    
    59   28  153 1    
    60   29   30 am   BACKBONE|DICT|INTERRES
    61   29  154 1    
    62   30   31 2    
    63   30   32 1    
    64   32   33 1    
    65   32   34 1    
    66   32  155 1    
    67   33  156 1    
    68   33  157 1    
    69   33  158 1    
    70   34   35 am   BACKBONE|DICT|INTERRES
    71   34  159 1    
    72   35   36 2    
    73   35   37 1    
    74   37   38 1    
    75   37   39 1    
    76   37  160 1    
    77   38  161 1    
    78   38  162 1    
    79   38  163 1    
    80   39   40 am   BACKBONE|DICT|INTERRES
    81   39  164 1    
    82   40   41 2    
    83   40   42 1    
    84   42   43 1    
    85   42   44 1    
    86   42  165 1    
    87   43  166 1    
    88   43  167 1    
    89   43  168 1    
    90   44   45 am   BACKBONE|DICT|INTERRES
    91   44  169 1    
    92   45   46 2    
    93   45   47 1    
    94   47   48 1    
    95   47   49 1    
    96   47  170 1    
    97   48  171 1    
    98   48  172 1    
    99   48  173 1    
   100   49   50 am   BACKBONE|DICT|INTERRES
   101   49  174 1    
   102   50   51 2    
   103   50   52 1    
   104   52   53 1    
   105   52   54 1    
   106   52  175 1    
   107   53  176 1    
   108   53  177 1    
   109   53  178 1    
   110   54   55 am   BACKBONE|DICT|INTERRES
   111   54  179 1    
   112   55   56 2    
   113   55   57 1    
   114   57   58 1    
   115   57   59 1    
   116   57  180 1    
   117   58  181 1    
   118   58  182 1    
   119   58  183 1    
   120   59   60 am   BACKBONE|DICT|INTERRES
   121   59  184 1    
   122   60   61 2    
   123   60   62 1    
   124   62   63 1    
   125   62   64 1    
   126   62  185 1    
   127   63  186 1    
   128   63  187 1    
   129   63  188 1    
   130   64   65 am   BACKBONE|DICT|INTERRES
   131   64  189 1    
   132   65   66 2    
   133   67   68 2    
   134   67   69 am   BACKBONE|DICT|INTERRES
   135   69   70 1    
   136   69  190 1    
   137   70   71 1    
   138   70   72 1    
   139   70  191 1    
   140   71  192 1    
   141   71  193 1    
   142   71  194 1    
   143   72   73 2    
   144   72   74 am   BACKBONE|DICT|INTERRES
   145   74   75 1    
   146   74  195 1    
   147   75   76 1    
   148   75   77 1    
   149   75  196 1    
   150   76  197 1    
   151   76  198 1    
   152   76  199 1    
   153   77   78 2    
   154   77   79 am   BACKBONE|DICT|INTERRES
   155   79   80 1    
   156   79  200 1    
   157   80   81 1    
   158   80   82 1    
   159   80  201 1    
   160   81  202 1    
   161   81  203 1    
   162   81  204 1    
   163   82   83 2    
   164   82   84 am   BACKBONE|DICT|INTERRES
   165   84   85 1    
   166   84  205 1    
   167   85   86 1    
   168   85   87 1    
   169   85  206 1    
   170   86  207 1    
   171   86  208 1    
   172   86  209 1    
   173   87   88 2    
   174   87   89 am   BACKBONE|DICT|INTERRES
   175   89   90 1    
   176   89  210 1    
   177   90   91 1    
   178   90   92 1    
   179   90  211 1    
   180   91  212 1    
   181   91  213 1    
   182   91  214 1    
   183   92   93 2    
   184   92   94 am   BACKBONE|DICT|INTERRES
   185   94   95 1    
   186   94  215 1    
   187   95   96 1    
   188   95   97 1    
   189   95  216 1    
   190   96  217 1    
   191   96  218 1    
   192   96  219 1    
   193   97   98 2    
   194   97   99 am   BACKBONE|DICT|INTERRES
   195   99  100 1    
   196   99  220 1    
   197  100  101 1    
   198  100  102 1    
   199  100  221 1    
   200  101  222 1    
   201  101  223 1    
   202  101  224 1    
   203  102  103 2    
   204  102  104 am   BACKBONE|DICT|INTERRES
   205  104  105 1    
   206  104  225 1    
   207  105  106 1    
   208  105  107 1    
   209  105  226 1    
   210  106  227 1    
   211  106  228 1    
   212  106  229 1    
   213  107  108 2    
   214  107  109 am   BACKBONE|DICT|INTERRES
   215  109  110 1    
   216  109  230 1    
   217  110  111 1    
   218  110  112 1    
   219  110  231 1    
   220  111  232 1    
   221  111  233 1    
   222  111  234 1    
   223  112  113 2    
   224  112  114 am   BACKBONE|DICT|INTERRES
   225  114  115 1    
   226  114  235 1    
   227  115  116 1    
   228  115  117 1    
   229  115  236 1    
   230  116  237 1    
   231  116  238 1    
   232  116  239 1    
   233  117  118 2    
   234  117  119 am   BACKBONE|DICT|INTERRES
   235  119  120 1    
   236  119  240 1    
   237  120  121 1    
   238  120  124 1    
   239  120  241 1    
   240  121  122 am   BACKBONE|DICT|INTERRES
   241  121  123 2    
   242  122  242 1    
   243  122  243 1    
   244  124  125 1    
   245  124  244 1    
   246  124  245 1    
   247  125  126 1    
   248  126  246 1    
   249  126  247 1    
@<TRIPOS>SUBSTRUCTURE
     1 UNK         1 GROUP             0       ****    0 ROOT    
