@<TRIPOS>MOLECULE
3R540
247   249    1
SMALL
USER_CHARGES


@<TRIPOS>ATOM
      1 CA         -2.2551  -13.5812  -52.1057 C.3       0 UNK        -0.1800 
      2 C          -1.0128  -13.0052  -51.4393 C.2       0 UNK         0.5000 
      3 O          -0.4820  -11.9927  -51.8964 O.2       0 UNK        -0.5000 
      4 N          -0.5480  -13.6506  -50.3646 N.am      1 UNK        -0.5000 
      5 CA          0.5982  -13.2235  -49.5592 C.3       1 UNK         0.1400 
      6 C6          1.2308  -14.4024  -48.7760 C.3       23 UNK        -0.0398 
      7 S7          1.9031  -15.7269  -49.8351 S.3       23 UNK        -0.2404 
      8 C8          0.4292  -16.7689  -50.0511 C.3       23 UNK        -0.0205 
      9 C9          0.7777  -18.1973  -50.4319 C.ar      23 UNK        -0.0193 
     10 C10         1.2663  -18.4923  -51.7093 C.ar      23 UNK        -0.1150 
     11 C11         1.5120  -19.8171  -52.0842 C.ar      23 UNK        -0.0193 
     12 C12         1.2499  -20.8469  -51.1753 C.ar      23 UNK        -0.1150 
     13 C13         0.7577  -20.5631  -49.8994 C.ar      23 UNK        -0.0193 
     14 C14         0.5432  -19.2354  -49.5253 C.ar      23 UNK        -0.1150 
     15 C15         0.4175  -21.6924  -48.9432 C.3       23 UNK        -0.0205 
     16 S16         1.9013  -22.3909  -48.1615 S.3       23 UNK        -0.2404 
     17 C17         1.1030  -23.6900  -47.1681 C.3       23 UNK        -0.0398 
     18 CA          1.9930  -24.2549  -46.0362 C.3       11 UNK         0.1400 
     19 N           2.3860  -23.2193  -45.0735 N.am      11 UNK        -0.5000 
     20 C           3.4746  -23.2591  -44.2943 C.2       10 UNK         0.5000 
     21 O           4.3234  -24.1490  -44.3521 O.2       10 UNK        -0.5000 
     22 CA          3.6056  -22.1542  -43.2265 C.3       10 UNK         0.1400 
     23 CB          4.3949  -20.9559  -43.7739 C.3       10 UNK        -0.1800 
     24 N           2.3123  -21.7023  -42.7000 N.am      10 UNK        -0.5000 
     25 C           1.4581  -22.4798  -42.0169 C.2       9 UNK         0.5000 
     26 O           1.6885  -23.6548  -41.7324 O.2       9 UNK        -0.5000 
     27 CA          0.0980  -21.8717  -41.6312 C.3       9 UNK         0.1400 
     28 CB          0.2218  -21.0319  -40.3518 C.3       9 UNK        -0.1800 
     29 N          -0.4884  -21.0624  -42.6990 N.am      9 UNK        -0.5000 
     30 C          -0.8740  -21.5294  -43.8952 C.2       8 UNK         0.5000 
     31 O          -0.8225  -22.7165  -44.2205 O.2       8 UNK        -0.5000 
     32 CA         -1.3542  -20.4829  -44.9186 C.3       8 UNK         0.1400 
     33 CB         -2.7944  -20.0504  -44.6108 C.3       8 UNK        -0.1800 
     34 N          -0.4833  -19.3061  -44.9681 N.am      8 UNK        -0.5000 
     35 C           0.8254  -19.3473  -45.2614 C.2       7 UNK         0.5000 
     36 O           1.4199  -20.3743  -45.5800 O.2       7 UNK        -0.5000 
     37 CA          1.6132  -18.0375  -45.1039 C.3       7 UNK         0.1400 
     38 CB          1.4444  -17.1422  -46.3397 C.3       7 UNK        -0.1800 
     39 N           1.2134  -17.3230  -43.8896 N.am      7 UNK        -0.5000 
     40 C           1.5376  -17.7292  -42.6518 C.2       6 UNK         0.5000 
     41 O           2.2727  -18.6897  -42.4243 O.2       6 UNK        -0.5000 
     42 CA          0.8921  -16.9851  -41.4678 C.3       6 UNK         0.1400 
     43 CB          1.7780  -15.8336  -40.9736 C.3       6 UNK        -0.1800 
     44 N          -0.4468  -16.4874  -41.7857 N.am      6 UNK        -0.5000 
     45 C          -1.5159  -17.2879  -41.9049 C.2       5 UNK         0.5000 
     46 O          -1.4724  -18.5031  -41.7174 O.2       5 UNK        -0.5000 
     47 CA         -2.8452  -16.6467  -42.3458 C.3       5 UNK         0.1400 
     48 CB         -3.6767  -16.2412  -41.1203 C.3       5 UNK        -0.1800 
     49 N          -2.6865  -15.4868  -43.2231 N.am      5 UNK        -0.5000 
     50 C          -2.0802  -15.4902  -44.4177 C.2       4 UNK         0.5000 
     51 O          -1.5676  -16.4937  -44.9162 O.2       4 UNK        -0.5000 
     52 CA         -2.0058  -14.1449  -45.1705 C.3       4 UNK         0.1400 
     53 CB         -3.0192  -13.0944  -44.6676 C.3       4 UNK        -0.1800 
     54 N          -0.6614  -13.5587  -45.1807 N.am      4 UNK        -0.5000 
     55 C           0.1639  -13.3602  -44.1385 C.2       3 UNK         0.5000 
     56 O          -0.0724  -13.7438  -42.9922 O.2       3 UNK        -0.5000 
     57 CA          1.4784  -12.5962  -44.4118 C.3       3 UNK         0.1400 
     58 CB          2.6697  -13.5634  -44.4850 C.3       3 UNK        -0.1800 
     59 N           1.4554  -11.8092  -45.6450 N.am      3 UNK        -0.5000 
     60 C           0.7568  -10.6823  -45.8431 C.2       2 UNK         0.5000 
     61 O           0.1038  -10.1163  -44.9664 O.2       2 UNK        -0.5000 
     62 CA          0.7687  -10.1154  -47.2794 C.3       2 UNK         0.1400 
     63 CB          1.8436   -9.0270  -47.4205 C.3       2 UNK        -0.1800 
     64 N           0.9868  -11.1442  -48.3059 N.am      2 UNK        -0.5000 
     65 C           0.1369  -12.1489  -48.5589 C.2       1 UNK         0.5000 
     66 O          -0.9377  -12.2949  -47.9713 O.2       1 UNK        -0.5000 
     67 C           1.2944  -25.4670  -45.3686 C.2       11 UNK         0.5000 
     68 O           0.8577  -26.3657  -46.0878 O.2       11 UNK        -0.5000 
     69 N           1.1820  -25.4807  -44.0311 N.am      12 UNK        -0.5000 
     70 CA          0.5328  -26.5019  -43.2025 C.3       12 UNK         0.1400 
     71 CB          1.2224  -27.8754  -43.3505 C.3       12 UNK        -0.1800 
     72 C          -0.9949  -26.5504  -43.4087 C.2       12 UNK         0.5000 
     73 O          -1.5709  -27.6312  -43.5441 O.2       12 UNK        -0.5000 
     74 N          -1.6174  -25.3623  -43.4067 N.am      13 UNK        -0.5000 
     75 CA         -3.0586  -25.1070  -43.5041 C.3       13 UNK         0.1400 
     76 CB         -3.8300  -25.7568  -42.3356 C.3       13 UNK        -0.1800 
     77 C          -3.6425  -25.4448  -44.8905 C.2       13 UNK         0.5000 
     78 O          -4.7793  -25.9085  -44.9914 O.2       13 UNK        -0.5000 
     79 N          -2.8622  -25.1671  -45.9438 N.am      14 UNK        -0.5000 
     80 CA         -3.2595  -25.3365  -47.3472 C.3       14 UNK         0.1400 
     81 CB         -1.9940  -25.4851  -48.2047 C.3       14 UNK        -0.1800 
     82 C          -4.1259  -24.1775  -47.8872 C.2       14 UNK         0.5000 
     83 O          -4.5838  -24.2620  -49.0266 O.2       14 UNK        -0.5000 
     84 N          -4.3079  -23.1284  -47.0698 N.am      15 UNK        -0.5000 
     85 CA         -4.9009  -21.8169  -47.3546 C.3       15 UNK         0.1400 
     86 CB         -6.2597  -21.9150  -48.0757 C.3       15 UNK        -0.1800 
     87 C          -3.9232  -20.8961  -48.1062 C.2       15 UNK         0.5000 
     88 O          -3.0538  -21.3640  -48.8466 O.2       15 UNK        -0.5000 
     89 N          -4.0798  -19.5838  -47.8878 N.am      16 UNK        -0.5000 
     90 CA         -3.2678  -18.5360  -48.5042 C.3       16 UNK         0.1400 
     91 CB         -3.6167  -17.1764  -47.8804 C.3       16 UNK        -0.1800 
     92 C          -3.4758  -18.5232  -50.0266 C.2       16 UNK         0.5000 
     93 O          -4.6119  -18.3768  -50.4819 O.2       16 UNK        -0.5000 
     94 N          -2.3866  -18.7547  -50.7711 N.am      17 UNK        -0.5000 
     95 CA         -2.3337  -18.9114  -52.2281 C.3       17 UNK         0.1400 
     96 CB         -2.6104  -17.5621  -52.9201 C.3       17 UNK        -0.1800 
     97 C          -3.2307  -20.0563  -52.7427 C.2       17 UNK         0.5000 
     98 O          -3.7893  -19.9561  -53.8364 O.2       17 UNK        -0.5000 
     99 N          -3.3942  -21.1027  -51.9168 N.am      18 UNK        -0.5000 
    100 CA        -4.2862  -22.2509  -52.1130 C.3       18 UNK         0.1400 
    101 CB        -3.8002  -23.1146  -53.2959 C.3       18 UNK        -0.1800 
    102 C         -5.7763  -21.8536  -52.2338 C.2       18 UNK         0.5000 
    103 O         -6.5490  -22.5695  -52.8725 O.2       18 UNK        -0.5000 
    104 N         -6.1414  -20.7033  -51.6414 N.am      19 UNK        -0.5000 
    105 CA        -7.4337  -20.0154  -51.7425 C.3       19 UNK         0.1400 
    106 CB        -8.5722  -20.8626  -51.1356 C.3       19 UNK        -0.1800 
    107 C         -7.7470  -19.5151  -53.1717 C.2       19 UNK         0.5000 
    108 O         -8.9170  -19.3440  -53.5195 O.2       19 UNK        -0.5000 
    109 N         -6.6999  -19.2800  -53.9712 N.am      20 UNK        -0.5000 
    110 CA        -6.7620  -18.8052  -55.3468 C.3       20 UNK         0.1400 
    111 CB        -6.7574  -20.0181  -56.3015 C.3       20 UNK        -0.1800 
    112 C         -5.6060  -17.8120  -55.5610 C.2       20 UNK         0.5000 
    113 O         -5.5394  -16.8096  -54.8475 O.2       20 UNK        -0.5000 
    114 N         -4.7201  -18.1001  -56.5214 N.am      21 UNK        -0.5000 
    115 CA        -3.5344  -17.3070  -56.8555 C.3       21 UNK         0.1400 
    116 CB        -3.7839  -16.5729  -58.1857 C.3       21 UNK        -0.1800 
    117 C         -2.2651  -18.1833  -56.9008 C.2       21 UNK         0.5000 
    118 O         -1.2871  -17.8065  -57.5475 O.2       21 UNK        -0.5000 
    119 N         -2.2989  -19.3376  -56.2186 N.am      22 UNK        -0.5000 
    120 CA        -1.2209  -20.3388  -56.1423 C.3       22 UNK         0.1400 
    121 C         -0.8960  -21.0508  -57.4960 C.2       22 UNK         0.5000 
    122 N         -1.8134  -21.0822  -58.4554 N.am      22 UNK        -0.7600 
    123 O          0.1853  -21.6011  -57.6844 O.2       22 UNK        -0.5000 
    124 C124        0.0333  -19.7982  -55.3933 C.3       23 UNK        -0.0398 
    125 S125        0.9075  -21.1080  -54.4712 S.3       23 UNK        -0.2404 
    126 C126        2.0766  -20.1468  -53.4584 C.3       23 UNK        -0.0205 
    127 H127       -2.0217  -13.9032  -53.1206 H         1 UNK         0.0600 
    128 H128       -3.0382  -12.8249  -52.1582 H         1 UNK         0.0600 
    129 H129       -2.6490  -14.4389  -51.5595 H         1 UNK         0.0600 
    130 H130       -1.0694  -14.4316  -49.9988 H         1 UNK         0.3000 
    131 H131        1.3583  -12.7956  -50.2169 H         1 UNK         0.0600 
    132 H132        0.5170  -14.8306  -48.0700 H         1 UNK         0.0800 
    133 H133        2.0638  -14.0429  -48.1692 H         1 UNK         0.0800 
    134 H134       -0.1673  -16.7621  -49.1380 H         1 UNK         0.0800 
    135 H135       -0.1983  -16.3419  -50.8335 H         1 UNK         0.0800 
    136 H136        1.4490  -17.6892  -52.4095 H         1 UNK         0.1150 
    137 H137        1.4254  -21.8739  -51.4642 H         1 UNK         0.1150 
    138 H138        0.1678  -19.0169  -48.5355 H         1 UNK         0.1150 
    139 H139       -0.2637  -21.3379  -48.1681 H         1 UNK         0.0800 
    140 H140       -0.1153  -22.4765  -49.4837 H         1 UNK         0.0800 
    141 H141        0.1722  -23.3001  -46.7526 H         1 UNK         0.0800 
    142 H142        0.8300  -24.4820  -47.8668 H         1 UNK         0.0800 
    143 H143        2.9000  -24.6471  -46.5009 H         1 UNK         0.0600 
    144 H144        1.7792  -22.4088  -45.0131 H         1 UNK         0.3000 
    145 H145        4.1702  -22.5738  -42.3913 H         1 UNK         0.0600 
    146 H146        4.5488  -20.1993  -43.0045 H         1 UNK         0.0600 
    147 H147        3.8838  -20.4836  -44.6122 H         1 UNK         0.0600 
    148 H148        5.3796  -21.2663  -44.1253 H         1 UNK         0.0600 
    149 H149        2.0722  -20.7307  -42.8621 H         1 UNK         0.3000 
    150 H150       -0.5878  -22.6970  -41.4281 H         1 UNK         0.0600 
    151 H151        0.8810  -20.1758  -40.4945 H         1 UNK         0.0600 
    152 H152       -0.7501  -20.6566  -40.0309 H         1 UNK         0.0600 
    153 H153        0.6276  -21.6261  -39.5322 H         1 UNK         0.0600 
    154 H154       -0.6329  -20.0786  -42.4911 H         1 UNK         0.3000 
    155 H155       -1.3385  -20.9467  -45.9069 H         1 UNK         0.0600 
    156 H156       -3.4769  -20.8963  -44.6873 H         1 UNK         0.0600 
    157 H157       -3.1358  -19.2808  -45.3016 H         1 UNK         0.0600 
    158 H158       -2.8920  -19.6535  -43.6016 H         1 UNK         0.0600 
    159 H159       -0.9012  -18.4076  -44.7494 H         1 UNK         0.3000 
    160 H160        2.6722  -18.2908  -45.0206 H         1 UNK         0.0600 
    161 H161        0.4045  -16.8709  -46.5160 H         1 UNK         0.0600 
    162 H162        1.8042  -17.6522  -47.2339 H         1 UNK         0.0600 
    163 H163        2.0220  -16.2252  -46.2447 H         1 UNK         0.0600 
    164 H164        0.5383  -16.5789  -43.9991 H         1 UNK         0.3000 
    165 H165        0.8039  -17.6999  -40.6469 H         1 UNK         0.0600 
    166 H166        1.3725  -15.3910  -40.0638 H         1 UNK         0.0600 
    167 H167        2.7848  -16.1849  -40.7439 H         1 UNK         0.0600 
    168 H168        1.8665  -15.0427  -41.7147 H         1 UNK         0.0600 
    169 H169       -0.5332  -15.4998  -42.0047 H         1 UNK         0.3000 
    170 H170       -3.4044  -17.4013  -42.9015 H         1 UNK         0.0600 
    171 H171       -3.8355  -17.0925  -40.4568 H         1 UNK         0.0600 
    172 H172       -3.1833  -15.4601  -40.5404 H         1 UNK         0.0600 
    173 H173       -4.6597  -15.8726  -41.4141 H         1 UNK         0.0600 
    174 H174       -3.0456  -14.6096  -42.8761 H         1 UNK         0.3000 
    175 H175       -2.2528  -14.3687  -46.2094 H         1 UNK         0.0600 
    176 H176       -2.7915  -12.7520  -43.6574 H         1 UNK         0.0600 
    177 H177       -3.0167  -12.2179  -45.3162 H         1 UNK         0.0600 
    178 H178       -4.0358  -13.4899  -44.6699 H         1 UNK         0.0600 
    179 H179       -0.3864  -13.1725  -46.0740 H         1 UNK         0.3000 
    180 H180        1.6385  -11.9172  -43.5717 H         1 UNK         0.0600 
    181 H181        2.7259  -14.2002  -43.6039 H         1 UNK         0.0600 
    182 H182        3.6121  -13.0188  -44.5463 H         1 UNK         0.0600 
    183 H183        2.6058  -14.2137  -45.3561 H         1 UNK         0.0600 
    184 H184        1.9927  -12.1709  -46.4178 H         1 UNK         0.3000 
    185 H185       -0.2070   -9.6593  -47.4600 H         1 UNK         0.0600 
    186 H186        1.6943   -8.2333  -46.6871 H         1 UNK         0.0600 
    187 H187        2.8464   -9.4286  -47.2697 H         1 UNK         0.0600 
    188 H188        1.8106   -8.5652  -48.4074 H         1 UNK         0.0600 
    189 H189        1.8510  -11.0827  -48.8258 H         1 UNK         0.3000 
    190 H190        1.5545  -24.6931  -43.5129 H         1 UNK         0.3000 
    191 H191        0.6803  -26.1844  -42.1694 H         1 UNK         0.0600 
    192 H192        0.8355  -28.5841  -42.6175 H         1 UNK         0.0600 
    193 H193        2.2972  -27.7960  -43.1878 H         1 UNK         0.0600 
    194 H194        1.0628  -28.3112  -44.3368 H         1 UNK         0.0600 
    195 H195       -1.0444  -24.5245  -43.3917 H         1 UNK         0.3000 
    196 H196       -3.1729  -24.0277  -43.3949 H         1 UNK         0.0600 
    197 H197       -3.8394  -26.8446  -42.4069 H         1 UNK         0.0600 
    198 H198       -3.3918  -25.4863  -41.3749 H         1 UNK         0.0600 
    199 H199       -4.8685  -25.4243  -42.3217 H         1 UNK         0.0600 
    200 H200       -1.9365  -24.8026  -45.7699 H         1 UNK         0.3000 
    201 H201       -3.8419  -26.2557  -47.4390 H         1 UNK         0.0600 
    202 H202       -2.2479  -25.7736  -49.2254 H         1 UNK         0.0600 
    203 H203       -1.3274  -26.2511  -47.8082 H         1 UNK         0.0600 
    204 H204       -1.4451  -24.5460  -48.2634 H         1 UNK         0.0600 
    205 H205       -3.8645  -23.2019  -46.1671 H         1 UNK         0.3000 
    206 H206       -5.0874  -21.3679  -46.3785 H         1 UNK         0.0600 
    207 H207       -6.9293  -22.6087  -47.5673 H         1 UNK         0.0600 
    208 H208       -6.7555  -20.9441  -48.1006 H         1 UNK         0.0600 
    209 H209       -6.1545  -22.2444  -49.1090 H         1 UNK         0.0600 
    210 H210       -4.8410  -19.2690  -47.3045 H         1 UNK         0.3000 
    211 H211       -2.2211  -18.7504  -48.2808 H         1 UNK         0.0600 
    212 H212       -4.6570  -16.9033  -48.0623 H         1 UNK         0.0600 
    213 H213       -2.9911  -16.3849  -48.2947 H         1 UNK         0.0600 
    214 H214       -3.4566  -17.1850  -46.8025 H         1 UNK         0.0600 
    215 H215       -1.5081  -18.9223  -50.2997 H         1 UNK         0.3000 
    216 H216       -1.3153  -19.2086  -52.4732 H         1 UNK         0.0600 
    217 H217       -1.9547  -16.7808  -52.5377 H         1 UNK         0.0600 
    218 H218       -3.6409  -17.2361  -52.7760 H         1 UNK         0.0600 
    219 H219       -2.4356  -17.6269  -53.9917 H         1 UNK         0.0600 
    220 H220       -2.9327  -21.0764  -51.0141 H         1 UNK         0.3000 
    221 H221       -4.2048  -22.8526  -51.2083 H         1 UNK         0.0600 
    222 H222       -4.3550  -24.0518  -53.3490 H         1 UNK         0.0600 
    223 H223       -3.9291  -22.6045  -54.2511 H         1 UNK         0.0600 
    224 H224       -2.7456  -23.3692  -53.1909 H         1 UNK         0.0600 
    225 H225       -5.4216  -20.1629  -51.1738 H         1 UNK         0.3000 
    226 H226       -7.3368  -19.1175  -51.1307 H         1 UNK         0.0600 
    227 H227       -8.3222  -21.2018  -50.1311 H         1 UNK         0.0600 
    228 H228       -9.4919  -20.2817  -51.0589 H         1 UNK         0.0600 
    229 H229       -8.7938  -21.7412  -51.7416 H         1 UNK         0.0600 
    230 H230       -5.7620  -19.4357  -53.6168 H         1 UNK         0.3000 
    231 H231       -7.6838  -18.2421  -55.5055 H         1 UNK         0.0600 
    232 H232       -6.8120  -19.7052  -57.3449 H         1 UNK         0.0600 
    233 H233       -7.6207  -20.6579  -56.1172 H         1 UNK         0.0600 
    234 H234       -5.8646  -20.6321  -56.1736 H         1 UNK         0.0600 
    235 H235       -4.8533  -18.9466  -57.0560 H         1 UNK         0.3000 
    236 H236       -3.3530  -16.5563  -56.0840 H         1 UNK         0.0600 
    237 H237       -4.6737  -15.9459  -58.1272 H         1 UNK         0.0600 
    238 H238       -2.9477  -15.9207  -58.4408 H         1 UNK         0.0600 
    239 H239       -3.9208  -17.2732  -59.0104 H         1 UNK         0.0600 
    240 H240       -3.1120  -19.5399  -55.6447 H         1 UNK         0.3000 
    241 H241       -1.6507  -21.1277  -55.5237 H         1 UNK         0.0600 
    242 H242       -2.7105  -20.6450  -58.3249 H         1 UNK         0.3800 
    243 H243       -1.6034  -21.5466  -59.3251 H         1 UNK         0.3800 
    244 H244        0.7234  -19.3107  -56.0838 H         1 UNK         0.0800 
    245 H245       -0.2581  -19.0342  -54.6721 H         1 UNK         0.0800 
    246 H246        2.3752  -19.2426  -53.9912 H         1 UNK         0.0800 
    247 H247        2.9859  -20.7348  -53.3269 H         1 UNK         0.0800 
@<TRIPOS>BOND
     1    1    2 1    
     2    1  127 1    
     3    1  128 1    
     4    1  129 1    
     5    2    3 2    
     6    2    4 am   BACKBONE|DICT|INTERRES
     7    4    5 1    
     8    4  130 1    
     9    5    6 1    
    10    5   65 1    
    11    5  131 1    
    12    6    7 1    
    13    6  132 1    
    14    6  133 1    
    15    7    8 1    
    16    8    9 1    
    17    8  134 1    
    18    8  135 1    
    19    9   10 ar   
    20    9   14 ar   
    21   10   11 ar   
    22   10  136 1    
    23   11   12 ar   
    24   11  126 1    
    25   12   13 ar   
    26   12  137 1    
    27   13   14 ar   
    28   13   15 1    
    29   14  138 1    
    30   15   16 1    
    31   15  139 1    
    32   15  140 1    
    33   16   17 1    
    34   17   18 1    
    35   17  141 1    
    36   17  142 1    
    37   18   19 1    
    38   18   67 1    
    39   18  143 1    
    40   19   20 am   BACKBONE|DICT|INTERRES
    41   19  144 1    
    42   20   21 2    
    43   20   22 1    
    44   22   23 1    
    45   22   24 1    
    46   22  145 1    
    47   23  146 1    
    48   23  147 1    
    49   23  148 1    
    50   24   25 am   BACKBONE|DICT|INTERRES
    51   24  149 1    
    52   25   26 2    
    53   25   27 1    
    54   27   28 1    
    55   27   29 1    
    56   27  150 1    
    57   28  151 1    
    58   28  152 1    
    59   28  153 1    
    60   29   30 am   BACKBONE|DICT|INTERRES
    61   29  154 1    
    62   30   31 2    
    63   30   32 1    
    64   32   33 1    
    65   32   34 1    
    66   32  155 1    
    67   33  156 1    
    68   33  157 1    
    69   33  158 1    
    70   34   35 am   BACKBONE|DICT|INTERRES
    71   34  159 1    
    72   35   36 2    
    73   35   37 1    
    74   37   38 1    
    75   37   39 1    
    76   37  160 1    
    77   38  161 1    
    78   38  162 1    
    79   38  163 1    
    80   39   40 am   BACKBONE|DICT|INTERRES
    81   39  164 1    
    82   40   41 2    
    83   40   42 1    
    84   42   43 1    
    85   42   44 1    
    86   42  165 1    
    87   43  166 1    
    88   43  167 1    
    89   43  168 1    
    90   44   45 am   BACKBONE|DICT|INTERRES
    91   44  169 1    
    92   45   46 2    
    93   45   47 1    
    94   47   48 1    
    95   47   49 1    
    96   47  170 1    
    97   48  171 1    
    98   48  172 1    
    99   48  173 1    
   100   49   50 am   BACKBONE|DICT|INTERRES
   101   49  174 1    
   102   50   51 2    
   103   50   52 1    
   104   52   53 1    
   105   52   54 1    
   106   52  175 1    
   107   53  176 1    
   108   53  177 1    
   109   53  178 1    
   110   54   55 am   BACKBONE|DICT|INTERRES
   111   54  179 1    
   112   55   56 2    
   113   55   57 1    
   114   57   58 1    
   115   57   59 1    
   116   57  180 1    
   117   58  181 1    
   118   58  182 1    
   119   58  183 1    
   120   59   60 am   BACKBONE|DICT|INTERRES
   121   59  184 1    
   122   60   61 2    
   123   60   62 1    
   124   62   63 1    
   125   62   64 1    
   126   62  185 1    
   127   63  186 1    
   128   63  187 1    
   129   63  188 1    
   130   64   65 am   BACKBONE|DICT|INTERRES
   131   64  189 1    
   132   65   66 2    
   133   67   68 2    
   134   67   69 am   BACKBONE|DICT|INTERRES
   135   69   70 1    
   136   69  190 1    
   137   70   71 1    
   138   70   72 1    
   139   70  191 1    
   140   71  192 1    
   141   71  193 1    
   142   71  194 1    
   143   72   73 2    
   144   72   74 am   BACKBONE|DICT|INTERRES
   145   74   75 1    
   146   74  195 1    
   147   75   76 1    
   148   75   77 1    
   149   75  196 1    
   150   76  197 1    
   151   76  198 1    
   152   76  199 1    
   153   77   78 2    
   154   77   79 am   BACKBONE|DICT|INTERRES
   155   79   80 1    
   156   79  200 1    
   157   80   81 1    
   158   80   82 1    
   159   80  201 1    
   160   81  202 1    
   161   81  203 1    
   162   81  204 1    
   163   82   83 2    
   164   82   84 am   BACKBONE|DICT|INTERRES
   165   84   85 1    
   166   84  205 1    
   167   85   86 1    
   168   85   87 1    
   169   85  206 1    
   170   86  207 1    
   171   86  208 1    
   172   86  209 1    
   173   87   88 2    
   174   87   89 am   BACKBONE|DICT|INTERRES
   175   89   90 1    
   176   89  210 1    
   177   90   91 1    
   178   90   92 1    
   179   90  211 1    
   180   91  212 1    
   181   91  213 1    
   182   91  214 1    
   183   92   93 2    
   184   92   94 am   BACKBONE|DICT|INTERRES
   185   94   95 1    
   186   94  215 1    
   187   95   96 1    
   188   95   97 1    
   189   95  216 1    
   190   96  217 1    
   191   96  218 1    
   192   96  219 1    
   193   97   98 2    
   194   97   99 am   BACKBONE|DICT|INTERRES
   195   99  100 1    
   196   99  220 1    
   197  100  101 1    
   198  100  102 1    
   199  100  221 1    
   200  101  222 1    
   201  101  223 1    
   202  101  224 1    
   203  102  103 2    
   204  102  104 am   BACKBONE|DICT|INTERRES
   205  104  105 1    
   206  104  225 1    
   207  105  106 1    
   208  105  107 1    
   209  105  226 1    
   210  106  227 1    
   211  106  228 1    
   212  106  229 1    
   213  107  108 2    
   214  107  109 am   BACKBONE|DICT|INTERRES
   215  109  110 1    
   216  109  230 1    
   217  110  111 1    
   218  110  112 1    
   219  110  231 1    
   220  111  232 1    
   221  111  233 1    
   222  111  234 1    
   223  112  113 2    
   224  112  114 am   BACKBONE|DICT|INTERRES
   225  114  115 1    
   226  114  235 1    
   227  115  116 1    
   228  115  117 1    
   229  115  236 1    
   230  116  237 1    
   231  116  238 1    
   232  116  239 1    
   233  117  118 2    
   234  117  119 am   BACKBONE|DICT|INTERRES
   235  119  120 1    
   236  119  240 1    
   237  120  121 1    
   238  120  124 1    
   239  120  241 1    
   240  121  122 am   BACKBONE|DICT|INTERRES
   241  121  123 2    
   242  122  242 1    
   243  122  243 1    
   244  124  125 1    
   245  124  244 1    
   246  124  245 1    
   247  125  126 1    
   248  126  246 1    
   249  126  247 1    
@<TRIPOS>SUBSTRUCTURE
     1 UNK         1 GROUP             0       ****    0 ROOT    
