@<TRIPOS>MOLECULE
3R540
247   249    1
SMALL
USER_CHARGES


@<TRIPOS>ATOM
      1 CA          5.3694  -14.3553  -48.1818 C.3       0 UNK        -0.1800 
      2 C           4.1366  -14.0276  -47.3525 C.2       0 UNK         0.5000 
      3 O           4.1021  -14.3215  -46.1584 O.2       0 UNK        -0.5000 
      4 N           3.1283  -13.4025  -47.9713 N.am      1 UNK        -0.5000 
      5 CA          1.8429  -13.0399  -47.3618 C.3       1 UNK         0.1400 
      6 C6          0.7041  -12.9964  -48.4136 C.3       23 UNK        -0.0398 
      7 S7          0.2497  -14.6578  -49.0063 S.3       23 UNK        -0.2404 
      8 C8          1.2163  -14.7987  -50.5424 C.3       23 UNK        -0.0205 
      9 C9          0.8925  -16.1045  -51.2491 C.ar      23 UNK        -0.0193 
     10 C10         0.1792  -16.1093  -52.4494 C.ar      23 UNK        -0.1150 
     11 C11        -0.1654  -17.3166  -53.0641 C.ar      23 UNK        -0.0193 
     12 C12         0.1886  -18.5259  -52.4562 C.ar      23 UNK        -0.1150 
     13 C13         0.9009  -18.5366  -51.2515 C.ar      23 UNK        -0.0193 
     14 C14         1.2790  -17.3173  -50.6763 C.ar      23 UNK        -0.1150 
     15 C15         1.2275  -19.8716  -50.5800 C.3       23 UNK        -0.0205 
     16 S16         1.2892  -19.8103  -48.7514 S.3       23 UNK        -0.2404 
     17 C17        -0.3710  -19.1739  -48.3350 C.3       23 UNK        -0.0398 
     18 CA         -1.2931  -20.2681  -47.7570 C.3       11 UNK         0.1400 
     19 N          -0.8058  -20.7958  -46.4833 N.am      11 UNK        -0.5000 
     20 C          -1.0859  -22.0068  -45.9883 C.2       10 UNK         0.5000 
     21 O          -1.7537  -22.8493  -46.5937 O.2       10 UNK        -0.5000 
     22 CA         -0.5590  -22.3046  -44.5683 C.3       10 UNK         0.1400 
     23 CB         -0.3357  -23.8080  -44.3135 C.3       10 UNK        -0.1800 
     24 N           0.6264  -21.5148  -44.2128 N.am      10 UNK        -0.5000 
     25 C           1.8566  -21.5905  -44.7453 C.2       9 UNK         0.5000 
     26 O           2.1890  -22.4191  -45.5905 O.2       9 UNK        -0.5000 
     27 CA          2.8976  -20.5543  -44.2749 C.3       9 UNK         0.1400 
     28 CB          3.1629  -19.5334  -45.3933 C.3       9 UNK        -0.1800 
     29 N           2.5023  -19.8328  -43.0639 N.am      9 UNK        -0.5000 
     30 C           2.5026  -20.3457  -41.8256 C.2       8 UNK         0.5000 
     31 O           2.9075  -21.4759  -41.5526 O.2       8 UNK        -0.5000 
     32 CA          1.9062  -19.4597  -40.7135 C.3       8 UNK         0.1400 
     33 CB          2.9633  -18.4886  -40.1687 C.3       8 UNK        -0.1800 
     34 N           0.7272  -18.7076  -41.1554 N.am      8 UNK        -0.5000 
     35 C          -0.4242  -19.2680  -41.5556 C.2       7 UNK         0.5000 
     36 O          -0.6258  -20.4815  -41.5724 O.2       7 UNK        -0.5000 
     37 CA         -1.5131  -18.3242  -42.0851 C.3       7 UNK         0.1400 
     38 CB         -2.3391  -17.7218  -40.9392 C.3       7 UNK        -0.1800 
     39 N          -0.9416  -17.2559  -42.9017 N.am      7 UNK        -0.5000 
     40 C          -0.5415  -17.4087  -44.1714 C.2       6 UNK         0.5000 
     41 O          -0.6814  -18.4532  -44.8098 O.2       6 UNK        -0.5000 
     42 CA          0.1300  -16.1936  -44.8377 C.3       6 UNK         0.1400 
     43 CB         -0.9425  -15.2937  -45.4693 C.3       6 UNK        -0.1800 
     44 N           0.9396  -15.4127  -43.8981 N.am      6 UNK        -0.5000 
     45 C           2.0540  -15.8742  -43.3053 C.2       5 UNK         0.5000 
     46 O           2.5302  -16.9844  -43.5339 O.2       5 UNK        -0.5000 
     47 CA          2.7133  -14.9932  -42.2241 C.3       5 UNK         0.1400 
     48 CB          3.8524  -14.1632  -42.8237 C.3       5 UNK        -0.1800 
     49 N           1.7704  -14.1114  -41.5359 N.am      5 UNK        -0.5000 
     50 C           0.7201  -14.5419  -40.8209 C.2       4 UNK         0.5000 
     51 O           0.4920  -15.7345  -40.6115 O.2       4 UNK        -0.5000 
     52 CA         -0.2739  -13.4837  -40.3013 C.3       4 UNK         0.1400 
     53 CB         -0.0456  -13.2261  -38.8048 C.3       4 UNK        -0.1800 
     54 N          -0.2340  -12.2041  -41.0168 N.am      4 UNK        -0.5000 
     55 C          -0.4505  -12.0240  -42.3277 C.2       3 UNK         0.5000 
     56 O          -0.7028  -12.9426  -43.1097 O.2       3 UNK        -0.5000 
     57 CA         -0.3123  -10.5888  -42.8769 C.3       3 UNK         0.1400 
     58 CB         -0.2634   -9.4934  -41.7877 C.3       3 UNK        -0.1800 
     59 N           0.8422  -10.4712  -43.7725 N.am      3 UNK        -0.5000 
     60 C           2.1238  -10.7440  -43.4886 C.2       2 UNK         0.5000 
     61 O           2.5152  -11.1427  -42.3894 O.2       2 UNK        -0.5000 
     62 CA          3.1153  -10.5966  -44.6602 C.3       2 UNK         0.1400 
     63 CB          4.5855  -10.5934  -44.2046 C.3       2 UNK        -0.1800 
     64 N           2.9194  -11.6765  -45.6261 N.am      2 UNK        -0.5000 
     65 C           1.9487  -11.7315  -46.5451 C.2       1 UNK         0.5000 
     66 O           1.1592  -10.8046  -46.7396 O.2       1 UNK        -0.5000 
     67 C          -2.7238  -19.7295  -47.5914 C.2       11 UNK         0.5000 
     68 O          -3.5623  -19.9756  -48.4563 O.2       11 UNK        -0.5000 
     69 N          -3.0018  -19.0615  -46.4602 N.am      12 UNK        -0.5000 
     70 CA         -4.3389  -18.5738  -46.0976 C.3       12 UNK         0.1400 
     71 CB         -4.2320  -17.6089  -44.9079 C.3       12 UNK        -0.1800 
     72 C          -5.3238  -19.7182  -45.7831 C.2       12 UNK         0.5000 
     73 O          -6.5291  -19.5592  -45.9744 O.2       12 UNK        -0.5000 
     74 N          -4.7814  -20.8636  -45.3466 N.am      13 UNK        -0.5000 
     75 CA         -5.4984  -22.1275  -45.1675 C.3       13 UNK         0.1400 
     76 CB         -4.6995  -23.0017  -44.1862 C.3       13 UNK        -0.1800 
     77 C          -5.7247  -22.8833  -46.4955 C.2       13 UNK         0.5000 
     78 O          -6.4432  -23.8824  -46.5009 O.2       13 UNK        -0.5000 
     79 N          -5.0824  -22.4184  -47.5792 N.am      14 UNK        -0.5000 
     80 CA         -5.0585  -22.9615  -48.9418 C.3       14 UNK         0.1400 
     81 CB         -6.4721  -23.0107  -49.5542 C.3       14 UNK        -0.1800 
     82 C          -4.3188  -24.3066  -49.0850 C.2       14 UNK         0.5000 
     83 O          -4.2914  -24.8572  -50.1853 O.2       14 UNK        -0.5000 
     84 N          -3.6984  -24.8030  -48.0069 N.am      15 UNK        -0.5000 
     85 CA         -2.9646  -26.0667  -47.9759 C.3       15 UNK         0.1400 
     86 CB         -2.6909  -26.4654  -46.5190 C.3       15 UNK        -0.1800 
     87 C          -1.6602  -25.9860  -48.7826 C.2       15 UNK         0.5000 
     88 O          -1.4014  -26.8559  -49.6144 O.2       15 UNK        -0.5000 
     89 N          -0.8952  -24.9055  -48.5737 N.am      16 UNK        -0.5000 
     90 CA          0.3368  -24.6190  -49.3155 C.3       16 UNK         0.1400 
     91 CB          1.1503  -23.5686  -48.5542 C.3       16 UNK        -0.1800 
     92 C           0.0759  -24.1666  -50.7652 C.2       16 UNK         0.5000 
     93 O           0.9648  -24.2843  -51.6083 O.2       16 UNK        -0.5000 
     94 N          -1.1473  -23.6914  -51.0341 N.am      17 UNK        -0.5000 
     95 CA         -1.6489  -23.3635  -52.3687 C.3       17 UNK         0.1400 
     96 CB         -2.6967  -22.2464  -52.2382 C.3       17 UNK        -0.1800 
     97 C          -2.2348  -24.5916  -53.1013 C.2       17 UNK         0.5000 
     98 O          -2.6899  -24.4471  -54.2354 O.2       17 UNK        -0.5000 
     99 N          -2.2374  -25.7673  -52.4500 N.am      18 UNK        -0.5000 
    100 CA        -2.7459  -27.0564  -52.9355 C.3       18 UNK         0.1400 
    101 CB        -1.8610  -27.5882  -54.0820 C.3       18 UNK        -0.1800 
    102 C         -4.2469  -27.0227  -53.2975 C.2       18 UNK         0.5000 
    103 O         -4.6665  -27.6659  -54.2609 O.2       18 UNK        -0.5000 
    104 N         -5.0193  -26.2484  -52.5213 N.am      19 UNK        -0.5000 
    105 CA        -6.4534  -25.9691  -52.6520 C.3       19 UNK         0.1400 
    106 CB        -7.2857  -27.2600  -52.5081 C.3       19 UNK        -0.1800 
    107 C         -6.8439  -25.1551  -53.9063 C.2       19 UNK         0.5000 
    108 O         -8.0380  -24.9828  -54.1581 O.2       19 UNK        -0.5000 
    109 N         -5.8594  -24.6479  -54.6596 N.am      20 UNK        -0.5000 
    110 CA        -6.0632  -23.7768  -55.8139 C.3       20 UNK         0.1400 
    111 CB        -4.9498  -24.0429  -56.8394 C.3       20 UNK        -0.1800 
    112 C         -6.0582  -22.3007  -55.3826 C.2       20 UNK         0.5000 
    113 O         -5.4995  -21.9580  -54.3375 O.2       20 UNK        -0.5000 
    114 N         -6.6617  -21.4467  -56.2152 N.am      21 UNK        -0.5000 
    115 CA        -6.6000  -19.9919  -56.0856 C.3       21 UNK         0.1400 
    116 CB        -7.8160  -19.3820  -56.8012 C.3       21 UNK        -0.1800 
    117 C         -5.2907  -19.4471  -56.6869 C.2       21 UNK         0.5000 
    118 O         -4.6976  -20.0891  -57.5583 O.2       21 UNK        -0.5000 
    119 N         -4.8863  -18.2530  -56.2402 N.am      22 UNK        -0.5000 
    120 CA        -3.7054  -17.5303  -56.7475 C.3       22 UNK         0.1400 
    121 C         -3.8776  -16.9182  -58.1713 C.2       22 UNK         0.5000 
    122 N         -5.0788  -16.8512  -58.7328 N.am      22 UNK        -0.7600 
    123 O         -2.8974  -16.4997  -58.7813 O.2       22 UNK        -0.5000 
    124 C124       -3.2223  -16.4464  -55.7508 C.3       23 UNK        -0.0398 
    125 S125       -2.7103  -17.1244  -54.1340 S.3       23 UNK        -0.2404 
    126 C126       -0.9156  -17.3001  -54.3862 C.3       23 UNK        -0.0205 
    127 H127        5.5506  -15.4301  -48.1730 H         1 UNK         0.0600 
    128 H128        5.2570  -14.0378  -49.2187 H         1 UNK         0.0600 
    129 H129        6.2447  -13.8571  -47.7651 H         1 UNK         0.0600 
    130 H130        3.2381  -13.1391  -48.9396 H         1 UNK         0.3000 
    131 H131        1.5870  -13.8133  -46.6352 H         1 UNK         0.0600 
    132 H132        0.9644  -12.3495  -49.2528 H         1 UNK         0.0800 
    133 H133       -0.2064  -12.5777  -47.9811 H         1 UNK         0.0800 
    134 H134        2.2822  -14.7668  -50.3152 H         1 UNK         0.0800 
    135 H135        1.0029  -13.9461  -51.1889 H         1 UNK         0.0800 
    136 H136       -0.1185  -15.1743  -52.9031 H         1 UNK         0.1150 
    137 H137       -0.0989  -19.4598  -52.9191 H         1 UNK         0.1150 
    138 H138        1.8336  -17.3011  -49.7491 H         1 UNK         0.1150 
    139 H139        0.4935  -20.6258  -50.8691 H         1 UNK         0.0800 
    140 H140        2.1922  -20.2205  -50.9499 H         1 UNK         0.0800 
    141 H141       -0.8249  -18.7304  -49.2223 H         1 UNK         0.0800 
    142 H142       -0.2484  -18.3557  -47.6232 H         1 UNK         0.0800 
    143 H143       -1.3380  -21.0847  -48.4813 H         1 UNK         0.0600 
    144 H144       -0.3017  -20.1416  -45.8956 H         1 UNK         0.3000 
    145 H145       -1.3439  -21.9752  -43.8865 H         1 UNK         0.0600 
    146 H146        0.1160  -23.9806  -43.3366 H         1 UNK         0.0600 
    147 H147       -1.2833  -24.3455  -44.3275 H         1 UNK         0.0600 
    148 H148        0.3098  -24.2582  -45.0684 H         1 UNK         0.0600 
    149 H149        0.4743  -20.8197  -43.4937 H         1 UNK         0.3000 
    150 H150        3.8269  -21.0902  -44.0719 H         1 UNK         0.0600 
    151 H151        3.4865  -20.0282  -46.3099 H         1 UNK         0.0600 
    152 H152        3.9473  -18.8314  -45.1101 H         1 UNK         0.0600 
    153 H153        2.2674  -18.9573  -45.6314 H         1 UNK         0.0600 
    154 H154        2.2386  -18.8592  -43.1897 H         1 UNK         0.3000 
    155 H155        1.5919  -20.1132  -39.8970 H         1 UNK         0.0600 
    156 H156        3.3892  -17.8750  -40.9616 H         1 UNK         0.0600 
    157 H157        3.7858  -19.0337  -39.7043 H         1 UNK         0.0600 
    158 H158        2.5437  -17.8238  -39.4132 H         1 UNK         0.0600 
    159 H159        0.7906  -17.6954  -41.1335 H         1 UNK         0.3000 
    160 H160       -2.1850  -18.9214  -42.7037 H         1 UNK         0.0600 
    161 H161       -3.1332  -17.0807  -41.3222 H         1 UNK         0.0600 
    162 H162       -1.7262  -17.1280  -40.2612 H         1 UNK         0.0600 
    163 H163       -2.8122  -18.5069  -40.3481 H         1 UNK         0.0600 
    164 H164       -0.7487  -16.3820  -42.4321 H         1 UNK         0.3000 
    165 H165        0.7869  -16.5593  -45.6299 H         1 UNK         0.0600 
    166 H166       -0.5108  -14.3961  -45.9077 H         1 UNK         0.0600 
    167 H167       -1.4720  -15.8205  -46.2644 H         1 UNK         0.0600 
    168 H168       -1.6839  -14.9741  -44.7358 H         1 UNK         0.0600 
    169 H169        0.5722  -14.5069  -43.6261 H         1 UNK         0.3000 
    170 H170        3.1442  -15.6551  -41.4724 H         1 UNK         0.0600 
    171 H171        4.6087  -14.8060  -43.2761 H         1 UNK         0.0600 
    172 H172        3.4828  -13.4988  -43.6017 H         1 UNK         0.0600 
    173 H173        4.3472  -13.5562  -42.0653 H         1 UNK         0.0600 
    174 H174        1.8953  -13.1144  -41.6713 H         1 UNK         0.3000 
    175 H175       -1.2759  -13.8984  -40.4285 H         1 UNK         0.0600 
    176 H176       -0.8034  -12.5557  -38.3988 H         1 UNK         0.0600 
    177 H177       -0.0976  -14.1551  -38.2352 H         1 UNK         0.0600 
    178 H178        0.9328  -12.7811  -38.6189 H         1 UNK         0.0600 
    179 H179        0.0086  -11.3940  -40.4651 H         1 UNK         0.3000 
    180 H180       -1.1995  -10.4100  -43.4859 H         1 UNK         0.0600 
    181 H181        0.6221   -9.5726  -41.1561 H         1 UNK         0.0600 
    182 H182       -1.1411   -9.5405  -41.1417 H         1 UNK         0.0600 
    183 H183       -0.2538   -8.5011  -42.2387 H         1 UNK         0.0600 
    184 H184        0.6256  -10.2418  -44.7360 H         1 UNK         0.3000 
    185 H185        2.9187   -9.6379  -45.1449 H         1 UNK         0.0600 
    186 H186        4.8728  -11.5348  -43.7366 H         1 UNK         0.0600 
    187 H187        5.2562  -10.4229  -45.0469 H         1 UNK         0.0600 
    188 H188        4.7663   -9.7986  -43.4800 H         1 UNK         0.0600 
    189 H189        3.5143  -12.4930  -45.5297 H         1 UNK         0.3000 
    190 H190       -2.2494  -18.8886  -45.7992 H         1 UNK         0.3000 
    191 H191       -4.7385  -18.0192  -46.9493 H         1 UNK         0.0600 
    192 H192       -3.5574  -16.7819  -45.1262 H         1 UNK         0.0600 
    193 H193       -3.8730  -18.1122  -44.0118 H         1 UNK         0.0600 
    194 H194       -5.2050  -17.1775  -44.6698 H         1 UNK         0.0600 
    195 H195       -3.7827  -20.8897  -45.2116 H         1 UNK         0.3000 
    196 H196       -6.4780  -21.9227  -44.7305 H         1 UNK         0.0600 
    197 H197       -5.2274  -23.9319  -43.9722 H         1 UNK         0.0600 
    198 H198       -4.5474  -22.4913  -43.2349 H         1 UNK         0.0600 
    199 H199       -3.7205  -23.2675  -44.5858 H         1 UNK         0.0600 
    200 H200       -4.5336  -21.5751  -47.4693 H         1 UNK         0.3000 
    201 H201       -4.4805  -22.2469  -49.5275 H         1 UNK         0.0600 
    202 H202       -6.9893  -22.0593  -49.4296 H         1 UNK         0.0600 
    203 H203       -7.0853  -23.7903  -49.1018 H         1 UNK         0.0600 
    204 H204       -6.4244  -23.2120  -50.6248 H         1 UNK         0.0600 
    205 H205       -3.6995  -24.2547  -47.1590 H         1 UNK         0.3000 
    206 H206       -3.5929  -26.8376  -48.4274 H         1 UNK         0.0600 
    207 H207       -3.6192  -26.5662  -45.9564 H         1 UNK         0.0600 
    208 H208       -2.1723  -27.4235  -46.4674 H         1 UNK         0.0600 
    209 H209       -2.0698  -25.7283  -46.0116 H         1 UNK         0.0600 
    210 H210       -1.1882  -24.2231  -47.8794 H         1 UNK         0.3000 
    211 H211        0.9312  -25.5338  -49.3634 H         1 UNK         0.0600 
    212 H212        0.5884  -22.6458  -48.4225 H         1 UNK         0.0600 
    213 H213        2.0729  -23.3206  -49.0803 H         1 UNK         0.0600 
    214 H214        1.4272  -23.9378  -47.5677 H         1 UNK         0.0600 
    215 H215       -1.8166  -23.6559  -50.2803 H         1 UNK         0.3000 
    216 H216       -0.8260  -22.9823  -52.9768 H         1 UNK         0.0600 
    217 H217       -2.9798  -21.8665  -53.2204 H         1 UNK         0.0600 
    218 H218       -2.3134  -21.4020  -51.6646 H         1 UNK         0.0600 
    219 H219       -3.6072  -22.6009  -51.7552 H         1 UNK         0.0600 
    220 H220       -1.8699  -25.7871  -51.5074 H         1 UNK         0.3000 
    221 H221       -2.6543  -27.7516  -52.0998 H         1 UNK         0.0600 
    222 H222       -1.9452  -26.9722  -54.9777 H         1 UNK         0.0600 
    223 H223       -0.8113  -27.6136  -53.7896 H         1 UNK         0.0600 
    224 H224       -2.1445  -28.6049  -54.3564 H         1 UNK         0.0600 
    225 H225       -4.5719  -25.7596  -51.7467 H         1 UNK         0.3000 
    226 H226       -6.7009  -25.3325  -51.8021 H         1 UNK         0.0600 
    227 H227       -7.0075  -27.8104  -51.6094 H         1 UNK         0.0600 
    228 H228       -7.1580  -27.9241  -53.3632 H         1 UNK         0.0600 
    229 H229       -8.3495  -27.0331  -52.4304 H         1 UNK         0.0600 
    230 H230       -4.8988  -24.7734  -54.3643 H         1 UNK         0.3000 
    231 H231       -7.0227  -24.0035  -56.2837 H         1 UNK         0.0600 
    232 H232       -4.9132  -25.0959  -57.1195 H         1 UNK         0.0600 
    233 H233       -3.9692  -23.7643  -56.4529 H         1 UNK         0.0600 
    234 H234       -5.1133  -23.4684  -57.7520 H         1 UNK         0.0600 
    235 H235       -7.0545  -21.7988  -57.0761 H         1 UNK         0.3000 
    236 H236       -6.6439  -19.7188  -55.0288 H         1 UNK         0.0600 
    237 H237       -7.8322  -18.2969  -56.6932 H         1 UNK         0.0600 
    238 H238       -7.8108  -19.6063  -57.8688 H         1 UNK         0.0600 
    239 H239       -8.7492  -19.7610  -56.3839 H         1 UNK         0.0600 
    240 H240       -5.4202  -17.7830  -55.5237 H         1 UNK         0.3000 
    241 H241       -2.8981  -18.2593  -56.8437 H         1 UNK         0.0600 
    242 H242       -5.1730  -16.4566  -59.6558 H         1 UNK         0.3800 
    243 H243       -5.8936  -17.1901  -58.2481 H         1 UNK         0.3800 
    244 H244       -2.3941  -15.8726  -56.1698 H         1 UNK         0.0800 
    245 H245       -4.0186  -15.7215  -55.5746 H         1 UNK         0.0800 
    246 H246       -0.5364  -16.4773  -54.9937 H         1 UNK         0.0800 
    247 H247       -0.7193  -18.2130  -54.9506 H         1 UNK         0.0800 
@<TRIPOS>BOND
     1    1    2 1    
     2    1  127 1    
     3    1  128 1    
     4    1  129 1    
     5    2    3 2    
     6    2    4 am   BACKBONE|DICT|INTERRES
     7    4    5 1    
     8    4  130 1    
     9    5    6 1    
    10    5   65 1    
    11    5  131 1    
    12    6    7 1    
    13    6  132 1    
    14    6  133 1    
    15    7    8 1    
    16    8    9 1    
    17    8  134 1    
    18    8  135 1    
    19    9   10 ar   
    20    9   14 ar   
    21   10   11 ar   
    22   10  136 1    
    23   11   12 ar   
    24   11  126 1    
    25   12   13 ar   
    26   12  137 1    
    27   13   14 ar   
    28   13   15 1    
    29   14  138 1    
    30   15   16 1    
    31   15  139 1    
    32   15  140 1    
    33   16   17 1    
    34   17   18 1    
    35   17  141 1    
    36   17  142 1    
    37   18   19 1    
    38   18   67 1    
    39   18  143 1    
    40   19   20 am   BACKBONE|DICT|INTERRES
    41   19  144 1    
    42   20   21 2    
    43   20   22 1    
    44   22   23 1    
    45   22   24 1    
    46   22  145 1    
    47   23  146 1    
    48   23  147 1    
    49   23  148 1    
    50   24   25 am   BACKBONE|DICT|INTERRES
    51   24  149 1    
    52   25   26 2    
    53   25   27 1    
    54   27   28 1    
    55   27   29 1    
    56   27  150 1    
    57   28  151 1    
    58   28  152 1    
    59   28  153 1    
    60   29   30 am   BACKBONE|DICT|INTERRES
    61   29  154 1    
    62   30   31 2    
    63   30   32 1    
    64   32   33 1    
    65   32   34 1    
    66   32  155 1    
    67   33  156 1    
    68   33  157 1    
    69   33  158 1    
    70   34   35 am   BACKBONE|DICT|INTERRES
    71   34  159 1    
    72   35   36 2    
    73   35   37 1    
    74   37   38 1    
    75   37   39 1    
    76   37  160 1    
    77   38  161 1    
    78   38  162 1    
    79   38  163 1    
    80   39   40 am   BACKBONE|DICT|INTERRES
    81   39  164 1    
    82   40   41 2    
    83   40   42 1    
    84   42   43 1    
    85   42   44 1    
    86   42  165 1    
    87   43  166 1    
    88   43  167 1    
    89   43  168 1    
    90   44   45 am   BACKBONE|DICT|INTERRES
    91   44  169 1    
    92   45   46 2    
    93   45   47 1    
    94   47   48 1    
    95   47   49 1    
    96   47  170 1    
    97   48  171 1    
    98   48  172 1    
    99   48  173 1    
   100   49   50 am   BACKBONE|DICT|INTERRES
   101   49  174 1    
   102   50   51 2    
   103   50   52 1    
   104   52   53 1    
   105   52   54 1    
   106   52  175 1    
   107   53  176 1    
   108   53  177 1    
   109   53  178 1    
   110   54   55 am   BACKBONE|DICT|INTERRES
   111   54  179 1    
   112   55   56 2    
   113   55   57 1    
   114   57   58 1    
   115   57   59 1    
   116   57  180 1    
   117   58  181 1    
   118   58  182 1    
   119   58  183 1    
   120   59   60 am   BACKBONE|DICT|INTERRES
   121   59  184 1    
   122   60   61 2    
   123   60   62 1    
   124   62   63 1    
   125   62   64 1    
   126   62  185 1    
   127   63  186 1    
   128   63  187 1    
   129   63  188 1    
   130   64   65 am   BACKBONE|DICT|INTERRES
   131   64  189 1    
   132   65   66 2    
   133   67   68 2    
   134   67   69 am   BACKBONE|DICT|INTERRES
   135   69   70 1    
   136   69  190 1    
   137   70   71 1    
   138   70   72 1    
   139   70  191 1    
   140   71  192 1    
   141   71  193 1    
   142   71  194 1    
   143   72   73 2    
   144   72   74 am   BACKBONE|DICT|INTERRES
   145   74   75 1    
   146   74  195 1    
   147   75   76 1    
   148   75   77 1    
   149   75  196 1    
   150   76  197 1    
   151   76  198 1    
   152   76  199 1    
   153   77   78 2    
   154   77   79 am   BACKBONE|DICT|INTERRES
   155   79   80 1    
   156   79  200 1    
   157   80   81 1    
   158   80   82 1    
   159   80  201 1    
   160   81  202 1    
   161   81  203 1    
   162   81  204 1    
   163   82   83 2    
   164   82   84 am   BACKBONE|DICT|INTERRES
   165   84   85 1    
   166   84  205 1    
   167   85   86 1    
   168   85   87 1    
   169   85  206 1    
   170   86  207 1    
   171   86  208 1    
   172   86  209 1    
   173   87   88 2    
   174   87   89 am   BACKBONE|DICT|INTERRES
   175   89   90 1    
   176   89  210 1    
   177   90   91 1    
   178   90   92 1    
   179   90  211 1    
   180   91  212 1    
   181   91  213 1    
   182   91  214 1    
   183   92   93 2    
   184   92   94 am   BACKBONE|DICT|INTERRES
   185   94   95 1    
   186   94  215 1    
   187   95   96 1    
   188   95   97 1    
   189   95  216 1    
   190   96  217 1    
   191   96  218 1    
   192   96  219 1    
   193   97   98 2    
   194   97   99 am   BACKBONE|DICT|INTERRES
   195   99  100 1    
   196   99  220 1    
   197  100  101 1    
   198  100  102 1    
   199  100  221 1    
   200  101  222 1    
   201  101  223 1    
   202  101  224 1    
   203  102  103 2    
   204  102  104 am   BACKBONE|DICT|INTERRES
   205  104  105 1    
   206  104  225 1    
   207  105  106 1    
   208  105  107 1    
   209  105  226 1    
   210  106  227 1    
   211  106  228 1    
   212  106  229 1    
   213  107  108 2    
   214  107  109 am   BACKBONE|DICT|INTERRES
   215  109  110 1    
   216  109  230 1    
   217  110  111 1    
   218  110  112 1    
   219  110  231 1    
   220  111  232 1    
   221  111  233 1    
   222  111  234 1    
   223  112  113 2    
   224  112  114 am   BACKBONE|DICT|INTERRES
   225  114  115 1    
   226  114  235 1    
   227  115  116 1    
   228  115  117 1    
   229  115  236 1    
   230  116  237 1    
   231  116  238 1    
   232  116  239 1    
   233  117  118 2    
   234  117  119 am   BACKBONE|DICT|INTERRES
   235  119  120 1    
   236  119  240 1    
   237  120  121 1    
   238  120  124 1    
   239  120  241 1    
   240  121  122 am   BACKBONE|DICT|INTERRES
   241  121  123 2    
   242  122  242 1    
   243  122  243 1    
   244  124  125 1    
   245  124  244 1    
   246  124  245 1    
   247  125  126 1    
   248  126  246 1    
   249  126  247 1    
@<TRIPOS>SUBSTRUCTURE
     1 UNK         1 GROUP             0       ****    0 ROOT    
