@<TRIPOS>MOLECULE
3R540
247   249    1
SMALL
USER_CHARGES


@<TRIPOS>ATOM
      1 CA         -3.1160  -16.7868  -48.3938 C.3       0 UNK        -0.1800 
      2 C          -2.5829  -15.4841  -47.8189 C.2       0 UNK         0.5000 
      3 O          -3.3196  -14.7751  -47.1321 O.2       0 UNK        -0.5000 
      4 N          -1.3101  -15.1623  -48.0867 N.am      1 UNK        -0.5000 
      5 CA         -0.6249  -13.9579  -47.6025 C.3       1 UNK         0.1400 
      6 C6          0.5950  -13.5712  -48.4775 C.3       23 UNK        -0.0398 
      7 S7          0.1256  -13.2027  -50.2036 S.3       23 UNK        -0.2404 
      8 C8          1.1613  -14.3691  -51.1438 C.3       23 UNK        -0.0205 
      9 C9          0.7746  -15.8168  -50.8850 C.ar      23 UNK        -0.0193 
     10 C10        -0.3854  -16.3473  -51.4567 C.ar      23 UNK        -0.1150 
     11 C11        -0.7551  -17.6739  -51.2177 C.ar      23 UNK        -0.0193 
     12 C12         0.0529  -18.4685  -50.3973 C.ar      23 UNK        -0.1150 
     13 C13         1.2175  -17.9510  -49.8221 C.ar      23 UNK        -0.0193 
     14 C14         1.5755  -16.6255  -50.0742 C.ar      23 UNK        -0.1150 
     15 C15         2.0910  -18.8222  -48.9302 C.3       23 UNK        -0.0205 
     16 S16         1.8199  -18.5148  -47.1500 S.3       23 UNK        -0.2404 
     17 C17         0.0218  -18.7592  -46.9681 C.3       23 UNK        -0.0398 
     18 CA         -0.4191  -20.2262  -47.1823 C.3       11 UNK         0.1400 
     19 N          -0.0008  -21.1061  -46.0885 N.am      11 UNK        -0.5000 
     20 C          -0.1303  -22.4391  -46.1042 C.2       10 UNK         0.5000 
     21 O          -0.5679  -23.0695  -47.0648 O.2       10 UNK        -0.5000 
     22 CA          0.2242  -23.1898  -44.8111 C.3       10 UNK         0.1400 
     23 CB          1.7401  -23.3994  -44.6856 C.3       10 UNK        -0.1800 
     24 N          -0.2907  -22.4980  -43.6305 N.am      10 UNK        -0.5000 
     25 C          -1.5915  -22.4176  -43.3158 C.2       9 UNK         0.5000 
     26 O          -2.4864  -22.9593  -43.9648 O.2       9 UNK        -0.5000 
     27 CA         -1.9581  -21.5545  -42.0956 C.3       9 UNK         0.1400 
     28 CB         -1.8468  -22.3734  -40.8014 C.3       9 UNK        -0.1800 
     29 N          -1.1298  -20.3530  -41.9847 N.am      9 UNK        -0.5000 
     30 C          -1.1596  -19.3306  -42.8512 C.2       8 UNK         0.5000 
     31 O          -1.9030  -19.2831  -43.8307 O.2       8 UNK        -0.5000 
     32 CA         -0.1511  -18.1937  -42.6056 C.3       8 UNK         0.1400 
     33 CB         -0.6905  -17.2146  -41.5522 C.3       8 UNK        -0.1800 
     34 N           1.1736  -18.6647  -42.1919 N.am      8 UNK        -0.5000 
     35 C           1.9629  -19.4818  -42.9053 C.2       7 UNK         0.5000 
     36 O           1.6129  -19.9922  -43.9694 O.2       7 UNK        -0.5000 
     37 CA          3.3500  -19.8207  -42.3152 C.3       7 UNK         0.1400 
     38 CB          4.4104  -20.0655  -43.4093 C.3       7 UNK        -0.1800 
     39 N           3.8343  -18.8558  -41.3164 N.am      7 UNK        -0.5000 
     40 C           4.1507  -17.5668  -41.5146 C.2       6 UNK         0.5000 
     41 O           4.0455  -16.9955  -42.6022 O.2       6 UNK        -0.5000 
     42 CA          4.6023  -16.7786  -40.2646 C.3       6 UNK         0.1400 
     43 CB          5.5125  -17.5944  -39.3186 C.3       6 UNK        -0.1800 
     44 N           5.2092  -15.4887  -40.6042 N.am      6 UNK        -0.5000 
     45 C           6.3726  -15.2602  -41.2271 C.2       5 UNK         0.5000 
     46 O           7.1735  -16.1394  -41.5520 O.2       5 UNK        -0.5000 
     47 CA          6.6640  -13.7821  -41.5635 C.3       5 UNK         0.1400 
     48 CB          8.1603  -13.5193  -41.8121 C.3       5 UNK        -0.1800 
     49 N           5.9087  -13.3385  -42.7362 N.am      5 UNK        -0.5000 
     50 C           4.5860  -13.1323  -42.7813 C.2       4 UNK         0.5000 
     51 O           3.8453  -13.2524  -41.8009 O.2       4 UNK        -0.5000 
     52 CA          4.0136  -12.7455  -44.1622 C.3       4 UNK         0.1400 
     53 CB          4.0645  -13.9471  -45.1208 C.3       4 UNK        -0.1800 
     54 N           2.6344  -12.2568  -44.0978 N.am      4 UNK        -0.5000 
     55 C           2.2410  -11.1241  -43.4946 C.2       3 UNK         0.5000 
     56 O           3.0271  -10.3097  -43.0073 O.2       3 UNK        -0.5000 
     57 CA          0.7257  -10.8255  -43.4328 C.3       3 UNK         0.1400 
     58 CB          0.3753   -9.6253  -44.3274 C.3       3 UNK        -0.1800 
     59 N          -0.1190  -11.9550  -43.8241 N.am      3 UNK        -0.5000 
     60 C          -0.3278  -13.0645  -43.1022 C.2       2 UNK         0.5000 
     61 O           0.0939  -13.2212  -41.9567 O.2       2 UNK        -0.5000 
     62 CA         -1.1264  -14.2008  -43.7777 C.3       2 UNK         0.1400 
     63 CB         -2.5331  -14.3119  -43.1706 C.3       2 UNK        -0.1800 
     64 N          -1.2513  -14.0810  -45.2345 N.am      2 UNK        -0.5000 
     65 C          -0.2421  -14.1081  -46.1142 C.2       1 UNK         0.5000 
     66 O           0.9363  -14.2320  -45.7817 O.2       1 UNK        -0.5000 
     67 C          -1.9338  -20.3064  -47.4585 C.2       11 UNK         0.5000 
     68 O          -2.3337  -20.2591  -48.6196 O.2       11 UNK        -0.5000 
     69 N          -2.7446  -20.4445  -46.4031 N.am      12 UNK        -0.5000 
     70 CA         -4.1846  -20.6435  -46.5066 C.3       12 UNK         0.1400 
     71 CB         -4.8434  -20.3557  -45.1476 C.3       12 UNK        -0.1800 
     72 C          -4.5438  -22.0481  -47.0265 C.2       12 UNK         0.5000 
     73 O          -5.1385  -22.1645  -48.0997 O.2       12 UNK        -0.5000 
     74 N          -4.2117  -23.0821  -46.2424 N.am      13 UNK        -0.5000 
     75 CA         -4.7308  -24.4362  -46.4232 C.3       13 UNK         0.1400 
     76 CB         -4.8859  -25.1074  -45.0489 C.3       13 UNK        -0.1800 
     77 C          -3.8694  -25.3036  -47.3515 C.2       13 UNK         0.5000 
     78 O          -4.4107  -25.9115  -48.2747 O.2       13 UNK        -0.5000 
     79 N          -2.5583  -25.3761  -47.0836 N.am      14 UNK        -0.5000 
     80 CA         -1.6370  -26.2898  -47.7696 C.3       14 UNK         0.1400 
     81 CB         -0.3463  -26.4571  -46.9516 C.3       14 UNK        -0.1800 
     82 C          -1.3314  -25.8523  -49.2119 C.2       14 UNK         0.5000 
     83 O          -1.3262  -26.6899  -50.1147 O.2       14 UNK        -0.5000 
     84 N          -1.1218  -24.5442  -49.4060 N.am      15 UNK        -0.5000 
     85 CA         -0.9689  -23.9137  -50.7193 C.3       15 UNK         0.1400 
     86 CB         -0.2528  -22.5670  -50.5479 C.3       15 UNK        -0.1800 
     87 C          -2.3149  -23.7366  -51.4539 C.2       15 UNK         0.5000 
     88 O          -2.3084  -23.5220  -52.6646 O.2       15 UNK        -0.5000 
     89 N          -3.4269  -23.8607  -50.7123 N.am      16 UNK        -0.5000 
     90 CA         -4.8223  -23.7984  -51.1468 C.3       16 UNK         0.1400 
     91 CB         -5.1716  -24.9922  -52.0561 C.3       16 UNK        -0.1800 
     92 C          -5.1808  -22.4358  -51.7653 C.2       16 UNK         0.5000 
     93 O          -5.4052  -22.3277  -52.9746 O.2       16 UNK        -0.5000 
     94 N          -5.2540  -21.4174  -50.8984 N.am      17 UNK        -0.5000 
     95 CA         -5.6341  -20.0442  -51.2380 C.3       17 UNK         0.1400 
     96 CB         -5.4860  -19.1549  -49.9956 C.3       17 UNK        -0.1800 
     97 C          -7.0641  -19.9286  -51.7960 C.2       17 UNK         0.5000 
     98 O          -7.3077  -19.0949  -52.6674 O.2       17 UNK        -0.5000 
     99 N          -7.9715  -20.7890  -51.3112 N.am      18 UNK        -0.5000 
    100 CA        -9.3620  -20.8839  -51.7628 C.3       18 UNK         0.1400 
    101 CB       -10.1456  -21.7770  -50.7890 C.3       18 UNK        -0.1800 
    102 C         -9.4949  -21.4105  -53.2053 C.2       18 UNK         0.5000 
    103 O        -10.4125  -21.0028  -53.9180 O.2       18 UNK        -0.5000 
    104 N         -8.5683  -22.2890  -53.6123 N.am      19 UNK        -0.5000 
    105 CA        -8.4550  -22.8044  -54.9784 C.3       19 UNK         0.1400 
    106 CB        -7.8119  -24.1997  -54.9275 C.3       19 UNK        -0.1800 
    107 C         -7.6274  -21.8742  -55.8868 C.2       19 UNK         0.5000 
    108 O         -7.6841  -22.0216  -57.1080 O.2       19 UNK        -0.5000 
    109 N         -6.8595  -20.9609  -55.2721 N.am      20 UNK        -0.5000 
    110 CA        -5.8684  -20.0636  -55.8714 C.3       20 UNK         0.1400 
    111 CB        -6.5433  -19.0292  -56.7955 C.3       20 UNK        -0.1800 
    112 C         -4.7204  -20.8387  -56.5520 C.2       20 UNK         0.5000 
    113 O         -4.2299  -20.4272  -57.6047 O.2       20 UNK        -0.5000 
    114 N         -4.3187  -21.9598  -55.9363 N.am      21 UNK        -0.5000 
    115 CA        -3.2945  -22.8723  -56.4528 C.3       21 UNK         0.1400 
    116 CB        -3.6099  -24.2919  -55.9575 C.3       21 UNK        -0.1800 
    117 C         -1.8565  -22.4551  -56.0778 C.2       21 UNK         0.5000 
    118 O         -0.9089  -23.1173  -56.5047 O.2       21 UNK        -0.5000 
    119 N         -1.7229  -21.3835  -55.2867 N.am      22 UNK        -0.5000 
    120 CA        -0.4712  -20.7932  -54.7916 C.3       22 UNK         0.1400 
    121 C          0.5408  -20.4320  -55.9158 C.2       22 UNK         0.5000 
    122 N          1.8224  -20.7120  -55.7208 N.am      22 UNK        -0.7600 
    123 O          0.1807  -19.8558  -56.9401 O.2       22 UNK        -0.5000 
    124 C124       -0.7550  -19.5401  -53.9257 C.3       23 UNK        -0.0398 
    125 S125       -1.8896  -19.8793  -52.5398 S.3       23 UNK        -0.2404 
    126 C126       -2.0513  -18.2184  -51.8116 C.3       23 UNK        -0.0205 
    127 H127       -3.5465  -17.4010  -47.6028 H         1 UNK         0.0600 
    128 H128       -2.3321  -17.3645  -48.8784 H         1 UNK         0.0600 
    129 H129       -3.8927  -16.5806  -49.1296 H         1 UNK         0.0600 
    130 H130       -0.7543  -15.7672  -48.6750 H         1 UNK         0.3000 
    131 H131       -1.3279  -13.1237  -47.6596 H         1 UNK         0.0600 
    132 H132        1.3539  -14.3535  -48.4489 H         1 UNK         0.0800 
    133 H133        1.0764  -12.6767  -48.0780 H         1 UNK         0.0800 
    134 H134        1.0561  -14.1544  -52.2082 H         1 UNK         0.0800 
    135 H135        2.2113  -14.1973  -50.9018 H         1 UNK         0.0800 
    136 H136       -1.0069  -15.7173  -52.0778 H         1 UNK         0.1150 
    137 H137       -0.2338  -19.4913  -50.2021 H         1 UNK         0.1150 
    138 H138        2.4755  -16.2237  -49.6300 H         1 UNK         0.1150 
    139 H139        1.9334  -19.8781  -49.1526 H         1 UNK         0.0800 
    140 H140        3.1404  -18.6291  -49.1572 H         1 UNK         0.0800 
    141 H141       -0.4754  -18.0858  -47.6645 H         1 UNK         0.0800 
    142 H142       -0.2712  -18.4180  -45.9744 H         1 UNK         0.0800 
    143 H143        0.0627  -20.6044  -48.0836 H         1 UNK         0.0600 
    144 H144        0.4309  -20.6619  -45.2816 H         1 UNK         0.3000 
    145 H145       -0.2463  -24.1741  -44.8557 H         1 UNK         0.0600 
    146 H146        1.9880  -23.9588  -43.7835 H         1 UNK         0.0600 
    147 H147        2.1235  -23.9662  -45.5350 H         1 UNK         0.0600 
    148 H148        2.2815  -22.4545  -44.6547 H         1 UNK         0.0600 
    149 H149        0.3753  -21.9727  -43.0843 H         1 UNK         0.3000 
    150 H150       -2.9976  -21.2404  -42.2119 H         1 UNK         0.0600 
    151 H151       -2.4704  -23.2671  -40.8509 H         1 UNK         0.0600 
    152 H152       -2.1786  -21.7948  -39.9391 H         1 UNK         0.0600 
    153 H153       -0.8222  -22.6977  -40.6148 H         1 UNK         0.0600 
    154 H154       -0.4834  -20.3111  -41.2106 H         1 UNK         0.3000 
    155 H155       -0.0292  -17.6534  -43.5465 H         1 UNK         0.0600 
    156 H156       -0.0403  -16.3454  -41.4491 H         1 UNK         0.0600 
    157 H157       -0.7786  -17.6845  -40.5719 H         1 UNK         0.0600 
    158 H158       -1.6805  -16.8503  -41.8286 H         1 UNK         0.0600 
    159 H159        1.5330  -18.2995  -41.3231 H         1 UNK         0.3000 
    160 H160        3.2171  -20.7617  -41.7797 H         1 UNK         0.0600 
    161 H161        4.5361  -19.1950  -44.0538 H         1 UNK         0.0600 
    162 H162        4.1295  -20.9026  -44.0490 H         1 UNK         0.0600 
    163 H163        5.3804  -20.3042  -42.9734 H         1 UNK         0.0600 
    164 H164        3.9410  -19.2256  -40.3819 H         1 UNK         0.3000 
    165 H165        3.6912  -16.5359  -39.7160 H         1 UNK         0.0600 
    166 H166        6.3719  -18.0147  -39.8420 H         1 UNK         0.0600 
    167 H167        5.8888  -16.9751  -38.5041 H         1 UNK         0.0600 
    168 H168        4.9711  -18.4225  -38.8609 H         1 UNK         0.0600 
    169 H169        4.5869  -14.6909  -40.5264 H         1 UNK         0.3000 
    170 H170        6.3615  -13.1780  -40.7053 H         1 UNK         0.0600 
    171 H171        8.7589  -13.8379  -40.9578 H         1 UNK         0.0600 
    172 H172        8.5263  -14.0557  -42.6885 H         1 UNK         0.0600 
    173 H173        8.3537  -12.4574  -41.9646 H         1 UNK         0.0600 
    174 H174        6.4398  -13.2473  -43.5899 H         1 UNK         0.3000 
    175 H175        4.6333  -11.9454  -44.5721 H         1 UNK         0.0600 
    176 H176        3.4740  -14.7838  -44.7439 H         1 UNK         0.0600 
    177 H177        3.6804  -13.6837  -46.1066 H         1 UNK         0.0600 
    178 H178        5.0851  -14.3052  -45.2589 H         1 UNK         0.0600 
    179 H179        1.9290  -12.8771  -44.4773 H         1 UNK         0.3000 
    180 H180        0.4897  -10.5629  -42.3995 H         1 UNK         0.0600 
    181 H181        0.5877   -9.8311  -45.3773 H         1 UNK         0.0600 
    182 H182        0.9505   -8.7430  -44.0434 H         1 UNK         0.0600 
    183 H183       -0.6794   -9.3633  -44.2420 H         1 UNK         0.0600 
    184 H184       -0.5202  -11.9151  -44.7488 H         1 UNK         0.3000 
    185 H185       -0.5890  -15.1282  -43.5749 H         1 UNK         0.0600 
    186 H186       -2.4866  -14.4242  -42.0866 H         1 UNK         0.0600 
    187 H187       -3.1322  -13.4257  -43.3832 H         1 UNK         0.0600 
    188 H188       -3.0644  -15.1793  -43.5634 H         1 UNK         0.0600 
    189 H189       -2.1936  -14.0433  -45.6104 H         1 UNK         0.3000 
    190 H190       -2.3517  -20.3999  -45.4691 H         1 UNK         0.3000 
    191 H191       -4.5793  -19.9168  -47.2189 H         1 UNK         0.0600 
    192 H192       -4.4527  -20.9985  -44.3586 H         1 UNK         0.0600 
    193 H193       -5.9220  -20.5101  -45.1952 H         1 UNK         0.0600 
    194 H194       -4.6760  -19.3220  -44.8439 H         1 UNK         0.0600 
    195 H195       -3.6616  -22.9178  -45.4021 H         1 UNK         0.3000 
    196 H196       -5.7283  -24.3757  -46.8648 H         1 UNK         0.0600 
    197 H197       -5.3091  -26.1078  -45.1484 H         1 UNK         0.0600 
    198 H198       -5.5538  -24.5349  -44.4051 H         1 UNK         0.0600 
    199 H199       -3.9301  -25.2062  -44.5333 H         1 UNK         0.0600 
    200 H200       -2.1724  -24.7903  -46.3571 H         1 UNK         0.3000 
    201 H201       -2.1186  -27.2690  -47.8201 H         1 UNK         0.0600 
    202 H202       -0.5621  -26.7584  -45.9266 H         1 UNK         0.0600 
    203 H203        0.2411  -25.5405  -46.9181 H         1 UNK         0.0600 
    204 H204        0.2883  -27.2284  -47.3895 H         1 UNK         0.0600 
    205 H205       -1.0768  -23.9347  -48.5906 H         1 UNK         0.3000 
    206 H206       -0.3376  -24.5529  -51.3399 H         1 UNK         0.0600 
    207 H207        0.6888  -22.6796  -50.0106 H         1 UNK         0.0600 
    208 H208       -0.0263  -22.1201  -51.5163 H         1 UNK         0.0600 
    209 H209       -0.8718  -21.8602  -49.9992 H         1 UNK         0.0600 
    210 H210       -3.2948  -24.0369  -49.7272 H         1 UNK         0.3000 
    211 H211       -5.4260  -23.9027  -50.2440 H         1 UNK         0.0600 
    212 H212       -4.6176  -24.9709  -52.9926 H         1 UNK         0.0600 
    213 H213       -6.2336  -24.9947  -52.3021 H         1 UNK         0.0600 
    214 H214       -4.9517  -25.9378  -51.5603 H         1 UNK         0.0600 
    215 H215       -5.0663  -21.6052  -49.9162 H         1 UNK         0.3000 
    216 H216       -4.9457  -19.6875  -52.0064 H         1 UNK         0.0600 
    217 H217       -4.4673  -19.1796  -49.6145 H         1 UNK         0.0600 
    218 H218       -6.1504  -19.4728  -49.1913 H         1 UNK         0.0600 
    219 H219       -5.7211  -18.1154  -50.2273 H         1 UNK         0.0600 
    220 H220       -7.6822  -21.4304  -50.5871 H         1 UNK         0.3000 
    221 H221       -9.7966  -19.8824  -51.7345 H         1 UNK         0.0600 
    222 H222       -9.7422  -22.7899  -50.7567 H         1 UNK         0.0600 
    223 H223      -10.1219  -21.3729  -49.7768 H         1 UNK         0.0600 
    224 H224      -11.1933  -21.8502  -51.0837 H         1 UNK         0.0600 
    225 H225       -7.8350  -22.5546  -52.9707 H         1 UNK         0.3000 
    226 H226       -9.4510  -22.9025  -55.4155 H         1 UNK         0.0600 
    227 H227       -8.3766  -24.8742  -54.2839 H         1 UNK         0.0600 
    228 H228       -7.7791  -24.6497  -55.9206 H         1 UNK         0.0600 
    229 H229       -6.7873  -24.1573  -54.5568 H         1 UNK         0.0600 
    230 H230       -6.8830  -20.9528  -54.2619 H         1 UNK         0.3000 
    231 H231       -5.4153  -19.5174  -55.0427 H         1 UNK         0.0600 
    232 H232       -5.8266  -18.2780  -57.1289 H         1 UNK         0.0600 
    233 H233       -7.3452  -18.5038  -56.2767 H         1 UNK         0.0600 
    234 H234       -6.9669  -19.4938  -57.6862 H         1 UNK         0.0600 
    235 H235       -4.7438  -22.2097  -55.0493 H         1 UNK         0.3000 
    236 H236       -3.3494  -22.8839  -57.5433 H         1 UNK         0.0600 
    237 H237       -4.6212  -24.5933  -56.2315 H         1 UNK         0.0600 
    238 H238       -2.9239  -25.0205  -56.3908 H         1 UNK         0.0600 
    239 H239       -3.5186  -24.3614  -54.8753 H         1 UNK         0.0600 
    240 H240       -2.5679  -20.9392  -54.9632 H         1 UNK         0.3000 
    241 H241       -0.0107  -21.5489  -54.1523 H         1 UNK         0.0600 
    242 H242        2.1428  -21.1769  -54.8853 H         1 UNK         0.3800 
    243 H243        2.4904  -20.4679  -56.4357 H         1 UNK         0.3800 
    244 H244        0.1765  -19.1486  -53.5126 H         1 UNK         0.0800 
    245 H245       -1.1829  -18.7420  -54.5352 H         1 UNK         0.0800 
    246 H246       -2.7998  -18.2653  -51.0225 H         1 UNK         0.0800 
    247 H247       -2.4459  -17.5409  -52.5702 H         1 UNK         0.0800 
@<TRIPOS>BOND
     1    1    2 1    
     2    1  127 1    
     3    1  128 1    
     4    1  129 1    
     5    2    3 2    
     6    2    4 am   BACKBONE|DICT|INTERRES
     7    4    5 1    
     8    4  130 1    
     9    5    6 1    
    10    5   65 1    
    11    5  131 1    
    12    6    7 1    
    13    6  132 1    
    14    6  133 1    
    15    7    8 1    
    16    8    9 1    
    17    8  134 1    
    18    8  135 1    
    19    9   10 ar   
    20    9   14 ar   
    21   10   11 ar   
    22   10  136 1    
    23   11   12 ar   
    24   11  126 1    
    25   12   13 ar   
    26   12  137 1    
    27   13   14 ar   
    28   13   15 1    
    29   14  138 1    
    30   15   16 1    
    31   15  139 1    
    32   15  140 1    
    33   16   17 1    
    34   17   18 1    
    35   17  141 1    
    36   17  142 1    
    37   18   19 1    
    38   18   67 1    
    39   18  143 1    
    40   19   20 am   BACKBONE|DICT|INTERRES
    41   19  144 1    
    42   20   21 2    
    43   20   22 1    
    44   22   23 1    
    45   22   24 1    
    46   22  145 1    
    47   23  146 1    
    48   23  147 1    
    49   23  148 1    
    50   24   25 am   BACKBONE|DICT|INTERRES
    51   24  149 1    
    52   25   26 2    
    53   25   27 1    
    54   27   28 1    
    55   27   29 1    
    56   27  150 1    
    57   28  151 1    
    58   28  152 1    
    59   28  153 1    
    60   29   30 am   BACKBONE|DICT|INTERRES
    61   29  154 1    
    62   30   31 2    
    63   30   32 1    
    64   32   33 1    
    65   32   34 1    
    66   32  155 1    
    67   33  156 1    
    68   33  157 1    
    69   33  158 1    
    70   34   35 am   BACKBONE|DICT|INTERRES
    71   34  159 1    
    72   35   36 2    
    73   35   37 1    
    74   37   38 1    
    75   37   39 1    
    76   37  160 1    
    77   38  161 1    
    78   38  162 1    
    79   38  163 1    
    80   39   40 am   BACKBONE|DICT|INTERRES
    81   39  164 1    
    82   40   41 2    
    83   40   42 1    
    84   42   43 1    
    85   42   44 1    
    86   42  165 1    
    87   43  166 1    
    88   43  167 1    
    89   43  168 1    
    90   44   45 am   BACKBONE|DICT|INTERRES
    91   44  169 1    
    92   45   46 2    
    93   45   47 1    
    94   47   48 1    
    95   47   49 1    
    96   47  170 1    
    97   48  171 1    
    98   48  172 1    
    99   48  173 1    
   100   49   50 am   BACKBONE|DICT|INTERRES
   101   49  174 1    
   102   50   51 2    
   103   50   52 1    
   104   52   53 1    
   105   52   54 1    
   106   52  175 1    
   107   53  176 1    
   108   53  177 1    
   109   53  178 1    
   110   54   55 am   BACKBONE|DICT|INTERRES
   111   54  179 1    
   112   55   56 2    
   113   55   57 1    
   114   57   58 1    
   115   57   59 1    
   116   57  180 1    
   117   58  181 1    
   118   58  182 1    
   119   58  183 1    
   120   59   60 am   BACKBONE|DICT|INTERRES
   121   59  184 1    
   122   60   61 2    
   123   60   62 1    
   124   62   63 1    
   125   62   64 1    
   126   62  185 1    
   127   63  186 1    
   128   63  187 1    
   129   63  188 1    
   130   64   65 am   BACKBONE|DICT|INTERRES
   131   64  189 1    
   132   65   66 2    
   133   67   68 2    
   134   67   69 am   BACKBONE|DICT|INTERRES
   135   69   70 1    
   136   69  190 1    
   137   70   71 1    
   138   70   72 1    
   139   70  191 1    
   140   71  192 1    
   141   71  193 1    
   142   71  194 1    
   143   72   73 2    
   144   72   74 am   BACKBONE|DICT|INTERRES
   145   74   75 1    
   146   74  195 1    
   147   75   76 1    
   148   75   77 1    
   149   75  196 1    
   150   76  197 1    
   151   76  198 1    
   152   76  199 1    
   153   77   78 2    
   154   77   79 am   BACKBONE|DICT|INTERRES
   155   79   80 1    
   156   79  200 1    
   157   80   81 1    
   158   80   82 1    
   159   80  201 1    
   160   81  202 1    
   161   81  203 1    
   162   81  204 1    
   163   82   83 2    
   164   82   84 am   BACKBONE|DICT|INTERRES
   165   84   85 1    
   166   84  205 1    
   167   85   86 1    
   168   85   87 1    
   169   85  206 1    
   170   86  207 1    
   171   86  208 1    
   172   86  209 1    
   173   87   88 2    
   174   87   89 am   BACKBONE|DICT|INTERRES
   175   89   90 1    
   176   89  210 1    
   177   90   91 1    
   178   90   92 1    
   179   90  211 1    
   180   91  212 1    
   181   91  213 1    
   182   91  214 1    
   183   92   93 2    
   184   92   94 am   BACKBONE|DICT|INTERRES
   185   94   95 1    
   186   94  215 1    
   187   95   96 1    
   188   95   97 1    
   189   95  216 1    
   190   96  217 1    
   191   96  218 1    
   192   96  219 1    
   193   97   98 2    
   194   97   99 am   BACKBONE|DICT|INTERRES
   195   99  100 1    
   196   99  220 1    
   197  100  101 1    
   198  100  102 1    
   199  100  221 1    
   200  101  222 1    
   201  101  223 1    
   202  101  224 1    
   203  102  103 2    
   204  102  104 am   BACKBONE|DICT|INTERRES
   205  104  105 1    
   206  104  225 1    
   207  105  106 1    
   208  105  107 1    
   209  105  226 1    
   210  106  227 1    
   211  106  228 1    
   212  106  229 1    
   213  107  108 2    
   214  107  109 am   BACKBONE|DICT|INTERRES
   215  109  110 1    
   216  109  230 1    
   217  110  111 1    
   218  110  112 1    
   219  110  231 1    
   220  111  232 1    
   221  111  233 1    
   222  111  234 1    
   223  112  113 2    
   224  112  114 am   BACKBONE|DICT|INTERRES
   225  114  115 1    
   226  114  235 1    
   227  115  116 1    
   228  115  117 1    
   229  115  236 1    
   230  116  237 1    
   231  116  238 1    
   232  116  239 1    
   233  117  118 2    
   234  117  119 am   BACKBONE|DICT|INTERRES
   235  119  120 1    
   236  119  240 1    
   237  120  121 1    
   238  120  124 1    
   239  120  241 1    
   240  121  122 am   BACKBONE|DICT|INTERRES
   241  121  123 2    
   242  122  242 1    
   243  122  243 1    
   244  124  125 1    
   245  124  244 1    
   246  124  245 1    
   247  125  126 1    
   248  126  246 1    
   249  126  247 1    
@<TRIPOS>SUBSTRUCTURE
     1 UNK         1 GROUP             0       ****    0 ROOT    
