@<TRIPOS>MOLECULE
3R540
247   249    1
SMALL
USER_CHARGES


@<TRIPOS>ATOM
      1 CA          5.5123  -14.3774  -44.4791 C.3       0 UNK        -0.1800 
      2 C           4.7761  -14.0344  -45.7663 C.2       0 UNK         0.5000 
      3 O           5.4085  -13.6296  -46.7419 O.2       0 UNK        -0.5000 
      4 N           3.4439  -14.1811  -45.7676 N.am      1 UNK        -0.5000 
      5 CA          2.5090  -13.8853  -46.8567 C.3       1 UNK         0.1400 
      6 C6          2.8411  -14.6181  -48.1836 C.3       23 UNK        -0.0398 
      7 S7          1.4837  -14.5743  -49.3995 S.3       23 UNK        -0.2404 
      8 C8          2.2532  -15.4426  -50.7992 C.3       23 UNK        -0.0205 
      9 C9          2.0216  -16.9464  -50.7495 C.ar      23 UNK        -0.0193 
     10 C10         0.9318  -17.5021  -51.4276 C.ar      23 UNK        -0.1150 
     11 C11         0.7517  -18.8869  -51.4681 C.ar      23 UNK        -0.0193 
     12 C12         1.6763  -19.7143  -50.8292 C.ar      23 UNK        -0.1150 
     13 C13         2.7440  -19.1758  -50.1029 C.ar      23 UNK        -0.0193 
     14 C14         2.9141  -17.7870  -50.0734 C.ar      23 UNK        -0.1150 
     15 C15         3.7321  -20.0975  -49.3906 C.3       23 UNK        -0.0205 
     16 S16         3.1525  -20.6426  -47.7435 S.3       23 UNK        -0.2404 
     17 C17         1.6695  -21.5905  -48.2044 C.3       23 UNK        -0.0398 
     18 CA          1.1958  -22.6827  -47.2150 C.3       11 UNK         0.1400 
     19 N           0.8519  -22.1933  -45.8737 N.am      11 UNK        -0.5000 
     20 C           0.4472  -22.9845  -44.8643 C.2       10 UNK         0.5000 
     21 O           0.4387  -24.2154  -44.9228 O.2       10 UNK        -0.5000 
     22 CA         -0.1068  -22.2986  -43.6008 C.3       10 UNK         0.1400 
     23 CB          1.0222  -21.8848  -42.6453 C.3       10 UNK        -0.1800 
     24 N          -0.9575  -21.1487  -43.9141 N.am      10 UNK        -0.5000 
     25 C          -2.1396  -21.2372  -44.5431 C.2       9 UNK         0.5000 
     26 O          -2.6624  -22.3057  -44.8584 O.2       9 UNK        -0.5000 
     27 CA         -2.8352  -19.9163  -44.9260 C.3       9 UNK         0.1400 
     28 CB         -3.6649  -19.3711  -43.7547 C.3       9 UNK        -0.1800 
     29 N          -1.8921  -18.8939  -45.3759 N.am      9 UNK        -0.5000 
     30 C          -1.1238  -18.9980  -46.4693 C.2       8 UNK         0.5000 
     31 O          -1.1815  -19.9413  -47.2553 O.2       8 UNK        -0.5000 
     32 CA         -0.0676  -17.8970  -46.6748 C.3       8 UNK         0.1400 
     33 CB         -0.6952  -16.6521  -47.3196 C.3       8 UNK        -0.1800 
     34 N           0.5828  -17.5311  -45.4122 N.am      8 UNK        -0.5000 
     35 C           1.3571  -18.3630  -44.6990 C.2       7 UNK         0.5000 
     36 O           1.6417  -19.5016  -45.0604 O.2       7 UNK        -0.5000 
     37 CA          1.8459  -17.8705  -43.3264 C.3       7 UNK         0.1400 
     38 CB          3.1586  -17.0904  -43.4604 C.3       7 UNK        -0.1800 
     39 N           0.8419  -17.0442  -42.6576 N.am      7 UNK        -0.5000 
     40 C          -0.2664  -17.5431  -42.0893 C.2       6 UNK         0.5000 
     41 O          -0.5130  -18.7474  -42.0269 O.2       6 UNK        -0.5000 
     42 CA         -1.2935  -16.5303  -41.5441 C.3       6 UNK         0.1400 
     43 CB         -0.9767  -16.1748  -40.0842 C.3       6 UNK        -0.1800 
     44 N          -1.3603  -15.3005  -42.3364 N.am      6 UNK        -0.5000 
     45 C          -1.7079  -15.2458  -43.6296 C.2       5 UNK         0.5000 
     46 O          -2.1017  -16.2244  -44.2623 O.2       5 UNK        -0.5000 
     47 CA         -1.5413  -13.8967  -44.3578 C.3       5 UNK         0.1400 
     48 CB         -2.9032  -13.2092  -44.5305 C.3       5 UNK        -0.1800 
     49 N          -0.6109  -12.9597  -43.7180 N.am      5 UNK        -0.5000 
     50 C           0.6919  -13.1763  -43.4922 C.2       4 UNK         0.5000 
     51 O           1.2685  -14.2334  -43.7619 O.2       4 UNK        -0.5000 
     52 CA          1.4639  -11.9936  -42.8921 C.3       4 UNK         0.1400 
     53 CB          2.9425  -12.3110  -42.5975 C.3       4 UNK        -0.1800 
     54 N           1.3676  -10.8581  -43.8042 N.am      4 UNK        -0.5000 
     55 C           1.4913   -9.5711  -43.4553 C.2       3 UNK         0.5000 
     56 O           1.6293   -9.1952  -42.2897 O.2       3 UNK        -0.5000 
     57 CA          1.4534   -8.5364  -44.6042 C.3       3 UNK         0.1400 
     58 CB          2.1417   -7.2042  -44.2389 C.3       3 UNK        -0.1800 
     59 N           1.9722   -9.0649  -45.8730 N.am      3 UNK        -0.5000 
     60 C           3.2106   -9.5189  -46.1176 C.2       2 UNK         0.5000 
     61 O           4.1379   -9.4878  -45.3065 O.2       2 UNK        -0.5000 
     62 CA          3.4209  -10.1860  -47.4900 C.3       2 UNK         0.1400 
     63 CB          4.7631   -9.7817  -48.1217 C.3       2 UNK        -0.1800 
     64 N           3.3720  -11.6426  -47.3726 N.am      2 UNK        -0.5000 
     65 C           2.3040  -12.3653  -47.0107 C.2       1 UNK         0.5000 
     66 O           1.2042  -11.8752  -46.7475 O.2       1 UNK        -0.5000 
     67 C          -0.0019  -23.4084  -47.8576 C.2       11 UNK         0.5000 
     68 O           0.1531  -24.5335  -48.3293 O.2       11 UNK        -0.5000 
     69 N          -1.1705  -22.7509  -47.8527 N.am      12 UNK        -0.5000 
     70 CA         -2.4072  -23.2414  -48.4547 C.3       12 UNK         0.1400 
     71 CB         -3.4999  -22.1714  -48.3499 C.3       12 UNK        -0.1800 
     72 C          -2.8970  -24.5634  -47.8508 C.2       12 UNK         0.5000 
     73 O          -3.3138  -25.4432  -48.6022 O.2       12 UNK        -0.5000 
     74 N          -2.8032  -24.6911  -46.5209 N.am      13 UNK        -0.5000 
     75 CA         -3.1329  -25.9045  -45.7757 C.3       13 UNK         0.1400 
     76 CB         -3.0908  -25.6016  -44.2703 C.3       13 UNK        -0.1800 
     77 C          -2.2100  -27.0892  -46.1164 C.2       13 UNK         0.5000 
     78 O          -2.6877  -28.2208  -46.2044 O.2       13 UNK        -0.5000 
     79 N          -0.9142  -26.8102  -46.3125 N.am      14 UNK        -0.5000 
     80 CA          0.0920  -27.8023  -46.6878 C.3       14 UNK         0.1400 
     81 CB          1.4920  -27.2495  -46.3777 C.3       14 UNK        -0.1800 
     82 C          -0.0186  -28.2198  -48.1656 C.2       14 UNK         0.5000 
     83 O           0.0452  -29.4118  -48.4690 O.2       14 UNK        -0.5000 
     84 N          -0.1740  -27.2322  -49.0562 N.am      15 UNK        -0.5000 
     85 CA         -0.2197  -27.4163  -50.5074 C.3       15 UNK         0.1400 
     86 CB          0.1420  -26.0828  -51.1817 C.3       15 UNK        -0.1800 
     87 C          -1.5786  -27.9147  -51.0321 C.2       15 UNK         0.5000 
     88 O          -1.6282  -28.4366  -52.1464 O.2       15 UNK        -0.5000 
     89 N          -2.6486  -27.7096  -50.2490 N.am      16 UNK        -0.5000 
     90 CA         -4.0615  -27.8586  -50.6190 C.3       16 UNK         0.1400 
     91 CB         -4.4133  -29.3269  -50.9385 C.3       16 UNK        -0.1800 
     92 C          -4.4489  -26.8676  -51.7386 C.2       16 UNK         0.5000 
     93 O          -5.0648  -27.2535  -52.7347 O.2       16 UNK        -0.5000 
     94 N          -4.0307  -25.6064  -51.5640 N.am      17 UNK        -0.5000 
     95 CA         -4.2286  -24.5176  -52.5211 C.3       17 UNK         0.1400 
     96 CB         -3.2649  -23.3676  -52.1870 C.3       17 UNK        -0.1800 
     97 C          -5.6788  -24.0030  -52.5331 C.2       17 UNK         0.5000 
     98 O          -6.4092  -24.1641  -51.5514 O.2       17 UNK        -0.5000 
     99 N          -6.0512  -23.3559  -53.6432 N.am      18 UNK        -0.5000 
    100 CA        -7.3285  -22.6679  -53.8166 C.3       18 UNK         0.1400 
    101 CB        -7.5104  -22.3403  -55.3070 C.3       18 UNK        -0.1800 
    102 C         -7.3921  -21.3744  -52.9861 C.2       18 UNK         0.5000 
    103 O         -6.3562  -20.7487  -52.7353 O.2       18 UNK        -0.5000 
    104 N         -8.6136  -20.9550  -52.6324 N.am      19 UNK        -0.5000 
    105 CA        -8.8987  -19.7108  -51.9069 C.3       19 UNK         0.1400 
    106 CB       -10.3934  -19.6650  -51.5557 C.3       19 UNK        -0.1800 
    107 C         -8.4874  -18.4412  -52.6795 C.2       19 UNK         0.5000 
    108 O         -8.1312  -17.4383  -52.0609 O.2       19 UNK        -0.5000 
    109 N         -8.5218  -18.5208  -54.0169 N.am      20 UNK        -0.5000 
    110 CA        -8.0701  -17.4711  -54.9295 C.3       20 UNK         0.1400 
    111 CB        -8.6332  -17.7571  -56.3304 C.3       20 UNK        -0.1800 
    112 C         -6.5353  -17.3362  -54.9851 C.2       20 UNK         0.5000 
    113 O         -6.0420  -16.2553  -55.3098 O.2       20 UNK        -0.5000 
    114 N         -5.8109  -18.4230  -54.6812 N.am      21 UNK        -0.5000 
    115 CA        -4.3513  -18.4483  -54.6243 C.3       21 UNK         0.1400 
    116 CB        -3.8381  -19.8632  -54.9455 C.3       21 UNK        -0.1800 
    117 C         -3.8599  -17.9699  -53.2503 C.2       21 UNK         0.5000 
    118 O         -3.1018  -17.0020  -53.1787 O.2       21 UNK        -0.5000 
    119 N         -4.3166  -18.6474  -52.1914 N.am      22 UNK        -0.5000 
    120 CA        -3.9587  -18.3677  -50.7911 C.3       22 UNK         0.1400 
    121 C         -4.8548  -19.0815  -49.7400 C.2       22 UNK         0.5000 
    122 N         -5.7248  -20.0163  -50.1019 N.am      22 UNK        -0.7600 
    123 O         -4.7798  -18.7587  -48.5579 O.2       22 UNK        -0.5000 
    124 C124       -2.4419  -18.5437  -50.4777 C.3       23 UNK        -0.0398 
    125 S125       -1.7093  -20.1103  -51.0752 S.3       23 UNK        -0.2404 
    126 C126       -0.4248  -19.5009  -52.2153 C.3       23 UNK        -0.0205 
    127 H127        6.1466  -15.2506  -44.6316 H         1 UNK         0.0600 
    128 H128        4.8255  -14.5930  -43.6607 H         1 UNK         0.0600 
    129 H129        6.1448  -13.5429  -44.1758 H         1 UNK         0.0600 
    130 H130        2.9800  -14.4493  -44.9067 H         1 UNK         0.3000 
    131 H131        1.5557  -14.2823  -46.5066 H         1 UNK         0.0600 
    132 H132        3.7380  -14.2066  -48.6477 H         1 UNK         0.0800 
    133 H133        3.0597  -15.6646  -47.9687 H         1 UNK         0.0800 
    134 H134        3.3217  -15.2258  -50.8378 H         1 UNK         0.0800 
    135 H135        1.8365  -15.0396  -51.7235 H         1 UNK         0.0800 
    136 H136        0.2339  -16.8557  -51.9415 H         1 UNK         0.1150 
    137 H137        1.5468  -20.7837  -50.8951 H         1 UNK         0.1150 
    138 H138        3.7551  -17.3623  -49.5441 H         1 UNK         0.1150 
    139 H139        3.9352  -20.9715  -50.0112 H         1 UNK         0.0800 
    140 H140        4.6900  -19.5897  -49.2688 H         1 UNK         0.0800 
    141 H141        1.8919  -22.0753  -49.1559 H         1 UNK         0.0800 
    142 H142        0.8742  -20.8724  -48.4034 H         1 UNK         0.0800 
    143 H143        2.0027  -23.4092  -47.0987 H         1 UNK         0.0600 
    144 H144        0.9030  -21.1894  -45.7253 H         1 UNK         0.3000 
    145 H145       -0.7279  -23.0291  -43.0780 H         1 UNK         0.0600 
    146 H146        0.6267  -21.4071  -41.7488 H         1 UNK         0.0600 
    147 H147        1.5941  -22.7563  -42.3246 H         1 UNK         0.0600 
    148 H148        1.7219  -21.1942  -43.1129 H         1 UNK         0.0600 
    149 H149       -0.6129  -20.2357  -43.6451 H         1 UNK         0.3000 
    150 H150       -3.5151  -20.1243  -45.7547 H         1 UNK         0.0600 
    151 H151       -4.4112  -20.0992  -43.4346 H         1 UNK         0.0600 
    152 H152       -4.1961  -18.4621  -44.0378 H         1 UNK         0.0600 
    153 H153       -3.0418  -19.1388  -42.8913 H         1 UNK         0.0600 
    154 H154       -1.8308  -18.0463  -44.8191 H         1 UNK         0.3000 
    155 H155        0.7035  -18.2795  -47.3479 H         1 UNK         0.0600 
    156 H156       -1.6350  -16.3691  -46.8456 H         1 UNK         0.0600 
    157 H157       -0.0280  -15.7958  -47.2624 H         1 UNK         0.0600 
    158 H158       -0.9022  -16.8286  -48.3749 H         1 UNK         0.0600 
    159 H159        0.3576  -16.6280  -45.0235 H         1 UNK         0.3000 
    160 H160        2.0427  -18.7470  -42.7053 H         1 UNK         0.0600 
    161 H161        3.0339  -16.2204  -44.0993 H         1 UNK         0.0600 
    162 H162        3.9389  -17.7118  -43.9016 H         1 UNK         0.0600 
    163 H163        3.5197  -16.7493  -42.4901 H         1 UNK         0.0600 
    164 H164        0.9615  -16.0398  -42.7201 H         1 UNK         0.3000 
    165 H165       -2.2764  -17.0048  -41.5774 H         1 UNK         0.0600 
    166 H166       -1.7399  -15.5203  -39.6628 H         1 UNK         0.0600 
    167 H167       -0.9404  -17.0713  -39.4637 H         1 UNK         0.0600 
    168 H168       -0.0132  -15.6719  -39.9917 H         1 UNK         0.0600 
    169 H169       -1.0556  -14.4505  -41.8865 H         1 UNK         0.3000 
    170 H170       -1.1448  -14.1186  -45.3508 H         1 UNK         0.0600 
    171 H171       -3.6134  -13.8676  -45.0330 H         1 UNK         0.0600 
    172 H172       -3.3372  -12.9300  -43.5696 H         1 UNK         0.0600 
    173 H173       -2.8159  -12.3070  -45.1362 H         1 UNK         0.0600 
    174 H174       -0.9916  -12.0568  -43.4727 H         1 UNK         0.3000 
    175 H175        0.9715  -11.7475  -41.9490 H         1 UNK         0.0600 
    176 H176        3.5141  -12.4272  -43.5169 H         1 UNK         0.0600 
    177 H177        3.4077  -11.5101  -42.0228 H         1 UNK         0.0600 
    178 H178        3.0469  -13.2278  -42.0160 H         1 UNK         0.0600 
    179 H179        1.2302  -11.0882  -44.7836 H         1 UNK         0.3000 
    180 H180        0.3978   -8.3215  -44.7757 H         1 UNK         0.0600 
    181 H181        3.1903   -7.3471  -43.9766 H         1 UNK         0.0600 
    182 H182        1.6539   -6.7331  -43.3849 H         1 UNK         0.0600 
    183 H183        2.0961   -6.4967  -45.0668 H         1 UNK         0.0600 
    184 H184        1.2779   -9.1924  -46.5971 H         1 UNK         0.3000 
    185 H185        2.6226   -9.8688  -48.1642 H         1 UNK         0.0600 
    186 H186        4.8410   -8.6975  -48.2113 H         1 UNK         0.0600 
    187 H187        5.6105  -10.1247  -47.5263 H         1 UNK         0.0600 
    188 H188        4.8682  -10.1993  -49.1232 H         1 UNK         0.0600 
    189 H189        4.2556  -12.1343  -47.4579 H         1 UNK         0.3000 
    190 H190       -1.1974  -21.8044  -47.4791 H         1 UNK         0.3000 
    191 H191       -2.1918  -23.4175  -49.5087 H         1 UNK         0.0600 
    192 H192       -3.7934  -21.9899  -47.3165 H         1 UNK         0.0600 
    193 H193       -4.3942  -22.4704  -48.8978 H         1 UNK         0.0600 
    194 H194       -3.1610  -21.2253  -48.7670 H         1 UNK         0.0600 
    195 H195       -2.5063  -23.8864  -45.9753 H         1 UNK         0.3000 
    196 H196       -4.1531  -26.1915  -46.0388 H         1 UNK         0.0600 
    197 H197       -3.3424  -26.4868  -43.6849 H         1 UNK         0.0600 
    198 H198       -3.8055  -24.8222  -44.0057 H         1 UNK         0.0600 
    199 H199       -2.1013  -25.2675  -43.9556 H         1 UNK         0.0600 
    200 H200       -0.5978  -25.8532  -46.2132 H         1 UNK         0.3000 
    201 H201       -0.0575  -28.6949  -46.0764 H         1 UNK         0.0600 
    202 H202        1.5972  -27.0193  -45.3173 H         1 UNK         0.0600 
    203 H203        1.7011  -26.3372  -46.9373 H         1 UNK         0.0600 
    204 H204        2.2645  -27.9762  -46.6321 H         1 UNK         0.0600 
    205 H205       -0.1713  -26.2689  -48.7238 H         1 UNK         0.3000 
    206 H206        0.5338  -28.1549  -50.7891 H         1 UNK         0.0600 
    207 H207        1.1284  -25.7379  -50.8710 H         1 UNK         0.0600 
    208 H208        0.1593  -26.1825  -52.2677 H         1 UNK         0.0600 
    209 H209       -0.5781  -25.3014  -50.9350 H         1 UNK         0.0600 
    210 H210       -2.4957  -27.2172  -49.3765 H         1 UNK         0.3000 
    211 H211       -4.6408  -27.5703  -49.7408 H         1 UNK         0.0600 
    212 H212       -3.9296  -29.6768  -51.8506 H         1 UNK         0.0600 
    213 H213       -5.4886  -29.4455  -51.0763 H         1 UNK         0.0600 
    214 H214       -4.1152  -29.9884  -50.1251 H         1 UNK         0.0600 
    215 H215       -3.6040  -25.3718  -50.6760 H         1 UNK         0.3000 
    216 H216       -3.9835  -24.8954  -53.5161 H         1 UNK         0.0600 
    217 H217       -3.2611  -22.6192  -52.9800 H         1 UNK         0.0600 
    218 H218       -2.2398  -23.7199  -52.0729 H         1 UNK         0.0600 
    219 H219       -3.5558  -22.8548  -51.2705 H         1 UNK         0.0600 
    220 H220       -5.3788  -23.2367  -54.3862 H         1 UNK         0.3000 
    221 H221       -8.1319  -23.3351  -53.4975 H         1 UNK         0.0600 
    222 H222       -6.7312  -21.6690  -55.6714 H         1 UNK         0.0600 
    223 H223       -7.4840  -23.2447  -55.9152 H         1 UNK         0.0600 
    224 H224       -8.4713  -21.8578  -55.4905 H         1 UNK         0.0600 
    225 H225       -9.4142  -21.5186  -52.8807 H         1 UNK         0.3000 
    226 H226       -8.3331  -19.7259  -50.9742 H         1 UNK         0.0600 
    227 H227      -10.6797  -20.5160  -50.9374 H         1 UNK         0.0600 
    228 H228      -10.6350  -18.7617  -50.9938 H         1 UNK         0.0600 
    229 H229      -11.0181  -19.6726  -52.4497 H         1 UNK         0.0600 
    230 H230       -8.8483  -19.3782  -54.4368 H         1 UNK         0.3000 
    231 H231       -8.4746  -16.5165  -54.5864 H         1 UNK         0.0600 
    232 H232       -8.3391  -16.9788  -57.0359 H         1 UNK         0.0600 
    233 H233       -9.7228  -17.7883  -56.3191 H         1 UNK         0.0600 
    234 H234       -8.2729  -18.7090  -56.7229 H         1 UNK         0.0600 
    235 H235       -6.2888  -19.2519  -54.3563 H         1 UNK         0.3000 
    236 H236       -3.9469  -17.7729  -55.3815 H         1 UNK         0.0600 
    237 H237       -4.1418  -20.1726  -55.9456 H         1 UNK         0.0600 
    238 H238       -2.7485  -19.8970  -54.9111 H         1 UNK         0.0600 
    239 H239       -4.2075  -20.6076  -54.2409 H         1 UNK         0.0600 
    240 H240       -4.9540  -19.4194  -52.3455 H         1 UNK         0.3000 
    241 H241       -4.1871  -17.3109  -50.6409 H         1 UNK         0.0600 
    242 H242       -5.8433  -20.3171  -51.0639 H         1 UNK         0.3800 
    243 H243       -6.2823  -20.4451  -49.3821 H         1 UNK         0.3800 
    244 H244       -2.2552  -18.4774  -49.4056 H         1 UNK         0.0800 
    245 H245       -1.8929  -17.7065  -50.9067 H         1 UNK         0.0800 
    246 H246       -0.0701  -20.3359  -52.8208 H         1 UNK         0.0800 
    247 H247       -0.8612  -18.7843  -52.9125 H         1 UNK         0.0800 
@<TRIPOS>BOND
     1    1    2 1    
     2    1  127 1    
     3    1  128 1    
     4    1  129 1    
     5    2    3 2    
     6    2    4 am   BACKBONE|DICT|INTERRES
     7    4    5 1    
     8    4  130 1    
     9    5    6 1    
    10    5   65 1    
    11    5  131 1    
    12    6    7 1    
    13    6  132 1    
    14    6  133 1    
    15    7    8 1    
    16    8    9 1    
    17    8  134 1    
    18    8  135 1    
    19    9   10 ar   
    20    9   14 ar   
    21   10   11 ar   
    22   10  136 1    
    23   11   12 ar   
    24   11  126 1    
    25   12   13 ar   
    26   12  137 1    
    27   13   14 ar   
    28   13   15 1    
    29   14  138 1    
    30   15   16 1    
    31   15  139 1    
    32   15  140 1    
    33   16   17 1    
    34   17   18 1    
    35   17  141 1    
    36   17  142 1    
    37   18   19 1    
    38   18   67 1    
    39   18  143 1    
    40   19   20 am   BACKBONE|DICT|INTERRES
    41   19  144 1    
    42   20   21 2    
    43   20   22 1    
    44   22   23 1    
    45   22   24 1    
    46   22  145 1    
    47   23  146 1    
    48   23  147 1    
    49   23  148 1    
    50   24   25 am   BACKBONE|DICT|INTERRES
    51   24  149 1    
    52   25   26 2    
    53   25   27 1    
    54   27   28 1    
    55   27   29 1    
    56   27  150 1    
    57   28  151 1    
    58   28  152 1    
    59   28  153 1    
    60   29   30 am   BACKBONE|DICT|INTERRES
    61   29  154 1    
    62   30   31 2    
    63   30   32 1    
    64   32   33 1    
    65   32   34 1    
    66   32  155 1    
    67   33  156 1    
    68   33  157 1    
    69   33  158 1    
    70   34   35 am   BACKBONE|DICT|INTERRES
    71   34  159 1    
    72   35   36 2    
    73   35   37 1    
    74   37   38 1    
    75   37   39 1    
    76   37  160 1    
    77   38  161 1    
    78   38  162 1    
    79   38  163 1    
    80   39   40 am   BACKBONE|DICT|INTERRES
    81   39  164 1    
    82   40   41 2    
    83   40   42 1    
    84   42   43 1    
    85   42   44 1    
    86   42  165 1    
    87   43  166 1    
    88   43  167 1    
    89   43  168 1    
    90   44   45 am   BACKBONE|DICT|INTERRES
    91   44  169 1    
    92   45   46 2    
    93   45   47 1    
    94   47   48 1    
    95   47   49 1    
    96   47  170 1    
    97   48  171 1    
    98   48  172 1    
    99   48  173 1    
   100   49   50 am   BACKBONE|DICT|INTERRES
   101   49  174 1    
   102   50   51 2    
   103   50   52 1    
   104   52   53 1    
   105   52   54 1    
   106   52  175 1    
   107   53  176 1    
   108   53  177 1    
   109   53  178 1    
   110   54   55 am   BACKBONE|DICT|INTERRES
   111   54  179 1    
   112   55   56 2    
   113   55   57 1    
   114   57   58 1    
   115   57   59 1    
   116   57  180 1    
   117   58  181 1    
   118   58  182 1    
   119   58  183 1    
   120   59   60 am   BACKBONE|DICT|INTERRES
   121   59  184 1    
   122   60   61 2    
   123   60   62 1    
   124   62   63 1    
   125   62   64 1    
   126   62  185 1    
   127   63  186 1    
   128   63  187 1    
   129   63  188 1    
   130   64   65 am   BACKBONE|DICT|INTERRES
   131   64  189 1    
   132   65   66 2    
   133   67   68 2    
   134   67   69 am   BACKBONE|DICT|INTERRES
   135   69   70 1    
   136   69  190 1    
   137   70   71 1    
   138   70   72 1    
   139   70  191 1    
   140   71  192 1    
   141   71  193 1    
   142   71  194 1    
   143   72   73 2    
   144   72   74 am   BACKBONE|DICT|INTERRES
   145   74   75 1    
   146   74  195 1    
   147   75   76 1    
   148   75   77 1    
   149   75  196 1    
   150   76  197 1    
   151   76  198 1    
   152   76  199 1    
   153   77   78 2    
   154   77   79 am   BACKBONE|DICT|INTERRES
   155   79   80 1    
   156   79  200 1    
   157   80   81 1    
   158   80   82 1    
   159   80  201 1    
   160   81  202 1    
   161   81  203 1    
   162   81  204 1    
   163   82   83 2    
   164   82   84 am   BACKBONE|DICT|INTERRES
   165   84   85 1    
   166   84  205 1    
   167   85   86 1    
   168   85   87 1    
   169   85  206 1    
   170   86  207 1    
   171   86  208 1    
   172   86  209 1    
   173   87   88 2    
   174   87   89 am   BACKBONE|DICT|INTERRES
   175   89   90 1    
   176   89  210 1    
   177   90   91 1    
   178   90   92 1    
   179   90  211 1    
   180   91  212 1    
   181   91  213 1    
   182   91  214 1    
   183   92   93 2    
   184   92   94 am   BACKBONE|DICT|INTERRES
   185   94   95 1    
   186   94  215 1    
   187   95   96 1    
   188   95   97 1    
   189   95  216 1    
   190   96  217 1    
   191   96  218 1    
   192   96  219 1    
   193   97   98 2    
   194   97   99 am   BACKBONE|DICT|INTERRES
   195   99  100 1    
   196   99  220 1    
   197  100  101 1    
   198  100  102 1    
   199  100  221 1    
   200  101  222 1    
   201  101  223 1    
   202  101  224 1    
   203  102  103 2    
   204  102  104 am   BACKBONE|DICT|INTERRES
   205  104  105 1    
   206  104  225 1    
   207  105  106 1    
   208  105  107 1    
   209  105  226 1    
   210  106  227 1    
   211  106  228 1    
   212  106  229 1    
   213  107  108 2    
   214  107  109 am   BACKBONE|DICT|INTERRES
   215  109  110 1    
   216  109  230 1    
   217  110  111 1    
   218  110  112 1    
   219  110  231 1    
   220  111  232 1    
   221  111  233 1    
   222  111  234 1    
   223  112  113 2    
   224  112  114 am   BACKBONE|DICT|INTERRES
   225  114  115 1    
   226  114  235 1    
   227  115  116 1    
   228  115  117 1    
   229  115  236 1    
   230  116  237 1    
   231  116  238 1    
   232  116  239 1    
   233  117  118 2    
   234  117  119 am   BACKBONE|DICT|INTERRES
   235  119  120 1    
   236  119  240 1    
   237  120  121 1    
   238  120  124 1    
   239  120  241 1    
   240  121  122 am   BACKBONE|DICT|INTERRES
   241  121  123 2    
   242  122  242 1    
   243  122  243 1    
   244  124  125 1    
   245  124  244 1    
   246  124  245 1    
   247  125  126 1    
   248  126  246 1    
   249  126  247 1    
@<TRIPOS>SUBSTRUCTURE
     1 UNK         1 GROUP             0       ****    0 ROOT    
