@<TRIPOS>MOLECULE
3R540
247   249    1
SMALL
USER_CHARGES


@<TRIPOS>ATOM
      1 CA         -4.8499  -15.2368  -48.5470 C.3       0 UNK        -0.1800 
      2 C          -3.5765  -14.4666  -48.8680 C.2       0 UNK         0.5000 
      3 O          -3.5650  -13.6605  -49.7986 O.2       0 UNK        -0.5000 
      4 N          -2.5037  -14.7215  -48.1109 N.am      1 UNK        -0.5000 
      5 CA         -1.1902  -14.0899  -48.2696 C.3       1 UNK         0.1400 
      6 C6         -0.0906  -14.8273  -47.4643 C.3       23 UNK        -0.0398 
      7 S7          0.0482  -16.5782  -47.9385 S.3       23 UNK        -0.2404 
      8 C8          1.4931  -16.5454  -49.0382 C.3       23 UNK        -0.0205 
      9 C9          1.6144  -17.8630  -49.7832 C.ar      23 UNK        -0.0193 
     10 C10         1.1379  -17.9771  -51.0916 C.ar      23 UNK        -0.1150 
     11 C11         1.2210  -19.1948  -51.7793 C.ar      23 UNK        -0.0193 
     12 C12         1.7623  -20.3044  -51.1220 C.ar      23 UNK        -0.1150 
     13 C13         2.2367  -20.2089  -49.8103 C.ar      23 UNK        -0.0193 
     14 C14         2.1789  -18.9748  -49.1545 C.ar      23 UNK        -0.1150 
     15 C15         2.7971  -21.4518  -49.1203 C.3       23 UNK        -0.0205 
     16 S16         2.2956  -21.6338  -47.3722 S.3       23 UNK        -0.2404 
     17 C17         0.4749  -21.5393  -47.4784 C.3       23 UNK        -0.0398 
     18 CA         -0.2345  -22.8748  -47.1629 C.3       11 UNK         0.1400 
     19 N           0.1185  -23.4066  -45.8439 N.am      11 UNK        -0.5000 
     20 C          -0.1945  -24.6384  -45.4151 C.2       10 UNK         0.5000 
     21 O          -0.8035  -25.4612  -46.0965 O.2       10 UNK        -0.5000 
     22 CA          0.1868  -24.9974  -43.9663 C.3       10 UNK         0.1400 
     23 CB          1.6033  -25.5884  -43.9176 C.3       10 UNK        -0.1800 
     24 N           0.1111  -23.8601  -43.0498 N.am      10 UNK        -0.5000 
     25 C          -0.9798  -23.1159  -42.8153 C.2       9 UNK         0.5000 
     26 O          -2.0860  -23.3562  -43.2997 O.2       9 UNK        -0.5000 
     27 CA         -0.7863  -21.8610  -41.9408 C.3       9 UNK         0.1400 
     28 CB         -1.2301  -22.1390  -40.4974 C.3       9 UNK        -0.1800 
     29 N           0.5964  -21.3679  -41.9358 N.am      9 UNK        -0.5000 
     30 C           1.2354  -20.8757  -43.0063 C.2       8 UNK         0.5000 
     31 O           0.7173  -20.7595  -44.1192 O.2       8 UNK        -0.5000 
     32 CA          2.7273  -20.5529  -42.8157 C.3       8 UNK         0.1400 
     33 CB          3.5846  -21.7448  -43.2710 C.3       8 UNK        -0.1800 
     34 N           3.1402  -19.3637  -43.5579 N.am      8 UNK        -0.5000 
     35 C           2.7899  -18.1129  -43.2379 C.2       7 UNK         0.5000 
     36 O           2.0507  -17.8276  -42.2915 O.2       7 UNK        -0.5000 
     37 CA          3.3650  -16.9959  -44.1298 C.3       7 UNK         0.1400 
     38 CB          2.3889  -16.6536  -45.2633 C.3       7 UNK        -0.1800 
     39 N           3.6406  -15.7869  -43.3554 N.am      7 UNK        -0.5000 
     40 C           4.6159  -15.6718  -42.4431 C.2       6 UNK         0.5000 
     41 O           5.4804  -16.5288  -42.2527 O.2       6 UNK        -0.5000 
     42 CA          4.6062  -14.3990  -41.5770 C.3       6 UNK         0.1400 
     43 CB          5.2412  -13.2145  -42.3203 C.3       6 UNK        -0.1800 
     44 N           3.2518  -14.0412  -41.1585 N.am      6 UNK        -0.5000 
     45 C           2.5428  -14.6826  -40.2206 C.2       5 UNK         0.5000 
     46 O           3.0064  -15.5909  -39.5295 O.2       5 UNK        -0.5000 
     47 CA          1.0677  -14.2703  -40.0152 C.3       5 UNK         0.1400 
     48 CB          0.9075  -13.3651  -38.7779 C.3       5 UNK        -0.1800 
     49 N           0.4112  -13.6908  -41.1982 N.am      5 UNK        -0.5000 
     50 C           0.6469  -12.5157  -41.7960 C.2       4 UNK         0.5000 
     51 O           1.4666  -11.6861  -41.3963 O.2       4 UNK        -0.5000 
     52 CA         -0.1344  -12.2461  -43.0947 C.3       4 UNK         0.1400 
     53 CB         -1.2821  -11.2562  -42.8479 C.3       4 UNK        -0.1800 
     54 N           0.7312  -11.7217  -44.1504 N.am      4 UNK        -0.5000 
     55 C           1.8016  -12.3432  -44.6609 C.2       3 UNK         0.5000 
     56 O           2.1665  -13.4657  -44.3051 O.2       3 UNK        -0.5000 
     57 CA          2.5570  -11.5944  -45.7800 C.3       3 UNK         0.1400 
     58 CB          3.7717  -12.3836  -46.3029 C.3       3 UNK        -0.1800 
     59 N           1.6711  -11.3138  -46.9089 N.am      3 UNK        -0.5000 
     60 C           0.7629  -10.3301  -46.9816 C.2       2 UNK         0.5000 
     61 O           0.6295   -9.4576  -46.1228 O.2       2 UNK        -0.5000 
     62 CA         -0.1972  -10.3802  -48.1870 C.3       2 UNK         0.1400 
     63 CB          0.3924   -9.6201  -49.3845 C.3       2 UNK        -0.1800 
     64 N          -0.4943  -11.7611  -48.5828 N.am      2 UNK        -0.5000 
     65 C          -1.2253  -12.6094  -47.8454 C.2       1 UNK         0.5000 
     66 O          -1.8446  -12.2783  -46.8314 O.2       1 UNK        -0.5000 
     67 C          -1.7574  -22.6944  -47.3139 C.2       11 UNK         0.5000 
     68 O          -2.2933  -22.9372  -48.3953 O.2       11 UNK        -0.5000 
     69 N          -2.4274  -22.2716  -46.2333 N.am      12 UNK        -0.5000 
     70 CA         -3.8794  -22.1178  -46.1801 C.3       12 UNK         0.1400 
     71 CB         -4.2616  -21.1927  -45.0156 C.3       12 UNK        -0.1800 
     72 C          -4.5820  -23.4802  -46.0659 C.2       12 UNK         0.5000 
     73 O          -5.5884  -23.6961  -46.7394 O.2       12 UNK        -0.5000 
     74 N          -4.0140  -24.3913  -45.2614 N.am      13 UNK        -0.5000 
     75 CA         -4.4887  -25.7674  -45.0864 C.3       13 UNK         0.1400 
     76 CB         -3.6928  -26.4441  -43.9611 C.3       13 UNK        -0.1800 
     77 C          -4.4167  -26.6002  -46.3818 C.2       13 UNK         0.5000 
     78 O          -5.3321  -27.3754  -46.6592 O.2       13 UNK        -0.5000 
     79 N          -3.3539  -26.3914  -47.1712 N.am      14 UNK        -0.5000 
     80 CA         -3.1641  -26.9727  -48.5029 C.3       14 UNK         0.1400 
     81 CB         -1.6750  -26.8719  -48.8726 C.3       14 UNK        -0.1800 
     82 C          -4.0257  -26.3071  -49.5972 C.2       14 UNK         0.5000 
     83 O          -4.0555  -26.8088  -50.7209 O.2       14 UNK        -0.5000 
     84 N          -4.6731  -25.1793  -49.2658 N.am      15 UNK        -0.5000 
     85 CA         -5.4721  -24.3004  -50.1270 C.3       15 UNK         0.1400 
     86 CB         -6.6767  -25.0437  -50.7385 C.3       15 UNK        -0.1800 
     87 C          -4.6513  -23.5470  -51.1926 C.2       15 UNK         0.5000 
     88 O          -5.2412  -22.9257  -52.0805 O.2       15 UNK        -0.5000 
     89 N          -3.3155  -23.5727  -51.0770 N.am      16 UNK        -0.5000 
     90 CA         -2.3784  -22.8272  -51.9148 C.3       16 UNK         0.1400 
     91 CB         -0.9360  -23.2536  -51.6005 C.3       16 UNK        -0.1800 
     92 C          -2.5676  -21.3188  -51.7261 C.2       16 UNK         0.5000 
     93 O          -2.7730  -20.6061  -52.7067 O.2       16 UNK        -0.5000 
     94 N          -2.6069  -20.8845  -50.4621 N.am      17 UNK        -0.5000 
     95 CA         -2.9439  -19.5240  -50.0484 C.3       17 UNK         0.1400 
     96 CB         -2.1910  -19.1951  -48.7499 C.3       17 UNK        -0.1800 
     97 C          -4.4696  -19.3442  -49.9106 C.2       17 UNK         0.5000 
     98 O          -4.9403  -18.8113  -48.9045 O.2       17 UNK        -0.5000 
     99 N          -5.2203  -19.8080  -50.9158 N.am      18 UNK        -0.5000 
    100 CA        -6.6718  -19.6913  -50.9879 C.3       18 UNK         0.1400 
    101 CB        -7.3629  -20.7915  -50.1606 C.3       18 UNK        -0.1800 
    102 C         -7.1303  -19.7042  -52.4492 C.2       18 UNK         0.5000 
    103 O         -7.7598  -18.7391  -52.8848 O.2       18 UNK        -0.5000 
    104 N         -6.8045  -20.7756  -53.1879 N.am      19 UNK        -0.5000 
    105 CA        -7.2928  -20.9740  -54.5565 C.3       19 UNK         0.1400 
    106 CB        -8.7124  -21.5698  -54.5162 C.3       19 UNK        -0.1800 
    107 C         -6.3789  -21.8408  -55.4369 C.2       19 UNK         0.5000 
    108 O         -6.4159  -21.6819  -56.6575 O.2       19 UNK        -0.5000 
    109 N         -5.5916  -22.7478  -54.8418 N.am      20 UNK        -0.5000 
    110 CA        -4.8108  -23.7456  -55.5802 C.3       20 UNK         0.1400 
    111 CB        -4.5233  -24.9503  -54.6690 C.3       20 UNK        -0.1800 
    112 C         -3.5129  -23.1975  -56.2054 C.2       20 UNK         0.5000 
    113 O         -2.9454  -23.8677  -57.0696 O.2       20 UNK        -0.5000 
    114 N         -3.0643  -22.0081  -55.7813 N.am      21 UNK        -0.5000 
    115 CA        -1.8786  -21.3440  -56.3239 C.3       21 UNK         0.1400 
    116 CB        -0.6114  -21.8546  -55.6148 C.3       21 UNK        -0.1800 
    117 C         -1.9954  -19.8142  -56.2545 C.2       21 UNK         0.5000 
    118 O         -1.8040  -19.1475  -57.2722 O.2       21 UNK        -0.5000 
    119 N         -2.3090  -19.2897  -55.0653 N.am      22 UNK        -0.5000 
    120 CA        -2.3595  -17.8525  -54.7428 C.3       22 UNK         0.1400 
    121 C         -3.7869  -17.3714  -54.3481 C.2       22 UNK         0.5000 
    122 N         -4.8338  -18.1557  -54.5702 N.am      22 UNK        -0.7600 
    123 O         -3.9558  -16.2633  -53.8475 O.2       22 UNK        -0.5000 
    124 C124       -1.3116  -17.4808  -53.6569 C.3       23 UNK        -0.0398 
    125 S125        0.4038  -17.8507  -54.1645 S.3       23 UNK        -0.2404 
    126 C126        0.7359  -19.3784  -53.2185 C.3       23 UNK        -0.0205 
    127 H127       -5.1815  -15.7951  -49.4227 H         1 UNK         0.0600 
    128 H128       -5.6438  -14.5482  -48.2582 H         1 UNK         0.0600 
    129 H129       -4.7004  -15.9469  -47.7331 H         1 UNK         0.0600 
    130 H130       -2.5758  -15.3857  -47.3543 H         1 UNK         0.3000 
    131 H131       -0.9272  -14.1387  -49.3287 H         1 UNK         0.0600 
    132 H132        0.8813  -14.3478  -47.5934 H         1 UNK         0.0800 
    133 H133       -0.3043  -14.7869  -46.3942 H         1 UNK         0.0800 
    134 H134        1.3995  -15.7188  -49.7441 H         1 UNK         0.0800 
    135 H135        2.3959  -16.3595  -48.4547 H         1 UNK         0.0800 
    136 H136        0.7018  -17.1089  -51.5621 H         1 UNK         0.1150 
    137 H137        1.8150  -21.2525  -51.6388 H         1 UNK         0.1150 
    138 H138        2.5417  -18.8840  -48.1406 H         1 UNK         0.1150 
    139 H139        2.4920  -22.3530  -49.6547 H         1 UNK         0.0800 
    140 H140        3.8859  -21.4166  -49.1705 H         1 UNK         0.0800 
    141 H141        0.1879  -21.2032  -48.4749 H         1 UNK         0.0800 
    142 H142        0.1470  -20.7552  -46.7932 H         1 UNK         0.0800 
    143 H143        0.0798  -23.6073  -47.9097 H         1 UNK         0.0600 
    144 H144        0.5956  -22.7679  -45.2206 H         1 UNK         0.3000 
    145 H145       -0.5138  -25.7552  -43.6127 H         1 UNK         0.0600 
    146 H146        1.8589  -25.9200  -42.9111 H         1 UNK         0.0600 
    147 H147        1.6870  -26.4551  -44.5748 H         1 UNK         0.0600 
    148 H148        2.3540  -24.8628  -44.2340 H         1 UNK         0.0600 
    149 H149        0.9709  -23.5899  -42.5974 H         1 UNK         0.3000 
    150 H150       -1.4240  -21.0757  -42.3519 H         1 UNK         0.0600 
    151 H151       -0.6141  -22.9062  -40.0267 H         1 UNK         0.0600 
    152 H152       -2.2646  -22.4841  -40.4669 H         1 UNK         0.0600 
    153 H153       -1.1718  -21.2382  -39.8861 H         1 UNK         0.0600 
    154 H154        1.0923  -21.4385  -41.0586 H         1 UNK         0.3000 
    155 H155        2.9183  -20.3744  -41.7552 H         1 UNK         0.0600 
    156 H156        3.4381  -21.9657  -44.3294 H         1 UNK         0.0600 
    157 H157        3.3345  -22.6464  -42.7105 H         1 UNK         0.0600 
    158 H158        4.6458  -21.5513  -43.1129 H         1 UNK         0.0600 
    159 H159        3.7072  -19.5232  -44.3774 H         1 UNK         0.3000 
    160 H160        4.3024  -17.3407  -44.5714 H         1 UNK         0.0600 
    161 H161        1.4359  -16.2901  -44.8766 H         1 UNK         0.0600 
    162 H162        2.1812  -17.5305  -45.8778 H         1 UNK         0.0600 
    163 H163        2.7976  -15.8842  -45.9184 H         1 UNK         0.0600 
    164 H164        2.9909  -15.0160  -43.4796 H         1 UNK         0.3000 
    165 H165        5.2047  -14.5967  -40.6851 H         1 UNK         0.0600 
    166 H166        5.3201  -12.3414  -41.6725 H         1 UNK         0.0600 
    167 H167        6.2478  -13.4600  -42.6611 H         1 UNK         0.0600 
    168 H168        4.6571  -12.9289  -43.1941 H         1 UNK         0.0600 
    169 H169        2.8035  -13.2772  -41.6490 H         1 UNK         0.3000 
    170 H170        0.5248  -15.1945  -39.8109 H         1 UNK         0.0600 
    171 H171        1.2694  -13.8688  -37.8808 H         1 UNK         0.0600 
    172 H172        1.4696  -12.4360  -38.8740 H         1 UNK         0.0600 
    173 H173       -0.1385  -13.1103  -38.6073 H         1 UNK         0.0600 
    174 H174       -0.2605  -14.3055  -41.6370 H         1 UNK         0.3000 
    175 H175       -0.5594  -13.1847  -43.4565 H         1 UNK         0.0600 
    176 H176       -1.9619  -11.6289  -42.0807 H         1 UNK         0.0600 
    177 H177       -0.9111  -10.2856  -42.5162 H         1 UNK         0.0600 
    178 H178       -1.8683  -11.1001  -43.7541 H         1 UNK         0.0600 
    179 H179        0.5038  -10.8030  -44.5121 H         1 UNK         0.3000 
    180 H180        2.9183  -10.6523  -45.3626 H         1 UNK         0.0600 
    181 H181        3.4787  -13.3484  -46.7190 H         1 UNK         0.0600 
    182 H182        4.4901  -12.5752  -45.5061 H         1 UNK         0.0600 
    183 H183        4.2964  -11.8288  -47.0809 H         1 UNK         0.0600 
    184 H184        1.6946  -11.9840  -47.6615 H         1 UNK         0.3000 
    185 H185       -1.1300   -9.8925  -47.8954 H         1 UNK         0.0600 
    186 H186        0.6044   -8.5830  -49.1209 H         1 UNK         0.0600 
    187 H187        1.3251  -10.0682  -49.7295 H         1 UNK         0.0600 
    188 H188       -0.3039   -9.6050  -50.2232 H         1 UNK         0.0600 
    189 H189       -0.0418  -12.0954  -49.4217 H         1 UNK         0.3000 
    190 H190       -1.9235  -22.1324  -45.3688 H         1 UNK         0.3000 
    191 H191       -4.2144  -21.6448  -47.1064 H         1 UNK         0.0600 
    192 H192       -3.7938  -20.2138  -45.1224 H         1 UNK         0.0600 
    193 H193       -5.3404  -21.0352  -44.9838 H         1 UNK         0.0600 
    194 H194       -3.9626  -21.6044  -44.0515 H         1 UNK         0.0600 
    195 H195       -3.2149  -24.1096  -44.7008 H         1 UNK         0.3000 
    196 H196       -5.5357  -25.7181  -44.7804 H         1 UNK         0.0600 
    197 H197       -4.0863  -27.4392  -43.7505 H         1 UNK         0.0600 
    198 H198       -3.7459  -25.8693  -43.0362 H         1 UNK         0.0600 
    199 H199       -2.6423  -26.5581  -44.2265 H         1 UNK         0.0600 
    200 H200       -2.6006  -25.8024  -46.8282 H         1 UNK         0.3000 
    201 H201       -3.4386  -28.0288  -48.4659 H         1 UNK         0.0600 
    202 H202       -1.4778  -27.3222  -49.8462 H         1 UNK         0.0600 
    203 H203       -1.0525  -27.3922  -48.1445 H         1 UNK         0.0600 
    204 H204       -1.3420  -25.8339  -48.9165 H         1 UNK         0.0600 
    205 H205       -4.5941  -24.8640  -48.3071 H         1 UNK         0.3000 
    206 H206       -5.8676  -23.5297  -49.4651 H         1 UNK         0.0600 
    207 H207       -7.2467  -25.5684  -49.9718 H         1 UNK         0.0600 
    208 H208       -7.3586  -24.3472  -51.2279 H         1 UNK         0.0600 
    209 H209       -6.3680  -25.7726  -51.4881 H         1 UNK         0.0600 
    210 H210       -2.9266  -24.0261  -50.2614 H         1 UNK         0.3000 
    211 H211       -2.5818  -23.0590  -52.9604 H         1 UNK         0.0600 
    212 H212       -0.6619  -23.0450  -50.5660 H         1 UNK         0.0600 
    213 H213       -0.2262  -22.7259  -52.2384 H         1 UNK         0.0600 
    214 H214       -0.7964  -24.3208  -51.7737 H         1 UNK         0.0600 
    215 H215       -2.5135  -21.5743  -49.7221 H         1 UNK         0.3000 
    216 H216       -2.6077  -18.8181  -50.8091 H         1 UNK         0.0600 
    217 H217       -2.4040  -18.1761  -48.4260 H         1 UNK         0.0600 
    218 H218       -1.1135  -19.2675  -48.8940 H         1 UNK         0.0600 
    219 H219       -2.4738  -19.8607  -47.9353 H         1 UNK         0.0600 
    220 H220       -4.7548  -20.1973  -51.7265 H         1 UNK         0.3000 
    221 H221       -6.9620  -18.7235  -50.5725 H         1 UNK         0.0600 
    222 H222       -7.1521  -21.7866  -50.5483 H         1 UNK         0.0600 
    223 H223       -7.0474  -20.7647  -49.1175 H         1 UNK         0.0600 
    224 H224       -8.4456  -20.6616  -50.1749 H         1 UNK         0.0600 
    225 H225       -6.2814  -21.5371  -52.7636 H         1 UNK         0.3000 
    226 H226       -7.3462  -20.0045  -55.0567 H         1 UNK         0.0600 
    227 H227       -9.0951  -21.7461  -55.5224 H         1 UNK         0.0600 
    228 H228       -8.7295  -22.5224  -53.9853 H         1 UNK         0.0600 
    229 H229       -9.4121  -20.8974  -54.0199 H         1 UNK         0.0600 
    230 H230       -5.5749  -22.8309  -53.8282 H         1 UNK         0.3000 
    231 H231       -5.4256  -24.1106  -56.4061 H         1 UNK         0.0600 
    232 H232       -3.8579  -24.6948  -53.8473 H         1 UNK         0.0600 
    233 H233       -4.0485  -25.7565  -55.2292 H         1 UNK         0.0600 
    234 H234       -5.4424  -25.3515  -54.2414 H         1 UNK         0.0600 
    235 H235       -3.5941  -21.5101  -55.0815 H         1 UNK         0.3000 
    236 H236       -1.7892  -21.5892  -57.3848 H         1 UNK         0.0600 
    237 H237        0.2664  -21.2765  -55.9064 H         1 UNK         0.0600 
    238 H238       -0.7069  -21.7941  -54.5320 H         1 UNK         0.0600 
    239 H239       -0.4136  -22.8959  -55.8693 H         1 UNK         0.0600 
    240 H240       -2.4513  -19.8988  -54.2608 H         1 UNK         0.3000 
    241 H241       -2.1150  -17.2733  -55.6345 H         1 UNK         0.0600 
    242 H242       -5.7556  -17.8356  -54.3160 H         1 UNK         0.3800 
    243 H243       -4.7104  -19.0397  -55.0316 H         1 UNK         0.3800 
    244 H244       -1.3536  -16.4132  -53.4350 H         1 UNK         0.0800 
    245 H245       -1.5347  -17.9916  -52.7202 H         1 UNK         0.0800 
    246 H246        1.4869  -19.9458  -53.7700 H         1 UNK         0.0800 
    247 H247       -0.1624  -19.9927  -53.2038 H         1 UNK         0.0800 
@<TRIPOS>BOND
     1    1    2 1    
     2    1  127 1    
     3    1  128 1    
     4    1  129 1    
     5    2    3 2    
     6    2    4 am   BACKBONE|DICT|INTERRES
     7    4    5 1    
     8    4  130 1    
     9    5    6 1    
    10    5   65 1    
    11    5  131 1    
    12    6    7 1    
    13    6  132 1    
    14    6  133 1    
    15    7    8 1    
    16    8    9 1    
    17    8  134 1    
    18    8  135 1    
    19    9   10 ar   
    20    9   14 ar   
    21   10   11 ar   
    22   10  136 1    
    23   11   12 ar   
    24   11  126 1    
    25   12   13 ar   
    26   12  137 1    
    27   13   14 ar   
    28   13   15 1    
    29   14  138 1    
    30   15   16 1    
    31   15  139 1    
    32   15  140 1    
    33   16   17 1    
    34   17   18 1    
    35   17  141 1    
    36   17  142 1    
    37   18   19 1    
    38   18   67 1    
    39   18  143 1    
    40   19   20 am   BACKBONE|DICT|INTERRES
    41   19  144 1    
    42   20   21 2    
    43   20   22 1    
    44   22   23 1    
    45   22   24 1    
    46   22  145 1    
    47   23  146 1    
    48   23  147 1    
    49   23  148 1    
    50   24   25 am   BACKBONE|DICT|INTERRES
    51   24  149 1    
    52   25   26 2    
    53   25   27 1    
    54   27   28 1    
    55   27   29 1    
    56   27  150 1    
    57   28  151 1    
    58   28  152 1    
    59   28  153 1    
    60   29   30 am   BACKBONE|DICT|INTERRES
    61   29  154 1    
    62   30   31 2    
    63   30   32 1    
    64   32   33 1    
    65   32   34 1    
    66   32  155 1    
    67   33  156 1    
    68   33  157 1    
    69   33  158 1    
    70   34   35 am   BACKBONE|DICT|INTERRES
    71   34  159 1    
    72   35   36 2    
    73   35   37 1    
    74   37   38 1    
    75   37   39 1    
    76   37  160 1    
    77   38  161 1    
    78   38  162 1    
    79   38  163 1    
    80   39   40 am   BACKBONE|DICT|INTERRES
    81   39  164 1    
    82   40   41 2    
    83   40   42 1    
    84   42   43 1    
    85   42   44 1    
    86   42  165 1    
    87   43  166 1    
    88   43  167 1    
    89   43  168 1    
    90   44   45 am   BACKBONE|DICT|INTERRES
    91   44  169 1    
    92   45   46 2    
    93   45   47 1    
    94   47   48 1    
    95   47   49 1    
    96   47  170 1    
    97   48  171 1    
    98   48  172 1    
    99   48  173 1    
   100   49   50 am   BACKBONE|DICT|INTERRES
   101   49  174 1    
   102   50   51 2    
   103   50   52 1    
   104   52   53 1    
   105   52   54 1    
   106   52  175 1    
   107   53  176 1    
   108   53  177 1    
   109   53  178 1    
   110   54   55 am   BACKBONE|DICT|INTERRES
   111   54  179 1    
   112   55   56 2    
   113   55   57 1    
   114   57   58 1    
   115   57   59 1    
   116   57  180 1    
   117   58  181 1    
   118   58  182 1    
   119   58  183 1    
   120   59   60 am   BACKBONE|DICT|INTERRES
   121   59  184 1    
   122   60   61 2    
   123   60   62 1    
   124   62   63 1    
   125   62   64 1    
   126   62  185 1    
   127   63  186 1    
   128   63  187 1    
   129   63  188 1    
   130   64   65 am   BACKBONE|DICT|INTERRES
   131   64  189 1    
   132   65   66 2    
   133   67   68 2    
   134   67   69 am   BACKBONE|DICT|INTERRES
   135   69   70 1    
   136   69  190 1    
   137   70   71 1    
   138   70   72 1    
   139   70  191 1    
   140   71  192 1    
   141   71  193 1    
   142   71  194 1    
   143   72   73 2    
   144   72   74 am   BACKBONE|DICT|INTERRES
   145   74   75 1    
   146   74  195 1    
   147   75   76 1    
   148   75   77 1    
   149   75  196 1    
   150   76  197 1    
   151   76  198 1    
   152   76  199 1    
   153   77   78 2    
   154   77   79 am   BACKBONE|DICT|INTERRES
   155   79   80 1    
   156   79  200 1    
   157   80   81 1    
   158   80   82 1    
   159   80  201 1    
   160   81  202 1    
   161   81  203 1    
   162   81  204 1    
   163   82   83 2    
   164   82   84 am   BACKBONE|DICT|INTERRES
   165   84   85 1    
   166   84  205 1    
   167   85   86 1    
   168   85   87 1    
   169   85  206 1    
   170   86  207 1    
   171   86  208 1    
   172   86  209 1    
   173   87   88 2    
   174   87   89 am   BACKBONE|DICT|INTERRES
   175   89   90 1    
   176   89  210 1    
   177   90   91 1    
   178   90   92 1    
   179   90  211 1    
   180   91  212 1    
   181   91  213 1    
   182   91  214 1    
   183   92   93 2    
   184   92   94 am   BACKBONE|DICT|INTERRES
   185   94   95 1    
   186   94  215 1    
   187   95   96 1    
   188   95   97 1    
   189   95  216 1    
   190   96  217 1    
   191   96  218 1    
   192   96  219 1    
   193   97   98 2    
   194   97   99 am   BACKBONE|DICT|INTERRES
   195   99  100 1    
   196   99  220 1    
   197  100  101 1    
   198  100  102 1    
   199  100  221 1    
   200  101  222 1    
   201  101  223 1    
   202  101  224 1    
   203  102  103 2    
   204  102  104 am   BACKBONE|DICT|INTERRES
   205  104  105 1    
   206  104  225 1    
   207  105  106 1    
   208  105  107 1    
   209  105  226 1    
   210  106  227 1    
   211  106  228 1    
   212  106  229 1    
   213  107  108 2    
   214  107  109 am   BACKBONE|DICT|INTERRES
   215  109  110 1    
   216  109  230 1    
   217  110  111 1    
   218  110  112 1    
   219  110  231 1    
   220  111  232 1    
   221  111  233 1    
   222  111  234 1    
   223  112  113 2    
   224  112  114 am   BACKBONE|DICT|INTERRES
   225  114  115 1    
   226  114  235 1    
   227  115  116 1    
   228  115  117 1    
   229  115  236 1    
   230  116  237 1    
   231  116  238 1    
   232  116  239 1    
   233  117  118 2    
   234  117  119 am   BACKBONE|DICT|INTERRES
   235  119  120 1    
   236  119  240 1    
   237  120  121 1    
   238  120  124 1    
   239  120  241 1    
   240  121  122 am   BACKBONE|DICT|INTERRES
   241  121  123 2    
   242  122  242 1    
   243  122  243 1    
   244  124  125 1    
   245  124  244 1    
   246  124  245 1    
   247  125  126 1    
   248  126  246 1    
   249  126  247 1    
@<TRIPOS>SUBSTRUCTURE
     1 UNK         1 GROUP             0       ****    0 ROOT    
