@<TRIPOS>MOLECULE
3R540
247   249    1
SMALL
USER_CHARGES


@<TRIPOS>ATOM
      1 CA          5.4187  -18.0515  -50.2368 C.3       0 UNK        -0.1800 
      2 C           4.5915  -17.4571  -49.1057 C.2       0 UNK         0.5000 
      3 O           4.5022  -18.0561  -48.0335 O.2       0 UNK        -0.5000 
      4 N           3.9832  -16.2881  -49.3440 N.am      1 UNK        -0.5000 
      5 CA          3.1469  -15.5780  -48.3738 C.3       1 UNK         0.1400 
      6 C6          2.2634  -14.4958  -49.0500 C.3       23 UNK        -0.0398 
      7 S7          0.6541  -14.3499  -48.1959 S.3       23 UNK        -0.2404 
      8 C8         -0.5609  -14.7805  -49.4873 C.3       23 UNK        -0.0205 
      9 C9         -0.2063  -16.0335  -50.2797 C.ar      23 UNK        -0.0193 
     10 C10        -0.0284  -15.9499  -51.6651 C.ar      23 UNK        -0.1150 
     11 C11         0.2645  -17.0915  -52.4141 C.ar      23 UNK        -0.0193 
     12 C12         0.3954  -18.3204  -51.7654 C.ar      23 UNK        -0.1150 
     13 C13         0.2071  -18.4237  -50.3861 C.ar      23 UNK        -0.0193 
     14 C14        -0.0853  -17.2741  -49.6446 C.ar      23 UNK        -0.1150 
     15 C15         0.2483  -19.7910  -49.7227 C.3       23 UNK        -0.0205 
     16 S16         1.9488  -20.4113  -49.5086 S.3       23 UNK        -0.2404 
     17 C17         1.9823  -20.7387  -47.7150 C.3       23 UNK        -0.0398 
     18 CA          1.6274  -22.1931  -47.3114 C.3       11 UNK         0.1400 
     19 N           1.8927  -22.4223  -45.8889 N.am      11 UNK        -0.5000 
     20 C           1.8636  -23.6136  -45.2753 C.2       10 UNK         0.5000 
     21 O           1.6703  -24.6816  -45.8552 O.2       10 UNK        -0.5000 
     22 CA          2.0349  -23.5968  -43.7450 C.3       10 UNK         0.1400 
     23 CB          3.5219  -23.5405  -43.3648 C.3       10 UNK        -0.1800 
     24 N           1.3275  -22.4796  -43.1140 N.am      10 UNK        -0.5000 
     25 C          -0.0074  -22.3649  -43.0677 C.2       9 UNK         0.5000 
     26 O          -0.7804  -23.2027  -43.5306 O.2       9 UNK        -0.5000 
     27 CA         -0.5752  -21.0785  -42.4406 C.3       9 UNK         0.1400 
     28 CB         -0.6576  -21.2071  -40.9128 C.3       9 UNK        -0.1800 
     29 N           0.1730  -19.8674  -42.7833 N.am      9 UNK        -0.5000 
     30 C           0.3740  -19.4010  -44.0223 C.2       8 UNK         0.5000 
     31 O           0.0433  -20.0212  -45.0331 O.2       8 UNK        -0.5000 
     32 CA          1.0557  -18.0204  -44.1507 C.3       8 UNK         0.1400 
     33 CB          1.0232  -17.4876  -45.5945 C.3       8 UNK        -0.1800 
     34 N           0.4435  -17.0149  -43.2829 N.am      8 UNK        -0.5000 
     35 C           0.6185  -16.8895  -41.9611 C.2       7 UNK         0.5000 
     36 O           1.3433  -17.6294  -41.2951 O.2       7 UNK        -0.5000 
     37 CA         -0.1952  -15.7852  -41.2670 C.3       7 UNK         0.1400 
     38 CB          0.4983  -14.4212  -41.4060 C.3       7 UNK        -0.1800 
     39 N          -1.5504  -15.7070  -41.8127 N.am      7 UNK        -0.5000 
     40 C          -2.5291  -16.5787  -41.5276 C.2       6 UNK         0.5000 
     41 O          -2.4188  -17.4862  -40.7027 O.2       6 UNK        -0.5000 
     42 CA         -3.8516  -16.4152  -42.3004 C.3       6 UNK         0.1400 
     43 CB         -4.7974  -15.4623  -41.5538 C.3       6 UNK        -0.1800 
     44 N          -3.6516  -15.9210  -43.6633 N.am      6 UNK        -0.5000 
     45 C          -3.1241  -16.6401  -44.6650 C.2       5 UNK         0.5000 
     46 O          -2.7998  -17.8218  -44.5612 O.2       5 UNK        -0.5000 
     47 CA         -2.8982  -15.8986  -45.9975 C.3       5 UNK         0.1400 
     48 CB         -4.1307  -16.0339  -46.9029 C.3       5 UNK        -0.1800 
     49 N          -2.5919  -14.4750  -45.8207 N.am      5 UNK        -0.5000 
     50 C          -1.4900  -14.0055  -45.2236 C.2       4 UNK         0.5000 
     51 O          -0.6136  -14.7239  -44.7362 O.2       4 UNK        -0.5000 
     52 CA         -1.3649  -12.4838  -45.1073 C.3       4 UNK         0.1400 
     53 CB         -1.9265  -11.9954  -43.7601 C.3       4 UNK        -0.1800 
     54 N           0.0449  -12.1373  -45.2248 N.am      4 UNK        -0.5000 
     55 C           0.5353  -10.9430  -45.5703 C.2       3 UNK         0.5000 
     56 O          -0.1757   -9.9575  -45.7739 O.2       3 UNK        -0.5000 
     57 CA          2.0617  -10.8163  -45.7726 C.3       3 UNK         0.1400 
     58 CB          2.6727   -9.7319  -44.8614 C.3       3 UNK        -0.1800 
     59 N           2.8105  -12.0797  -45.6875 N.am      3 UNK        -0.5000 
     60 C           3.0841  -12.8257  -44.6062 C.2       2 UNK         0.5000 
     61 O           2.7204  -12.5404  -43.4658 O.2       2 UNK        -0.5000 
     62 CA          3.8550  -14.1341  -44.8721 C.3       2 UNK         0.1400 
     63 CB          3.7634  -15.1234  -43.6968 C.3       2 UNK        -0.1800 
     64 N           3.3251  -14.7798  -46.0732 N.am      2 UNK        -0.5000 
     65 C           3.9799  -14.9693  -47.2232 C.2       1 UNK         0.5000 
     66 O           5.1524  -14.6354  -47.4110 O.2       1 UNK        -0.5000 
     67 C           0.1666  -22.5564  -47.6494 C.2       11 UNK         0.5000 
     68 O          -0.0762  -23.2919  -48.6060 O.2       11 UNK        -0.5000 
     69 N          -0.7732  -22.0694  -46.8274 N.am      12 UNK        -0.5000 
     70 CA         -2.2048  -22.3264  -46.9523 C.3       12 UNK         0.1400 
     71 CB         -2.9725  -21.4753  -45.9304 C.3       12 UNK        -0.1800 
     72 C          -2.5684  -23.8153  -46.8266 C.2       12 UNK         0.5000 
     73 O          -3.3395  -24.3186  -47.6451 O.2       12 UNK        -0.5000 
     74 N          -1.9757  -24.4961  -45.8357 N.am      13 UNK        -0.5000 
     75 CA         -2.1325  -25.9317  -45.6012 C.3       13 UNK         0.1400 
     76 CB         -1.4808  -26.3061  -44.2615 C.3       13 UNK        -0.1800 
     77 C          -1.5614  -26.7967  -46.7390 C.2       13 UNK         0.5000 
     78 O          -2.1642  -27.8146  -47.0812 O.2       13 UNK        -0.5000 
     79 N          -0.4232  -26.3769  -47.3099 N.am      14 UNK        -0.5000 
     80 CA          0.2040  -27.0260  -48.4610 C.3       14 UNK         0.1400 
     81 CB          1.6363  -26.4981  -48.6355 C.3       14 UNK        -0.1800 
     82 C          -0.6086  -26.8416  -49.7555 C.2       14 UNK         0.5000 
     83 O          -0.7245  -27.7876  -50.5357 O.2       14 UNK        -0.5000 
     84 N          -1.1522  -25.6337  -49.9580 N.am      15 UNK        -0.5000 
     85 CA         -1.9779  -25.2743  -51.1078 C.3       15 UNK         0.1400 
     86 CB         -2.1462  -23.7500  -51.1606 C.3       15 UNK        -0.1800 
     87 C          -3.3470  -25.9757  -51.0995 C.2       15 UNK         0.5000 
     88 O          -3.6807  -26.6544  -52.0715 O.2       15 UNK        -0.5000 
     89 N          -4.1051  -25.7912  -50.0061 N.am      16 UNK        -0.5000 
     90 CA         -5.4435  -26.3422  -49.7508 C.3       16 UNK         0.1400 
     91 CB         -5.3437  -27.8537  -49.4605 C.3       16 UNK        -0.1800 
     92 C          -6.4823  -26.0073  -50.8498 C.2       16 UNK         0.5000 
     93 O          -7.3217  -26.8440  -51.1890 O.2       16 UNK        -0.5000 
     94 N          -6.3990  -24.7885  -51.3942 N.am      17 UNK        -0.5000 
     95 CA         -7.2028  -24.2643  -52.4973 C.3       17 UNK         0.1400 
     96 CB         -6.7281  -24.8847  -53.8284 C.3       17 UNK        -0.1800 
     97 C          -7.0719  -22.7310  -52.5015 C.2       17 UNK         0.5000 
     98 O          -6.4815  -22.1730  -51.5752 O.2       17 UNK        -0.5000 
     99 N          -7.5658  -22.0624  -53.5553 N.am      18 UNK        -0.5000 
    100 CA        -7.4449  -20.6088  -53.7653 C.3       18 UNK         0.1400 
    101 CB        -8.1784  -20.2216  -55.0574 C.3       18 UNK        -0.1800 
    102 C         -5.9871  -20.0983  -53.8019 C.2       18 UNK         0.5000 
    103 O         -5.7193  -18.9564  -53.4215 O.2       18 UNK        -0.5000 
    104 N         -5.0575  -20.9874  -54.1775 N.am      19 UNK        -0.5000 
    105 CA        -3.6063  -20.8136  -54.0965 C.3       19 UNK         0.1400 
    106 CB        -2.9333  -22.0153  -54.7791 C.3       19 UNK        -0.1800 
    107 C         -3.0606  -20.6174  -52.6634 C.2       19 UNK         0.5000 
    108 O         -1.8850  -20.2971  -52.5201 O.2       19 UNK        -0.5000 
    109 N         -3.9000  -20.7961  -51.6307 N.am      20 UNK        -0.5000 
    110 CA        -3.6059  -20.4435  -50.2407 C.3       20 UNK         0.1400 
    111 CB        -4.6797  -21.0552  -49.3269 C.3       20 UNK        -0.1800 
    112 C         -3.5279  -18.9247  -49.9962 C.2       20 UNK         0.5000 
    113 O         -2.9573  -18.5178  -48.9852 O.2       20 UNK        -0.5000 
    114 N         -4.1192  -18.1277  -50.8961 N.am      21 UNK        -0.5000 
    115 CA        -4.1071  -16.6670  -50.8495 C.3       21 UNK         0.1400 
    116 CB        -5.5051  -16.1691  -50.4493 C.3       21 UNK        -0.1800 
    117 C         -3.6711  -16.0402  -52.1843 C.2       21 UNK         0.5000 
    118 O         -3.1811  -14.9107  -52.1716 O.2       21 UNK        -0.5000 
    119 N         -3.8672  -16.7546  -53.3036 N.am      22 UNK        -0.5000 
    120 CA        -3.5637  -16.3101  -54.6773 C.3       22 UNK         0.1400 
    121 C         -4.4624  -15.1390  -55.1873 C.2       22 UNK         0.5000 
    122 N         -5.6203  -14.8861  -54.5885 N.am      22 UNK        -0.7600 
    123 O         -4.1304  -14.4676  -56.1608 O.2       22 UNK        -0.5000 
    124 C124       -2.0465  -16.0637  -54.9302 C.3       23 UNK        -0.0398 
    125 S125       -1.0534  -17.5898  -54.8039 S.3       23 UNK        -0.2404 
    126 C126        0.4345  -17.0136  -53.9229 C.3       23 UNK        -0.0205 
    127 H127        5.4089  -17.4175  -51.1237 H         1 UNK         0.0600 
    128 H128        5.0229  -19.0289  -50.5137 H         1 UNK         0.0600 
    129 H129        6.4536  -18.1780  -49.9193 H         1 UNK         0.0600 
    130 H130        4.1231  -15.8280  -50.2314 H         1 UNK         0.3000 
    131 H131        2.4919  -16.3384  -47.9426 H         1 UNK         0.0600 
    132 H132        2.0912  -14.7403  -50.0976 H         1 UNK         0.0800 
    133 H133        2.7508  -13.5191  -49.0678 H         1 UNK         0.0800 
    134 H134       -0.6735  -13.9243  -50.1542 H         1 UNK         0.0800 
    135 H135       -1.5332  -14.9262  -49.0152 H         1 UNK         0.0800 
    136 H136       -0.1375  -14.9978  -52.1650 H         1 UNK         0.1150 
    137 H137        0.6044  -19.2101  -52.3428 H         1 UNK         0.1150 
    138 H138       -0.2482  -17.3472  -48.5787 H         1 UNK         0.1150 
    139 H139       -0.2863  -19.7560  -48.7725 H         1 UNK         0.0800 
    140 H140       -0.2958  -20.5063  -50.3401 H         1 UNK         0.0800 
    141 H141        1.3344  -20.0248  -47.2119 H         1 UNK         0.0800 
    142 H142        2.9924  -20.5056  -47.3750 H         1 UNK         0.0800 
    143 H143        2.2738  -22.8687  -47.8759 H         1 UNK         0.0600 
    144 H144        1.9944  -21.5980  -45.3162 H         1 UNK         0.3000 
    145 H145        1.6184  -24.5277  -43.3541 H         1 UNK         0.0600 
    146 H146        3.6550  -23.6065  -42.2848 H         1 UNK         0.0600 
    147 H147        4.0695  -24.3722  -43.8101 H         1 UNK         0.0600 
    148 H148        3.9924  -22.6174  -43.7056 H         1 UNK         0.0600 
    149 H149        1.8899  -21.7446  -42.7109 H         1 UNK         0.3000 
    150 H150       -1.5894  -20.9489  -42.8233 H         1 UNK         0.0600 
    151 H151       -1.2295  -22.0902  -40.6247 H         1 UNK         0.0600 
    152 H152       -1.1534  -20.3415  -40.4722 H         1 UNK         0.0600 
    153 H153        0.3316  -21.2929  -40.4615 H         1 UNK         0.0600 
    154 H154        0.4964  -19.2925  -42.0125 H         1 UNK         0.3000 
    155 H155        2.1006  -18.1371  -43.8567 H         1 UNK         0.0600 
    156 H156        0.0282  -17.5658  -46.0342 H         1 UNK         0.0600 
    157 H157        1.7173  -18.0354  -46.2301 H         1 UNK         0.0600 
    158 H158        1.3090  -16.4401  -45.6350 H         1 UNK         0.0600 
    159 H159       -0.1551  -16.3405  -43.7492 H         1 UNK         0.3000 
    160 H160       -0.2557  -16.0273  -40.2038 H         1 UNK         0.0600 
    161 H161        0.5881  -14.1127  -42.4476 H         1 UNK         0.0600 
    162 H162        1.5061  -14.4520  -40.9901 H         1 UNK         0.0600 
    163 H163       -0.0493  -13.6438  -40.8734 H         1 UNK         0.0600 
    164 H164       -1.7100  -15.0170  -42.5311 H         1 UNK         0.3000 
    165 H165       -4.3281  -17.3964  -42.3562 H         1 UNK         0.0600 
    166 H166       -5.7631  -15.3922  -42.0549 H         1 UNK         0.0600 
    167 H167       -4.9844  -15.8148  -40.5385 H         1 UNK         0.0600 
    168 H168       -4.3823  -14.4563  -41.4807 H         1 UNK         0.0600 
    169 H169       -3.9063  -14.9615  -43.8434 H         1 UNK         0.3000 
    170 H170       -2.0506  -16.3677  -46.5020 H         1 UNK         0.0600 
    171 H171       -4.3644  -17.0829  -47.0892 H         1 UNK         0.0600 
    172 H172       -5.0137  -15.5746  -46.4571 H         1 UNK         0.0600 
    173 H173       -3.9590  -15.5633  -47.8702 H         1 UNK         0.0600 
    174 H174       -3.2686  -13.8217  -46.1881 H         1 UNK         0.3000 
    175 H175       -1.9175  -12.0212  -45.9278 H         1 UNK         0.0600 
    176 H176       -1.3750  -12.4167  -42.9188 H         1 UNK         0.0600 
    177 H177       -1.8756  -10.9096  -43.6800 H         1 UNK         0.0600 
    178 H178       -2.9733  -12.2785  -43.6442 H         1 UNK         0.0600 
    179 H179        0.6789  -12.9105  -45.0758 H         1 UNK         0.3000 
    180 H180        2.1902  -10.4782  -46.8019 H         1 UNK         0.0600 
    181 H181        2.5136   -9.9487  -43.8050 H         1 UNK         0.0600 
    182 H182        2.2235   -8.7584  -45.0608 H         1 UNK         0.0600 
    183 H183        3.7453   -9.6331  -45.0281 H         1 UNK         0.0600 
    184 H184        3.1420  -12.4309  -46.5743 H         1 UNK         0.3000 
    185 H185        4.9039  -13.8642  -45.0085 H         1 UNK         0.0600 
    186 H186        4.2915  -16.0509  -43.9186 H         1 UNK         0.0600 
    187 H187        4.2077  -14.7040  -42.7934 H         1 UNK         0.0600 
    188 H188        2.7285  -15.3740  -43.4683 H         1 UNK         0.0600 
    189 H189        2.3475  -15.0326  -46.0329 H         1 UNK         0.3000 
    190 H190       -0.4891  -21.4414  -46.0779 H         1 UNK         0.3000 
    191 H191       -2.4940  -22.0087  -47.9520 H         1 UNK         0.0600 
    192 H192       -2.6782  -21.7112  -44.9081 H         1 UNK         0.0600 
    193 H193       -4.0473  -21.6420  -46.0081 H         1 UNK         0.0600 
    194 H194       -2.7938  -20.4113  -46.0913 H         1 UNK         0.0600 
    195 H195       -1.3938  -23.9911  -45.1726 H         1 UNK         0.3000 
    196 H196       -3.2016  -26.1426  -45.5306 H         1 UNK         0.0600 
    197 H197       -1.5869  -27.3724  -44.0581 H         1 UNK         0.0600 
    198 H198       -1.9457  -25.7698  -43.4341 H         1 UNK         0.0600 
    199 H199       -0.4153  -26.0730  -44.2547 H         1 UNK         0.0600 
    200 H200        0.0415  -25.5552  -46.9407 H         1 UNK         0.3000 
    201 H201        0.2639  -28.0970  -48.2559 H         1 UNK         0.0600 
    202 H202        2.2417  -26.7050  -47.7528 H         1 UNK         0.0600 
    203 H203        1.6525  -25.4213  -48.8062 H         1 UNK         0.0600 
    204 H204        2.1275  -26.9736  -49.4853 H         1 UNK         0.0600 
    205 H205       -0.9486  -24.8911  -49.2950 H         1 UNK         0.3000 
    206 H206       -1.4513  -25.5835  -52.0131 H         1 UNK         0.0600 
    207 H207       -1.1910  -23.2495  -51.3213 H         1 UNK         0.0600 
    208 H208       -2.8073  -23.4655  -51.9781 H         1 UNK         0.0600 
    209 H209       -2.5750  -23.3585  -50.2383 H         1 UNK         0.0600 
    210 H210       -3.7273  -25.2239  -49.2496 H         1 UNK         0.3000 
    211 H211       -5.8003  -25.8565  -48.8415 H         1 UNK         0.0600 
    212 H212       -5.0270  -28.4131  -50.3414 H         1 UNK         0.0600 
    213 H213       -6.3050  -28.2579  -49.1416 H         1 UNK         0.0600 
    214 H214       -4.6282  -28.0537  -48.6626 H         1 UNK         0.0600 
    215 H215       -5.7402  -24.1202  -51.0151 H         1 UNK         0.3000 
    216 H216       -8.2522  -24.5112  -52.3263 H         1 UNK         0.0600 
    217 H217       -7.3395  -24.5538  -54.6682 H         1 UNK         0.0600 
    218 H218       -6.7910  -25.9727  -53.8048 H         1 UNK         0.0600 
    219 H219       -5.6922  -24.6202  -54.0454 H         1 UNK         0.0600 
    220 H220       -8.0418  -22.5795  -54.2805 H         1 UNK         0.3000 
    221 H221       -7.9387  -20.1120  -52.9279 H         1 UNK         0.0600 
    222 H222       -7.7461  -20.7148  -55.9290 H         1 UNK         0.0600 
    223 H223       -9.2339  -20.4895  -55.0078 H         1 UNK         0.0600 
    224 H224       -8.1258  -19.1455  -55.2293 H         1 UNK         0.0600 
    225 H225       -5.3783  -21.8976  -54.4713 H         1 UNK         0.3000 
    226 H226       -3.3478  -19.9130  -54.6571 H         1 UNK         0.0600 
    227 H227       -3.2186  -22.0813  -55.8291 H         1 UNK         0.0600 
    228 H228       -1.8462  -21.9291  -54.7462 H         1 UNK         0.0600 
    229 H229       -3.2036  -22.9561  -54.2990 H         1 UNK         0.0600 
    230 H230       -4.8431  -21.1264  -51.8096 H         1 UNK         0.3000 
    231 H231       -2.6368  -20.8686  -49.9778 H         1 UNK         0.0600 
    232 H232       -4.6903  -22.1431  -49.3953 H         1 UNK         0.0600 
    233 H233       -5.6751  -20.6890  -49.5800 H         1 UNK         0.0600 
    234 H234       -4.5062  -20.7930  -48.2838 H         1 UNK         0.0600 
    235 H235       -4.5936  -18.5567  -51.6804 H         1 UNK         0.3000 
    236 H236       -3.3896  -16.3220  -50.1029 H         1 UNK         0.0600 
    237 H237       -5.5313  -15.0803  -50.3907 H         1 UNK         0.0600 
    238 H238       -6.2632  -16.4808  -51.1688 H         1 UNK         0.0600 
    239 H239       -5.7946  -16.5545  -49.4716 H         1 UNK         0.0600 
    240 H240       -4.3680  -17.6343  -53.2480 H         1 UNK         0.3000 
    241 H241       -3.8554  -17.1477  -55.3118 H         1 UNK         0.0600 
    242 H242       -5.9229  -15.4394  -53.8034 H         1 UNK         0.3800 
    243 H243       -6.2014  -14.1363  -54.9292 H         1 UNK         0.3800 
    244 H244       -1.6598  -15.3037  -54.2514 H         1 UNK         0.0800 
    245 H245       -1.8789  -15.6761  -55.9360 H         1 UNK         0.0800 
    246 H246        0.6895  -16.0003  -54.2368 H         1 UNK         0.0800 
    247 H247        1.2768  -17.6409  -54.2181 H         1 UNK         0.0800 
@<TRIPOS>BOND
     1    1    2 1    
     2    1  127 1    
     3    1  128 1    
     4    1  129 1    
     5    2    3 2    
     6    2    4 am   BACKBONE|DICT|INTERRES
     7    4    5 1    
     8    4  130 1    
     9    5    6 1    
    10    5   65 1    
    11    5  131 1    
    12    6    7 1    
    13    6  132 1    
    14    6  133 1    
    15    7    8 1    
    16    8    9 1    
    17    8  134 1    
    18    8  135 1    
    19    9   10 ar   
    20    9   14 ar   
    21   10   11 ar   
    22   10  136 1    
    23   11   12 ar   
    24   11  126 1    
    25   12   13 ar   
    26   12  137 1    
    27   13   14 ar   
    28   13   15 1    
    29   14  138 1    
    30   15   16 1    
    31   15  139 1    
    32   15  140 1    
    33   16   17 1    
    34   17   18 1    
    35   17  141 1    
    36   17  142 1    
    37   18   19 1    
    38   18   67 1    
    39   18  143 1    
    40   19   20 am   BACKBONE|DICT|INTERRES
    41   19  144 1    
    42   20   21 2    
    43   20   22 1    
    44   22   23 1    
    45   22   24 1    
    46   22  145 1    
    47   23  146 1    
    48   23  147 1    
    49   23  148 1    
    50   24   25 am   BACKBONE|DICT|INTERRES
    51   24  149 1    
    52   25   26 2    
    53   25   27 1    
    54   27   28 1    
    55   27   29 1    
    56   27  150 1    
    57   28  151 1    
    58   28  152 1    
    59   28  153 1    
    60   29   30 am   BACKBONE|DICT|INTERRES
    61   29  154 1    
    62   30   31 2    
    63   30   32 1    
    64   32   33 1    
    65   32   34 1    
    66   32  155 1    
    67   33  156 1    
    68   33  157 1    
    69   33  158 1    
    70   34   35 am   BACKBONE|DICT|INTERRES
    71   34  159 1    
    72   35   36 2    
    73   35   37 1    
    74   37   38 1    
    75   37   39 1    
    76   37  160 1    
    77   38  161 1    
    78   38  162 1    
    79   38  163 1    
    80   39   40 am   BACKBONE|DICT|INTERRES
    81   39  164 1    
    82   40   41 2    
    83   40   42 1    
    84   42   43 1    
    85   42   44 1    
    86   42  165 1    
    87   43  166 1    
    88   43  167 1    
    89   43  168 1    
    90   44   45 am   BACKBONE|DICT|INTERRES
    91   44  169 1    
    92   45   46 2    
    93   45   47 1    
    94   47   48 1    
    95   47   49 1    
    96   47  170 1    
    97   48  171 1    
    98   48  172 1    
    99   48  173 1    
   100   49   50 am   BACKBONE|DICT|INTERRES
   101   49  174 1    
   102   50   51 2    
   103   50   52 1    
   104   52   53 1    
   105   52   54 1    
   106   52  175 1    
   107   53  176 1    
   108   53  177 1    
   109   53  178 1    
   110   54   55 am   BACKBONE|DICT|INTERRES
   111   54  179 1    
   112   55   56 2    
   113   55   57 1    
   114   57   58 1    
   115   57   59 1    
   116   57  180 1    
   117   58  181 1    
   118   58  182 1    
   119   58  183 1    
   120   59   60 am   BACKBONE|DICT|INTERRES
   121   59  184 1    
   122   60   61 2    
   123   60   62 1    
   124   62   63 1    
   125   62   64 1    
   126   62  185 1    
   127   63  186 1    
   128   63  187 1    
   129   63  188 1    
   130   64   65 am   BACKBONE|DICT|INTERRES
   131   64  189 1    
   132   65   66 2    
   133   67   68 2    
   134   67   69 am   BACKBONE|DICT|INTERRES
   135   69   70 1    
   136   69  190 1    
   137   70   71 1    
   138   70   72 1    
   139   70  191 1    
   140   71  192 1    
   141   71  193 1    
   142   71  194 1    
   143   72   73 2    
   144   72   74 am   BACKBONE|DICT|INTERRES
   145   74   75 1    
   146   74  195 1    
   147   75   76 1    
   148   75   77 1    
   149   75  196 1    
   150   76  197 1    
   151   76  198 1    
   152   76  199 1    
   153   77   78 2    
   154   77   79 am   BACKBONE|DICT|INTERRES
   155   79   80 1    
   156   79  200 1    
   157   80   81 1    
   158   80   82 1    
   159   80  201 1    
   160   81  202 1    
   161   81  203 1    
   162   81  204 1    
   163   82   83 2    
   164   82   84 am   BACKBONE|DICT|INTERRES
   165   84   85 1    
   166   84  205 1    
   167   85   86 1    
   168   85   87 1    
   169   85  206 1    
   170   86  207 1    
   171   86  208 1    
   172   86  209 1    
   173   87   88 2    
   174   87   89 am   BACKBONE|DICT|INTERRES
   175   89   90 1    
   176   89  210 1    
   177   90   91 1    
   178   90   92 1    
   179   90  211 1    
   180   91  212 1    
   181   91  213 1    
   182   91  214 1    
   183   92   93 2    
   184   92   94 am   BACKBONE|DICT|INTERRES
   185   94   95 1    
   186   94  215 1    
   187   95   96 1    
   188   95   97 1    
   189   95  216 1    
   190   96  217 1    
   191   96  218 1    
   192   96  219 1    
   193   97   98 2    
   194   97   99 am   BACKBONE|DICT|INTERRES
   195   99  100 1    
   196   99  220 1    
   197  100  101 1    
   198  100  102 1    
   199  100  221 1    
   200  101  222 1    
   201  101  223 1    
   202  101  224 1    
   203  102  103 2    
   204  102  104 am   BACKBONE|DICT|INTERRES
   205  104  105 1    
   206  104  225 1    
   207  105  106 1    
   208  105  107 1    
   209  105  226 1    
   210  106  227 1    
   211  106  228 1    
   212  106  229 1    
   213  107  108 2    
   214  107  109 am   BACKBONE|DICT|INTERRES
   215  109  110 1    
   216  109  230 1    
   217  110  111 1    
   218  110  112 1    
   219  110  231 1    
   220  111  232 1    
   221  111  233 1    
   222  111  234 1    
   223  112  113 2    
   224  112  114 am   BACKBONE|DICT|INTERRES
   225  114  115 1    
   226  114  235 1    
   227  115  116 1    
   228  115  117 1    
   229  115  236 1    
   230  116  237 1    
   231  116  238 1    
   232  116  239 1    
   233  117  118 2    
   234  117  119 am   BACKBONE|DICT|INTERRES
   235  119  120 1    
   236  119  240 1    
   237  120  121 1    
   238  120  124 1    
   239  120  241 1    
   240  121  122 am   BACKBONE|DICT|INTERRES
   241  121  123 2    
   242  122  242 1    
   243  122  243 1    
   244  124  125 1    
   245  124  244 1    
   246  124  245 1    
   247  125  126 1    
   248  126  246 1    
   249  126  247 1    
@<TRIPOS>SUBSTRUCTURE
     1 UNK         1 GROUP             0       ****    0 ROOT    
