@<TRIPOS>MOLECULE
3R540
247   249    1
SMALL
USER_CHARGES


@<TRIPOS>ATOM
      1 CA          8.0528  -17.0561  -48.3676 C.3       0 UNK        -0.1800 
      2 C           7.2494  -16.8469  -47.0919 C.2       0 UNK         0.5000 
      3 O           7.7272  -17.1714  -46.0051 O.2       0 UNK        -0.5000 
      4 N           6.0323  -16.3040  -47.2208 N.am      1 UNK        -0.5000 
      5 CA          5.1144  -16.0299  -46.1084 C.3       1 UNK         0.1400 
      6 C6          3.6449  -15.9493  -46.5948 C.3       23 UNK        -0.0398 
      7 S7          3.2388  -14.4957  -47.6359 S.3       23 UNK        -0.2404 
      8 C8          3.3922  -15.1272  -49.3380 C.3       23 UNK        -0.0205 
      9 C9          2.3678  -16.2049  -49.6541 C.ar      23 UNK        -0.0193 
     10 C10         1.0241  -15.8683  -49.8415 C.ar      23 UNK        -0.1150 
     11 C11         0.0734  -16.8539  -50.1259 C.ar      23 UNK        -0.0193 
     12 C12         0.4861  -18.1888  -50.2128 C.ar      23 UNK        -0.1150 
     13 C13         1.8292  -18.5376  -50.0409 C.ar      23 UNK        -0.0193 
     14 C14         2.7666  -17.5384  -49.7699 C.ar      23 UNK        -0.1150 
     15 C15         2.2621  -19.9940  -50.1557 C.3       23 UNK        -0.0205 
     16 S16         3.1496  -20.6133  -48.6844 S.3       23 UNK        -0.2404 
     17 C17         1.9776  -20.2534  -47.3315 C.3       23 UNK        -0.0398 
     18 CA          1.0857  -21.4485  -46.9199 C.3       11 UNK         0.1400 
     19 N           0.3843  -21.1727  -45.6666 N.am      11 UNK        -0.5000 
     20 C          -0.3190  -22.0704  -44.9628 C.2       10 UNK         0.5000 
     21 O          -0.3734  -23.2694  -45.2367 O.2       10 UNK        -0.5000 
     22 CA         -1.1301  -21.5257  -43.7732 C.3       10 UNK         0.1400 
     23 CB         -0.2413  -21.3891  -42.5281 C.3       10 UNK        -0.1800 
     24 N          -1.7660  -20.2384  -44.0613 N.am      10 UNK        -0.5000 
     25 C          -2.6997  -20.0390  -45.0027 C.2       9 UNK         0.5000 
     26 O          -3.1508  -20.9315  -45.7192 O.2       9 UNK        -0.5000 
     27 CA         -3.1744  -18.5900  -45.2131 C.3       9 UNK         0.1400 
     28 CB         -4.1887  -18.1778  -44.1357 C.3       9 UNK        -0.1800 
     29 N          -2.0648  -17.6366  -45.2379 N.am      9 UNK        -0.5000 
     30 C          -1.1102  -17.6129  -46.1785 C.2       8 UNK         0.5000 
     31 O          -1.0716  -18.3849  -47.1334 O.2       8 UNK        -0.5000 
     32 CA          0.0244  -16.5966  -45.9847 C.3       8 UNK         0.1400 
     33 CB         -0.4046  -15.1939  -46.4385 C.3       8 UNK        -0.1800 
     34 N           0.4722  -16.5545  -44.5929 N.am      8 UNK        -0.5000 
     35 C           1.1343  -17.5550  -43.9916 C.2       7 UNK         0.5000 
     36 O           1.4686  -18.5913  -44.5643 O.2       7 UNK        -0.5000 
     37 CA          1.4463  -17.3888  -42.4932 C.3       7 UNK         0.1400 
     38 CB          2.7698  -16.6334  -42.3169 C.3       7 UNK        -0.1800 
     39 N           0.3830  -16.6974  -41.7610 N.am      7 UNK        -0.5000 
     40 C          -0.8763  -17.1490  -41.6540 C.2       6 UNK         0.5000 
     41 O          -1.2448  -18.2347  -42.1003 O.2       6 UNK        -0.5000 
     42 CA         -1.9187  -16.2324  -40.9852 C.3       6 UNK         0.1400 
     43 CB         -2.1739  -16.6793  -39.5384 C.3       6 UNK        -0.1800 
     44 N          -1.5727  -14.8103  -40.9899 N.am      6 UNK        -0.5000 
     45 C          -1.3388  -14.0546  -42.0720 C.2       5 UNK         0.5000 
     46 O          -1.3766  -14.4828  -43.2267 O.2       5 UNK        -0.5000 
     47 CA         -0.9579  -12.5812  -41.8210 C.3       5 UNK         0.1400 
     48 CB         -1.3873  -12.0572  -40.4328 C.3       5 UNK        -0.1800 
     49 N           0.4707  -12.3224  -42.0239 N.am      5 UNK        -0.5000 
     50 C           1.5180  -12.9751  -41.4994 C.2       4 UNK         0.5000 
     51 O           1.4200  -13.9907  -40.8072 O.2       4 UNK        -0.5000 
     52 CA          2.9065  -12.3738  -41.8044 C.3       4 UNK         0.1400 
     53 CB          4.0643  -13.1672  -41.1723 C.3       4 UNK        -0.1800 
     54 N           3.1597  -12.2289  -43.2392 N.am      4 UNK        -0.5000 
     55 C           2.7068  -11.2293  -44.0116 C.2       3 UNK         0.5000 
     56 O           1.9205  -10.3725  -43.6027 O.2       3 UNK        -0.5000 
     57 CA          3.2013  -11.1787  -45.4761 C.3       3 UNK         0.1400 
     58 CB          3.2475   -9.7438  -46.0401 C.3       3 UNK        -0.1800 
     59 N           4.4831  -11.8606  -45.6850 N.am      3 UNK        -0.5000 
     60 C           5.6645  -11.5964  -45.1028 C.2       2 UNK         0.5000 
     61 O           5.8663  -10.6219  -44.3768 O.2       2 UNK        -0.5000 
     62 CA          6.8053  -12.6103  -45.3562 C.3       2 UNK         0.1400 
     63 CB          7.6891  -12.8127  -44.1079 C.3       2 UNK        -0.1800 
     64 N           6.3493  -13.9092  -45.8747 N.am      2 UNK        -0.5000 
     65 C           5.5082  -14.7795  -45.2894 C.2       1 UNK         0.5000 
     66 O           4.9947  -14.5967  -44.1850 O.2       1 UNK        -0.5000 
     67 C           0.0875  -21.8411  -48.0278 C.2       11 UNK         0.5000 
     68 O           0.2314  -22.9058  -48.6302 O.2       11 UNK        -0.5000 
     69 N          -0.9264  -20.9939  -48.2542 N.am      12 UNK        -0.5000 
     70 CA         -1.9509  -21.1645  -49.2838 C.3       12 UNK         0.1400 
     71 CB         -2.8750  -19.9458  -49.2861 C.3       12 UNK        -0.1800 
     72 C          -2.7787  -22.4491  -49.1323 C.2       12 UNK         0.5000 
     73 O          -3.1068  -23.0722  -50.1410 O.2       12 UNK        -0.5000 
     74 N          -3.0612  -22.8503  -47.8869 N.am      13 UNK        -0.5000 
     75 CA         -3.7541  -24.0931  -47.5424 C.3       13 UNK         0.1400 
     76 CB         -4.0045  -24.1266  -46.0274 C.3       13 UNK        -0.1800 
     77 C          -3.0181  -25.3706  -47.9961 C.2       13 UNK         0.5000 
     78 O          -3.6715  -26.3964  -48.1858 O.2       13 UNK        -0.5000 
     79 N          -1.6932  -25.2873  -48.1746 N.am      14 UNK        -0.5000 
     80 CA         -0.8623  -26.3581  -48.7169 C.3       14 UNK         0.1400 
     81 CB          0.4472  -26.4335  -47.9153 C.3       14 UNK        -0.1800 
     82 C          -0.5721  -26.1357  -50.2111 C.2       14 UNK         0.5000 
     83 O          -0.6875  -27.0774  -50.9958 O.2       14 UNK        -0.5000 
     84 N          -0.1748  -24.9080  -50.5741 N.am      15 UNK        -0.5000 
     85 CA          0.3125  -24.5549  -51.9077 C.3       15 UNK         0.1400 
     86 CB          1.0598  -23.2148  -51.8305 C.3       15 UNK        -0.1800 
     87 C          -0.7896  -24.4861  -52.9783 C.2       15 UNK         0.5000 
     88 O          -0.5742  -24.9585  -54.0954 O.2       15 UNK        -0.5000 
     89 N          -1.9309  -23.8816  -52.6293 N.am      16 UNK        -0.5000 
     90 CA         -3.0705  -23.6731  -53.5228 C.3       16 UNK         0.1400 
     91 CB         -3.5231  -22.2089  -53.4196 C.3       16 UNK        -0.1800 
     92 C          -4.2135  -24.6415  -53.1818 C.2       16 UNK         0.5000 
     93 O          -4.8240  -25.1987  -54.0952 O.2       16 UNK        -0.5000 
     94 N          -4.4490  -24.8521  -51.8771 N.am      17 UNK        -0.5000 
     95 CA         -5.3403  -25.8459  -51.2738 C.3       17 UNK         0.1400 
     96 CB         -4.6821  -27.2412  -51.3584 C.3       17 UNK        -0.1800 
     97 C          -6.7711  -25.7970  -51.8504 C.2       17 UNK         0.5000 
     98 O          -7.5069  -24.8496  -51.5646 O.2       17 UNK        -0.5000 
     99 N          -7.1209  -26.7939  -52.6767 N.am      18 UNK        -0.5000 
    100 CA        -8.4087  -26.9743  -53.3536 C.3       18 UNK         0.1400 
    101 CB        -8.3813  -28.3105  -54.1117 C.3       18 UNK        -0.1800 
    102 C         -8.8184  -25.8263  -54.2999 C.2       18 UNK         0.5000 
    103 O         -9.9987  -25.7200  -54.6342 O.2       18 UNK        -0.5000 
    104 N         -7.8649  -24.9643  -54.6825 N.am      19 UNK        -0.5000 
    105 CA        -8.1062  -23.7126  -55.4070 C.3       19 UNK         0.1400 
    106 CB        -6.7809  -23.2319  -56.0171 C.3       19 UNK        -0.1800 
    107 C         -8.7538  -22.6026  -54.5430 C.2       19 UNK         0.5000 
    108 O         -9.0330  -21.5272  -55.0736 O.2       19 UNK        -0.5000 
    109 N         -8.9856  -22.8805  -53.2496 N.am      20 UNK        -0.5000 
    110 CA        -9.5713  -22.0132  -52.2238 C.3       20 UNK         0.1400 
    111 CB       -10.9700  -21.4967  -52.6250 C.3       20 UNK        -0.1800 
    112 C         -8.5935  -20.9052  -51.7968 C.2       20 UNK         0.5000 
    113 O         -8.9518  -19.7252  -51.7691 O.2       20 UNK        -0.5000 
    114 N         -7.3681  -21.3319  -51.4569 N.am      21 UNK        -0.5000 
    115 CA        -6.2445  -20.5090  -51.0017 C.3       21 UNK         0.1400 
    116 CB        -6.5630  -19.8896  -49.6197 C.3       21 UNK        -0.1800 
    117 C         -5.7976  -19.4781  -52.0665 C.2       21 UNK         0.5000 
    118 O         -5.9166  -19.7482  -53.2633 O.2       21 UNK        -0.5000 
    119 N         -5.2801  -18.3265  -51.6207 N.am      22 UNK        -0.5000 
    120 CA        -4.8993  -17.1868  -52.4752 C.3       22 UNK         0.1400 
    121 C         -6.1019  -16.2904  -52.9068 C.2       22 UNK         0.5000 
    122 N         -7.3400  -16.5924  -52.5326 N.am      22 UNK        -0.7600 
    123 O         -5.9114  -15.3014  -53.6095 O.2       22 UNK        -0.5000 
    124 C124       -3.7613  -16.3432  -51.8363 C.3       23 UNK        -0.0398 
    125 S125       -2.1742  -17.2420  -51.7604 S.3       23 UNK        -0.2404 
    126 C126       -1.3931  -16.4643  -50.3045 C.3       23 UNK        -0.0205 
    127 H127        7.5067  -16.7236  -49.2508 H         1 UNK         0.0600 
    128 H128        8.2890  -18.1129  -48.4926 H         1 UNK         0.0600 
    129 H129        8.9889  -16.5001  -48.3171 H         1 UNK         0.0600 
    130 H130        5.6955  -16.0554  -48.1387 H         1 UNK         0.3000 
    131 H131        5.1725  -16.8746  -45.4181 H         1 UNK         0.0600 
    132 H132        3.3739  -16.8692  -47.1125 H         1 UNK         0.0800 
    133 H133        2.9878  -15.9092  -45.7259 H         1 UNK         0.0800 
    134 H134        3.2550  -14.2952  -50.0303 H         1 UNK         0.0800 
    135 H135        4.4055  -15.4922  -49.5066 H         1 UNK         0.0800 
    136 H136        0.7206  -14.8344  -49.7546 H         1 UNK         0.1150 
    137 H137       -0.2411  -18.9585  -50.4228 H         1 UNK         0.1150 
    138 H138        3.8054  -17.8055  -49.6355 H         1 UNK         0.1150 
    139 H139        1.4005  -20.6340  -50.3410 H         1 UNK         0.0800 
    140 H140        2.9108  -20.0994  -51.0261 H         1 UNK         0.0800 
    141 H141        1.3769  -19.3742  -47.5628 H         1 UNK         0.0800 
    142 H142        2.5935  -19.9626  -46.4801 H         1 UNK         0.0800 
    143 H143        1.7352  -22.3085  -46.7433 H         1 UNK         0.0600 
    144 H144        0.4155  -20.2143  -45.3372 H         1 UNK         0.3000 
    145 H145       -1.9210  -22.2457  -43.5528 H         1 UNK         0.0600 
    146 H146       -0.8229  -21.0737  -41.6616 H         1 UNK         0.0600 
    147 H147        0.2289  -22.3404  -42.2764 H         1 UNK         0.0600 
    148 H148        0.5536  -20.6583  -42.6805 H         1 UNK         0.0600 
    149 H149       -1.4858  -19.4536  -43.4773 H         1 UNK         0.3000 
    150 H150       -3.6745  -18.5432  -46.1828 H         1 UNK         0.0600 
    151 H151       -5.0471  -18.8509  -44.1337 H         1 UNK         0.0600 
    152 H152       -4.5662  -17.1708  -44.3136 H         1 UNK         0.0600 
    153 H153       -3.7533  -18.2016  -43.1367 H         1 UNK         0.0600 
    154 H154       -2.0002  -16.9861  -44.4686 H         1 UNK         0.3000 
    155 H155        0.8609  -16.9125  -46.6112 H         1 UNK         0.0600 
    156 H156        0.4069  -14.4757  -46.3214 H         1 UNK         0.0600 
    157 H157       -1.2612  -14.8272  -45.8728 H         1 UNK         0.0600 
    158 H158       -0.6871  -15.1964  -47.4914 H         1 UNK         0.0600 
    159 H159        0.1678  -15.7611  -44.0408 H         1 UNK         0.3000 
    160 H160        1.5572  -18.3847  -42.0599 H         1 UNK         0.0600 
    161 H161        2.7234  -15.6422  -42.7689 H         1 UNK         0.0600 
    162 H162        3.5934  -17.1685  -42.7914 H         1 UNK         0.0600 
    163 H163        3.0220  -16.5126  -41.2633 H         1 UNK         0.0600 
    164 H164        0.6143  -15.7905  -41.3667 H         1 UNK         0.3000 
    165 H165       -2.8488  -16.3424  -41.5461 H         1 UNK         0.0600 
    166 H166       -2.9804  -16.1042  -39.0832 H         1 UNK         0.0600 
    167 H167       -2.4641  -17.7302  -39.4988 H         1 UNK         0.0600 
    168 H168       -1.2838  -16.5607  -38.9191 H         1 UNK         0.0600 
    169 H169       -1.4696  -14.3755  -40.0847 H         1 UNK         0.3000 
    170 H170       -1.4904  -11.9978  -42.5734 H         1 UNK         0.0600 
    171 H171       -2.4503  -12.2280  -40.2568 H         1 UNK         0.0600 
    172 H172       -0.8319  -12.5300  -39.6219 H         1 UNK         0.0600 
    173 H173       -1.2210  -10.9825  -40.3576 H         1 UNK         0.0600 
    174 H174        0.6916  -11.5225  -42.6099 H         1 UNK         0.3000 
    175 H175        2.9188  -11.3807  -41.3504 H         1 UNK         0.0600 
    176 H176        4.1435  -14.1716  -41.5857 H         1 UNK         0.0600 
    177 H177        5.0183  -12.6662  -41.3380 H         1 UNK         0.0600 
    178 H178        3.9326  -13.2640  -40.0940 H         1 UNK         0.0600 
    179 H179        3.7773  -12.9203  -43.6503 H         1 UNK         0.3000 
    180 H180        2.4654  -11.7362  -46.0572 H         1 UNK         0.0600 
    181 H181        3.5927   -9.7379  -47.0739 H         1 UNK         0.0600 
    182 H182        3.9110   -9.1015  -45.4606 H         1 UNK         0.0600 
    183 H183        2.2579   -9.2857  -46.0283 H         1 UNK         0.0600 
    184 H184        4.4354  -12.6856  -46.2673 H         1 UNK         0.3000 
    185 H185        7.4290  -12.1724  -46.1366 H         1 UNK         0.0600 
    186 H186        8.4867  -13.5298  -44.3017 H         1 UNK         0.0600 
    187 H187        8.1623  -11.8779  -43.8053 H         1 UNK         0.0600 
    188 H188        7.1111  -13.1756  -43.2573 H         1 UNK         0.0600 
    189 H189        6.6925  -14.1519  -46.7932 H         1 UNK         0.3000 
    190 H190       -0.9759  -20.1276  -47.7211 H         1 UNK         0.3000 
    191 H191       -1.4403  -21.2085  -50.2475 H         1 UNK         0.0600 
    192 H192       -2.3103  -19.0203  -49.3468 H         1 UNK         0.0600 
    193 H193       -3.4877  -19.9004  -48.3853 H         1 UNK         0.0600 
    194 H194       -3.5321  -19.9720  -50.1513 H         1 UNK         0.0600 
    195 H195       -2.8156  -22.2392  -47.1123 H         1 UNK         0.3000 
    196 H196       -4.7217  -24.0808  -48.0480 H         1 UNK         0.0600 
    197 H197       -3.0703  -24.0844  -45.4663 H         1 UNK         0.0600 
    198 H198       -4.6231  -23.2864  -45.7117 H         1 UNK         0.0600 
    199 H199       -4.5245  -25.0395  -45.7345 H         1 UNK         0.0600 
    200 H200       -1.2351  -24.3996  -48.0082 H         1 UNK         0.3000 
    201 H201       -1.3689  -27.3202  -48.6148 H         1 UNK         0.0600 
    202 H202        1.0077  -25.4990  -47.9617 H         1 UNK         0.0600 
    203 H203        1.0939  -27.2246  -48.2969 H         1 UNK         0.0600 
    204 H204        0.2514  -26.6510  -46.8652 H         1 UNK         0.0600 
    205 H205       -0.0772  -24.1917  -49.8572 H         1 UNK         0.3000 
    206 H206        1.0284  -25.3196  -52.2170 H         1 UNK         0.0600 
    207 H207        1.8755  -23.2559  -51.1082 H         1 UNK         0.0600 
    208 H208        1.4920  -22.9506  -52.7964 H         1 UNK         0.0600 
    209 H209        0.3923  -22.4045  -51.5370 H         1 UNK         0.0600 
    210 H210       -2.0539  -23.5756  -51.6700 H         1 UNK         0.3000 
    211 H211       -2.7826  -23.8570  -54.5600 H         1 UNK         0.0600 
    212 H212       -4.3666  -22.0060  -54.0778 H         1 UNK         0.0600 
    213 H213       -2.7206  -21.5298  -53.7075 H         1 UNK         0.0600 
    214 H214       -3.8272  -21.9480  -52.4079 H         1 UNK         0.0600 
    215 H215       -3.9328  -24.2793  -51.2133 H         1 UNK         0.3000 
    216 H216       -5.4296  -25.5842  -50.2189 H         1 UNK         0.0600 
    217 H217       -5.3031  -28.0012  -50.8823 H         1 UNK         0.0600 
    218 H218       -4.4968  -27.5511  -52.3875 H         1 UNK         0.0600 
    219 H219       -3.7217  -27.2463  -50.8425 H         1 UNK         0.0600 
    220 H220       -6.4210  -27.4936  -52.8766 H         1 UNK         0.3000 
    221 H221       -9.1758  -27.0360  -52.5792 H         1 UNK         0.0600 
    222 H222       -8.1917  -29.1448  -53.4361 H         1 UNK         0.0600 
    223 H223       -7.6091  -28.3183  -54.8820 H         1 UNK         0.0600 
    224 H224       -9.3363  -28.5036  -54.6023 H         1 UNK         0.0600 
    225 H225       -6.9101  -25.1347  -54.3834 H         1 UNK         0.3000 
    226 H226       -8.7962  -23.9217  -56.2270 H         1 UNK         0.0600 
    227 H227       -6.0620  -22.9705  -55.2429 H         1 UNK         0.0600 
    228 H228       -6.3322  -23.9998  -56.6474 H         1 UNK         0.0600 
    229 H229       -6.9301  -22.3477  -56.6380 H         1 UNK         0.0600 
    230 H230       -8.6550  -23.7745  -52.9036 H         1 UNK         0.3000 
    231 H231       -9.7082  -22.6464  -51.3458 H         1 UNK         0.0600 
    232 H232      -10.9256  -20.7821  -53.4469 H         1 UNK         0.0600 
    233 H233      -11.4492  -20.9916  -51.7857 H         1 UNK         0.0600 
    234 H234      -11.6220  -22.3166  -52.9259 H         1 UNK         0.0600 
    235 H235       -7.1784  -22.3210  -51.5467 H         1 UNK         0.3000 
    236 H236       -5.4109  -21.1981  -50.8683 H         1 UNK         0.0600 
    237 H237       -5.6959  -19.4004  -49.1789 H         1 UNK         0.0600 
    238 H238       -7.3594  -19.1473  -49.6788 H         1 UNK         0.0600 
    239 H239       -6.8805  -20.6578  -48.9143 H         1 UNK         0.0600 
    240 H240       -5.2224  -18.1692  -50.6260 H         1 UNK         0.3000 
    241 H241       -4.5070  -17.5884  -53.4115 H         1 UNK         0.0600 
    242 H242       -8.1019  -16.0027  -52.8288 H         1 UNK         0.3800 
    243 H243       -7.5341  -17.4281  -52.0025 H         1 UNK         0.3800 
    244 H244       -4.0500  -16.0160  -50.8363 H         1 UNK         0.0800 
    245 H245       -3.5763  -15.4345  -52.4117 H         1 UNK         0.0800 
    246 H246       -1.4811  -15.3816  -50.4067 H         1 UNK         0.0800 
    247 H247       -1.9439  -16.7341  -49.4031 H         1 UNK         0.0800 
@<TRIPOS>BOND
     1    1    2 1    
     2    1  127 1    
     3    1  128 1    
     4    1  129 1    
     5    2    3 2    
     6    2    4 am   BACKBONE|DICT|INTERRES
     7    4    5 1    
     8    4  130 1    
     9    5    6 1    
    10    5   65 1    
    11    5  131 1    
    12    6    7 1    
    13    6  132 1    
    14    6  133 1    
    15    7    8 1    
    16    8    9 1    
    17    8  134 1    
    18    8  135 1    
    19    9   10 ar   
    20    9   14 ar   
    21   10   11 ar   
    22   10  136 1    
    23   11   12 ar   
    24   11  126 1    
    25   12   13 ar   
    26   12  137 1    
    27   13   14 ar   
    28   13   15 1    
    29   14  138 1    
    30   15   16 1    
    31   15  139 1    
    32   15  140 1    
    33   16   17 1    
    34   17   18 1    
    35   17  141 1    
    36   17  142 1    
    37   18   19 1    
    38   18   67 1    
    39   18  143 1    
    40   19   20 am   BACKBONE|DICT|INTERRES
    41   19  144 1    
    42   20   21 2    
    43   20   22 1    
    44   22   23 1    
    45   22   24 1    
    46   22  145 1    
    47   23  146 1    
    48   23  147 1    
    49   23  148 1    
    50   24   25 am   BACKBONE|DICT|INTERRES
    51   24  149 1    
    52   25   26 2    
    53   25   27 1    
    54   27   28 1    
    55   27   29 1    
    56   27  150 1    
    57   28  151 1    
    58   28  152 1    
    59   28  153 1    
    60   29   30 am   BACKBONE|DICT|INTERRES
    61   29  154 1    
    62   30   31 2    
    63   30   32 1    
    64   32   33 1    
    65   32   34 1    
    66   32  155 1    
    67   33  156 1    
    68   33  157 1    
    69   33  158 1    
    70   34   35 am   BACKBONE|DICT|INTERRES
    71   34  159 1    
    72   35   36 2    
    73   35   37 1    
    74   37   38 1    
    75   37   39 1    
    76   37  160 1    
    77   38  161 1    
    78   38  162 1    
    79   38  163 1    
    80   39   40 am   BACKBONE|DICT|INTERRES
    81   39  164 1    
    82   40   41 2    
    83   40   42 1    
    84   42   43 1    
    85   42   44 1    
    86   42  165 1    
    87   43  166 1    
    88   43  167 1    
    89   43  168 1    
    90   44   45 am   BACKBONE|DICT|INTERRES
    91   44  169 1    
    92   45   46 2    
    93   45   47 1    
    94   47   48 1    
    95   47   49 1    
    96   47  170 1    
    97   48  171 1    
    98   48  172 1    
    99   48  173 1    
   100   49   50 am   BACKBONE|DICT|INTERRES
   101   49  174 1    
   102   50   51 2    
   103   50   52 1    
   104   52   53 1    
   105   52   54 1    
   106   52  175 1    
   107   53  176 1    
   108   53  177 1    
   109   53  178 1    
   110   54   55 am   BACKBONE|DICT|INTERRES
   111   54  179 1    
   112   55   56 2    
   113   55   57 1    
   114   57   58 1    
   115   57   59 1    
   116   57  180 1    
   117   58  181 1    
   118   58  182 1    
   119   58  183 1    
   120   59   60 am   BACKBONE|DICT|INTERRES
   121   59  184 1    
   122   60   61 2    
   123   60   62 1    
   124   62   63 1    
   125   62   64 1    
   126   62  185 1    
   127   63  186 1    
   128   63  187 1    
   129   63  188 1    
   130   64   65 am   BACKBONE|DICT|INTERRES
   131   64  189 1    
   132   65   66 2    
   133   67   68 2    
   134   67   69 am   BACKBONE|DICT|INTERRES
   135   69   70 1    
   136   69  190 1    
   137   70   71 1    
   138   70   72 1    
   139   70  191 1    
   140   71  192 1    
   141   71  193 1    
   142   71  194 1    
   143   72   73 2    
   144   72   74 am   BACKBONE|DICT|INTERRES
   145   74   75 1    
   146   74  195 1    
   147   75   76 1    
   148   75   77 1    
   149   75  196 1    
   150   76  197 1    
   151   76  198 1    
   152   76  199 1    
   153   77   78 2    
   154   77   79 am   BACKBONE|DICT|INTERRES
   155   79   80 1    
   156   79  200 1    
   157   80   81 1    
   158   80   82 1    
   159   80  201 1    
   160   81  202 1    
   161   81  203 1    
   162   81  204 1    
   163   82   83 2    
   164   82   84 am   BACKBONE|DICT|INTERRES
   165   84   85 1    
   166   84  205 1    
   167   85   86 1    
   168   85   87 1    
   169   85  206 1    
   170   86  207 1    
   171   86  208 1    
   172   86  209 1    
   173   87   88 2    
   174   87   89 am   BACKBONE|DICT|INTERRES
   175   89   90 1    
   176   89  210 1    
   177   90   91 1    
   178   90   92 1    
   179   90  211 1    
   180   91  212 1    
   181   91  213 1    
   182   91  214 1    
   183   92   93 2    
   184   92   94 am   BACKBONE|DICT|INTERRES
   185   94   95 1    
   186   94  215 1    
   187   95   96 1    
   188   95   97 1    
   189   95  216 1    
   190   96  217 1    
   191   96  218 1    
   192   96  219 1    
   193   97   98 2    
   194   97   99 am   BACKBONE|DICT|INTERRES
   195   99  100 1    
   196   99  220 1    
   197  100  101 1    
   198  100  102 1    
   199  100  221 1    
   200  101  222 1    
   201  101  223 1    
   202  101  224 1    
   203  102  103 2    
   204  102  104 am   BACKBONE|DICT|INTERRES
   205  104  105 1    
   206  104  225 1    
   207  105  106 1    
   208  105  107 1    
   209  105  226 1    
   210  106  227 1    
   211  106  228 1    
   212  106  229 1    
   213  107  108 2    
   214  107  109 am   BACKBONE|DICT|INTERRES
   215  109  110 1    
   216  109  230 1    
   217  110  111 1    
   218  110  112 1    
   219  110  231 1    
   220  111  232 1    
   221  111  233 1    
   222  111  234 1    
   223  112  113 2    
   224  112  114 am   BACKBONE|DICT|INTERRES
   225  114  115 1    
   226  114  235 1    
   227  115  116 1    
   228  115  117 1    
   229  115  236 1    
   230  116  237 1    
   231  116  238 1    
   232  116  239 1    
   233  117  118 2    
   234  117  119 am   BACKBONE|DICT|INTERRES
   235  119  120 1    
   236  119  240 1    
   237  120  121 1    
   238  120  124 1    
   239  120  241 1    
   240  121  122 am   BACKBONE|DICT|INTERRES
   241  121  123 2    
   242  122  242 1    
   243  122  243 1    
   244  124  125 1    
   245  124  244 1    
   246  124  245 1    
   247  125  126 1    
   248  126  246 1    
   249  126  247 1    
@<TRIPOS>SUBSTRUCTURE
     1 UNK         1 GROUP             0       ****    0 ROOT    
