@<TRIPOS>MOLECULE
3R540
247   249    1
SMALL
USER_CHARGES


@<TRIPOS>ATOM
      1 CA         -2.4538  -12.9081  -51.3704 C.3       0 UNK        -0.1800 
      2 C          -1.0737  -12.5050  -50.8703 C.2       0 UNK         0.5000 
      3 O          -0.7365  -11.3205  -50.8737 O.2       0 UNK        -0.5000 
      4 N          -0.2771  -13.4833  -50.4254 N.am      1 UNK        -0.5000 
      5 CA          1.0824  -13.3223  -49.8999 C.3       1 UNK         0.1400 
      6 C6          1.9029  -14.6298  -50.0463 C.3       23 UNK        -0.0398 
      7 S7          2.1872  -15.1346  -51.7817 S.3       23 UNK        -0.2404 
      8 C8          0.7085  -16.1154  -52.2202 C.3       23 UNK        -0.0205 
      9 C9          0.3318  -17.1471  -51.1662 C.ar      23 UNK        -0.0193 
     10 C10        -0.8406  -16.9958  -50.4200 C.ar      23 UNK        -0.1150 
     11 C11        -1.1739  -17.9243  -49.4327 C.ar      23 UNK        -0.0193 
     12 C12        -0.3375  -19.0194  -49.2074 C.ar      23 UNK        -0.1150 
     13 C13         0.8419  -19.1885  -49.9443 C.ar      23 UNK        -0.0193 
     14 C14         1.1640  -18.2434  -50.9240 C.ar      23 UNK        -0.1150 
     15 C15         1.8160  -20.3411  -49.6896 C.3       23 UNK        -0.0205 
     16 S16         1.0622  -21.8841  -49.0697 S.3       23 UNK        -0.2404 
     17 C17         1.0979  -21.5654  -47.2723 C.3       23 UNK        -0.0398 
     18 CA          0.1375  -22.4241  -46.4159 C.3       11 UNK         0.1400 
     19 N           0.3126  -22.1084  -44.9953 N.am      11 UNK        -0.5000 
     20 C          -0.2180  -22.7884  -43.9703 C.2       10 UNK         0.5000 
     21 O          -0.9249  -23.7868  -44.1046 O.2       10 UNK        -0.5000 
     22 CA          0.0604  -22.2306  -42.5625 C.3       10 UNK         0.1400 
     23 CB          1.4873  -22.5719  -42.1073 C.3       10 UNK        -0.1800 
     24 N          -0.1423  -20.7826  -42.5021 N.am      10 UNK        -0.5000 
     25 C          -1.3397  -20.1868  -42.5980 C.2       9 UNK         0.5000 
     26 O          -2.4044  -20.8028  -42.6396 O.2       9 UNK        -0.5000 
     27 CA         -1.3524  -18.6494  -42.6946 C.3       9 UNK         0.1400 
     28 CB         -1.3151  -18.0171  -41.2953 C.3       9 UNK        -0.1800 
     29 N          -0.2516  -18.1171  -43.4978 N.am      9 UNK        -0.5000 
     30 C          -0.0669  -18.3498  -44.8038 C.2       8 UNK         0.5000 
     31 O          -0.8221  -19.0327  -45.4903 O.2       8 UNK        -0.5000 
     32 CA          1.2091  -17.7756  -45.4395 C.3       8 UNK         0.1400 
     33 CB          1.0329  -16.2965  -45.8039 C.3       8 UNK        -0.1800 
     34 N           2.3703  -17.9387  -44.5669 N.am      8 UNK        -0.5000 
     35 C           2.9369  -19.1187  -44.2800 C.2       7 UNK         0.5000 
     36 O           2.5505  -20.1933  -44.7398 O.2       7 UNK        -0.5000 
     37 CA          4.1039  -19.0950  -43.2775 C.3       7 UNK         0.1400 
     38 CB          5.4123  -18.6938  -43.9749 C.3       7 UNK        -0.1800 
     39 N           3.8537  -18.1928  -42.1526 N.am      7 UNK        -0.5000 
     40 C           2.9101  -18.3958  -41.2228 C.2       6 UNK         0.5000 
     41 O           2.1708  -19.3800  -41.2017 O.2       6 UNK        -0.5000 
     42 CA          2.7359  -17.2917  -40.1632 C.3       6 UNK         0.1400 
     43 CB          3.7402  -17.4813  -39.0165 C.3       6 UNK        -0.1800 
     44 N           2.8498  -15.9262  -40.6899 N.am      6 UNK        -0.5000 
     45 C           2.0716  -15.4132  -41.6518 C.2       5 UNK         0.5000 
     46 O           1.2532  -16.0729  -42.2926 O.2       5 UNK        -0.5000 
     47 CA          2.2479  -13.9198  -41.9768 C.3       5 UNK         0.1400 
     48 CB          3.1450  -13.7420  -43.2116 C.3       5 UNK        -0.1800 
     49 N           0.9549  -13.2877  -42.2375 N.am      5 UNK        -0.5000 
     50 C          -0.0134  -13.1106  -41.3266 C.2       4 UNK         0.5000 
     51 O           0.1258  -13.3541  -40.1269 O.2       4 UNK        -0.5000 
     52 CA         -1.3621  -12.5608  -41.8324 C.3       4 UNK         0.1400 
     53 CB         -1.4860  -11.0634  -41.5110 C.3       4 UNK        -0.1800 
     54 N          -1.5570  -12.7478  -43.2706 N.am      4 UNK        -0.5000 
     55 C          -1.8562  -13.9032  -43.8751 C.2       3 UNK         0.5000 
     56 O          -2.0602  -14.9530  -43.2675 O.2       3 UNK        -0.5000 
     57 CA         -1.9184  -13.9027  -45.4169 C.3       3 UNK         0.1400 
     58 CB         -3.3566  -13.6753  -45.9178 C.3       3 UNK        -0.1800 
     59 N          -0.9730  -12.9909  -46.0811 N.am      3 UNK        -0.5000 
     60 C          -0.9315  -11.6507  -46.0918 C.2       2 UNK         0.5000 
     61 O          -1.7099  -10.9400  -45.4562 O.2       2 UNK        -0.5000 
     62 CA          0.1683  -10.9780  -46.9393 C.3       2 UNK         0.1400 
     63 CB          1.4465  -10.7618  -46.1054 C.3       2 UNK        -0.1800 
     64 N           0.4578  -11.6506  -48.2147 N.am      2 UNK        -0.5000 
     65 C           1.0203  -12.8469  -48.4317 C.2       1 UNK         0.5000 
     66 O           1.4069  -13.5845  -47.5252 O.2       1 UNK        -0.5000 
     67 C          -1.3417  -22.3384  -46.8639 C.2       11 UNK         0.5000 
     68 O          -1.7732  -23.1620  -47.6707 O.2       11 UNK        -0.5000 
     69 N          -2.1170  -21.4089  -46.2850 N.am      12 UNK        -0.5000 
     70 CA         -3.5529  -21.2114  -46.5190 C.3       12 UNK         0.1400 
     71 CB         -4.0429  -19.9959  -45.7153 C.3       12 UNK        -0.1800 
     72 C          -4.4431  -22.4326  -46.2057 C.2       12 UNK         0.5000 
     73 O          -5.5757  -22.4813  -46.6855 O.2       12 UNK        -0.5000 
     74 N          -3.9327  -23.4044  -45.4339 N.am      13 UNK        -0.5000 
     75 CA         -4.5842  -24.6971  -45.2093 C.3       13 UNK         0.1400 
     76 CB         -3.8667  -25.4381  -44.0717 C.3       13 UNK        -0.1800 
     77 C          -4.6279  -25.5697  -46.4817 C.2       13 UNK         0.5000 
     78 O          -5.5539  -26.3673  -46.6344 O.2       13 UNK        -0.5000 
     79 N          -3.6407  -25.3924  -47.3698 N.am      14 UNK        -0.5000 
     80 CA         -3.5742  -26.0141  -48.6901 C.3       14 UNK         0.1400 
     81 CB         -2.1295  -26.4618  -48.9581 C.3       14 UNK        -0.1800 
     82 C          -4.0507  -25.0367  -49.7776 C.2       14 UNK         0.5000 
     83 O          -4.7727  -25.4520  -50.6855 O.2       14 UNK        -0.5000 
     84 N          -3.6419  -23.7622  -49.6614 N.am      15 UNK        -0.5000 
     85 CA         -3.9387  -22.6354  -50.5503 C.3       15 UNK         0.1400 
     86 CB         -5.3811  -22.1331  -50.3238 C.3       15 UNK        -0.1800 
     87 C          -3.6174  -22.9769  -52.0171 C.2       15 UNK         0.5000 
     88 O          -2.4419  -23.1281  -52.3496 O.2       15 UNK        -0.5000 
     89 N          -4.6561  -23.1546  -52.8461 N.am      16 UNK        -0.5000 
     90 CA         -4.5821  -23.4956  -54.2692 C.3       16 UNK         0.1400 
     91 CB         -6.0116  -23.5910  -54.8246 C.3       16 UNK        -0.1800 
     92 C          -3.8135  -24.7965  -54.5803 C.2       16 UNK         0.5000 
     93 O          -3.2929  -24.9396  -55.6869 O.2       16 UNK        -0.5000 
     94 N          -3.7518  -25.7197  -53.6100 N.am      17 UNK        -0.5000 
     95 CA         -2.9930  -26.9659  -53.7110 C.3       17 UNK         0.1400 
     96 CB         -3.5608  -27.9803  -52.7061 C.3       17 UNK        -0.1800 
     97 C          -1.4759  -26.7774  -53.5008 C.2       17 UNK         0.5000 
     98 O          -0.7147  -27.6746  -53.8658 O.2       17 UNK        -0.5000 
     99 N          -1.0596  -25.6445  -52.9170 N.am      18 UNK        -0.5000 
    100 CA         0.3371  -25.3235  -52.6212 C.3       18 UNK         0.1400 
    101 CB         0.4780  -25.0135  -51.1226 C.3       18 UNK        -0.1800 
    102 C          0.8512  -24.1447  -53.4625 C.2       18 UNK         0.5000 
    103 O          1.9761  -24.2092  -53.9609 O.2       18 UNK        -0.5000 
    104 N          0.0395  -23.0910  -53.6018 N.am      19 UNK        -0.5000 
    105 CA         0.3920  -21.8425  -54.2687 C.3       19 UNK         0.1400 
    106 CB         1.2633  -20.9789  -53.3313 C.3       19 UNK        -0.1800 
    107 C         -0.8907  -21.1463  -54.7573 C.2       19 UNK         0.5000 
    108 O         -1.6664  -21.7603  -55.4914 O.2       19 UNK        -0.5000 
    109 N         -1.0820  -19.8762  -54.3780 N.am      20 UNK        -0.5000 
    110 CA        -2.2396  -19.0579  -54.7302 C.3       20 UNK         0.1400 
    111 CB        -1.9281  -17.5906  -54.3968 C.3       20 UNK        -0.1800 
    112 C         -3.5063  -19.5063  -53.9838 C.2       20 UNK         0.5000 
    113 O         -3.4265  -19.9188  -52.8251 O.2       20 UNK        -0.5000 
    114 N         -4.6638  -19.3547  -54.6378 N.am      21 UNK        -0.5000 
    115 CA        -5.9939  -19.6399  -54.0953 C.3       21 UNK         0.1400 
    116 CB        -6.9699  -19.8325  -55.2703 C.3       21 UNK        -0.1800 
    117 C         -6.4592  -18.5464  -53.1084 C.2       21 UNK         0.5000 
    118 O         -7.4588  -17.8686  -53.3523 O.2       21 UNK        -0.5000 
    119 N         -5.6980  -18.3755  -52.0235 N.am      22 UNK        -0.5000 
    120 CA        -5.9006  -17.3606  -50.9798 C.3       22 UNK         0.1400 
    121 C         -7.0848  -17.6235  -50.0007 C.2       22 UNK         0.5000 
    122 N         -7.7386  -18.7784  -50.0361 N.am      22 UNK        -0.7600 
    123 O         -7.4277  -16.7532  -49.2050 O.2       22 UNK        -0.5000 
    124 C124       -4.5742  -17.0581  -50.2375 C.3       23 UNK        -0.0398 
    125 S125       -3.8848  -18.4906  -49.3366 S.3       23 UNK        -0.2404 
    126 C126       -2.4155  -17.7358  -48.5773 C.3       23 UNK        -0.0205 
    127 H127       -2.6125  -13.9847  -51.3066 H         1 UNK         0.0600 
    128 H128       -2.5772  -12.6081  -52.4110 H         1 UNK         0.0600 
    129 H129       -3.2252  -12.4154  -50.7786 H         1 UNK         0.0600 
    130 H130       -0.6219  -14.4299  -50.4155 H         1 UNK         0.3000 
    131 H131        1.5930  -12.5428  -50.4696 H         1 UNK         0.0600 
    132 H132        2.8913  -14.4922  -49.6042 H         1 UNK         0.0800 
    133 H133        1.4487  -15.4451  -49.4824 H         1 UNK         0.0800 
    134 H134       -0.1240  -15.4395  -52.4184 H         1 UNK         0.0800 
    135 H135        0.9028  -16.6290  -53.1626 H         1 UNK         0.0800 
    136 H136       -1.4936  -16.1553  -50.5985 H         1 UNK         0.1150 
    137 H137       -0.6195  -19.7279  -48.4450 H         1 UNK         0.1150 
    138 H138        2.0769  -18.3496  -51.4935 H         1 UNK         0.1150 
    139 H139        2.3408  -20.5852  -50.6136 H         1 UNK         0.0800 
    140 H140        2.5835  -20.0044  -48.9915 H         1 UNK         0.0800 
    141 H141        2.1227  -21.7419  -46.9425 H         1 UNK         0.0800 
    142 H142        0.9143  -20.5088  -47.0857 H         1 UNK         0.0800 
    143 H143        0.4360  -23.4669  -46.5432 H         1 UNK         0.0600 
    144 H144        0.9129  -21.3158  -44.7892 H         1 UNK         0.3000 
    145 H145       -0.6383  -22.7044  -41.8699 H         1 UNK         0.0600 
    146 H146        1.6611  -22.2437  -41.0823 H         1 UNK         0.0600 
    147 H147        1.6606  -23.6482  -42.1386 H         1 UNK         0.0600 
    148 H148        2.2391  -22.0984  -42.7395 H         1 UNK         0.0600 
    149 H149        0.6855  -20.2064  -42.3953 H         1 UNK         0.3000 
    150 H150       -2.2855  -18.3535  -43.1784 H         1 UNK         0.0600 
    151 H151       -2.1521  -18.3627  -40.6877 H         1 UNK         0.0600 
    152 H152       -1.3799  -16.9302  -41.3526 H         1 UNK         0.0600 
    153 H153       -0.3964  -18.2690  -40.7654 H         1 UNK         0.0600 
    154 H154        0.3911  -17.4860  -43.0224 H         1 UNK         0.3000 
    155 H155        1.4029  -18.3220  -46.3644 H         1 UNK         0.0600 
    156 H156        1.9480  -15.8877  -46.2322 H         1 UNK         0.0600 
    157 H157        0.7672  -15.6897  -44.9379 H         1 UNK         0.0600 
    158 H158        0.2468  -16.1755  -46.5498 H         1 UNK         0.0600 
    159 H159        2.7001  -17.1126  -44.0908 H         1 UNK         0.3000 
    160 H160        4.2239  -20.1065  -42.8832 H         1 UNK         0.0600 
    161 H161        5.3662  -17.6777  -44.3688 H         1 UNK         0.0600 
    162 H162        5.6285  -19.3606  -44.8107 H         1 UNK         0.0600 
    163 H163        6.2576  -18.7501  -43.2888 H         1 UNK         0.0600 
    164 H164        4.4142  -17.3553  -42.0980 H         1 UNK         0.3000 
    165 H165        1.7305  -17.3961  -39.7505 H         1 UNK         0.0600 
    166 H166        4.7682  -17.3432  -39.3535 H         1 UNK         0.0600 
    167 H167        3.5536  -16.7748  -38.2075 H         1 UNK         0.0600 
    168 H168        3.6651  -18.4840  -38.5932 H         1 UNK         0.0600 
    169 H169        3.5107  -15.3220  -40.2231 H         1 UNK         0.3000 
    170 H170        2.7125  -13.4187  -41.1252 H         1 UNK         0.0600 
    171 H171        4.1260  -14.1909  -43.0512 H         1 UNK         0.0600 
    172 H172        2.7113  -14.2077  -44.0977 H         1 UNK         0.0600 
    173 H173        3.3043  -12.6867  -43.4342 H         1 UNK         0.0600 
    174 H174        0.7343  -13.0911  -43.2012 H         1 UNK         0.3000 
    175 H175       -2.1547  -13.0935  -41.3029 H         1 UNK         0.0600 
    176 H176       -2.4620  -10.6768  -41.8051 H         1 UNK         0.0600 
    177 H177       -1.3740  -10.8815  -40.4413 H         1 UNK         0.0600 
    178 H178       -0.7239  -10.4775  -42.0265 H         1 UNK         0.0600 
    179 H179       -1.4785  -11.9244  -43.8604 H         1 UNK         0.3000 
    180 H180       -1.6274  -14.9053  -45.7316 H         1 UNK         0.0600 
    181 H181       -3.4113  -13.7483  -47.0041 H         1 UNK         0.0600 
    182 H182       -4.0335  -14.4255  -45.5073 H         1 UNK         0.0600 
    183 H183       -3.7405  -12.6974  -45.6263 H         1 UNK         0.0600 
    184 H184       -0.2165  -13.4478  -46.5844 H         1 UNK         0.3000 
    185 H185       -0.2129   -9.9927  -47.2121 H         1 UNK         0.0600 
    186 H186        2.2118  -10.2446  -46.6839 H         1 UNK         0.0600 
    187 H187        1.2366  -10.1513  -45.2262 H         1 UNK         0.0600 
    188 H188        1.8713  -11.7013  -45.7508 H         1 UNK         0.0600 
    189 H189        0.1011  -11.1755  -49.0386 H         1 UNK         0.3000 
    190 H190       -1.6668  -20.7183  -45.6902 H         1 UNK         0.3000 
    191 H191       -3.6739  -20.9908  -47.5809 H         1 UNK         0.0600 
    192 H192       -5.0806  -19.7634  -45.9576 H         1 UNK         0.0600 
    193 H193       -3.4587  -19.1034  -45.9284 H         1 UNK         0.0600 
    194 H194       -3.9920  -20.1781  -44.6424 H         1 UNK         0.0600 
    195 H195       -2.9985  -23.2932  -45.0598 H         1 UNK         0.3000 
    196 H196       -5.6137  -24.5093  -44.8972 H         1 UNK         0.0600 
    197 H197       -4.3803  -26.3692  -43.8292 H         1 UNK         0.0600 
    198 H198       -3.8364  -24.8360  -43.1633 H         1 UNK         0.0600 
    199 H199       -2.8409  -25.6914  -44.3413 H         1 UNK         0.0600 
    200 H200       -2.9425  -24.6813  -47.1804 H         1 UNK         0.3000 
    201 H201       -4.2148  -26.8976  -48.7292 H         1 UNK         0.0600 
    202 H202       -1.8215  -27.2328  -48.2518 H         1 UNK         0.0600 
    203 H203       -1.4295  -25.6309  -48.8677 H         1 UNK         0.0600 
    204 H204       -2.0207  -26.8762  -49.9604 H         1 UNK         0.0600 
    205 H205       -2.9813  -23.5491  -48.9162 H         1 UNK         0.3000 
    206 H206       -3.2599  -21.8275  -50.2710 H         1 UNK         0.0600 
    207 H207       -5.5091  -21.7745  -49.3031 H         1 UNK         0.0600 
    208 H208       -5.6120  -21.2947  -50.9818 H         1 UNK         0.0600 
    209 H209       -6.1236  -22.9135  -50.4929 H         1 UNK         0.0600 
    210 H210       -5.5831  -23.0779  -52.4554 H         1 UNK         0.3000 
    211 H211       -4.0686  -22.6761  -54.7742 H         1 UNK         0.0600 
    212 H212       -6.5617  -24.4177  -54.3730 H         1 UNK         0.0600 
    213 H213       -6.0008  -23.7544  -55.9030 H         1 UNK         0.0600 
    214 H214       -6.5762  -22.6785  -54.6411 H         1 UNK         0.0600 
    215 H215       -4.2067  -25.5318  -52.7225 H         1 UNK         0.3000 
    216 H216       -3.1320  -27.3782  -54.7127 H         1 UNK         0.0600 
    217 H217       -3.0464  -28.9389  -52.7842 H         1 UNK         0.0600 
    218 H218       -4.6196  -28.1649  -52.8885 H         1 UNK         0.0600 
    219 H219       -3.4548  -27.6350  -51.6786 H         1 UNK         0.0600 
    220 H220       -1.7403  -24.9253  -52.6949 H         1 UNK         0.3000 
    221 H221        0.9834  -26.1758  -52.8405 H         1 UNK         0.0600 
    222 H222        0.2999  -25.9060  -50.5244 H         1 UNK         0.0600 
    223 H223        1.4833  -24.6632  -50.8845 H         1 UNK         0.0600 
    224 H224       -0.2234  -24.2427  -50.7996 H         1 UNK         0.0600 
    225 H225       -0.8888  -23.1096  -53.1794 H         1 UNK         0.3000 
    226 H226        0.9727  -22.0721  -55.1643 H         1 UNK         0.0600 
    227 H227        0.7242  -20.7317  -52.4169 H         1 UNK         0.0600 
    228 H228        2.1758  -21.5017  -53.0449 H         1 UNK         0.0600 
    229 H229        1.5706  -20.0483  -53.8099 H         1 UNK         0.0600 
    230 H230       -0.4261  -19.4657  -53.7307 H         1 UNK         0.3000 
    231 H231       -2.4086  -19.1462  -55.8055 H         1 UNK         0.0600 
    232 H232       -2.7486  -16.9379  -54.6978 H         1 UNK         0.0600 
    233 H233       -1.0330  -17.2465  -54.9152 H         1 UNK         0.0600 
    234 H234       -1.7752  -17.4484  -53.3264 H         1 UNK         0.0600 
    235 H235       -4.6454  -18.9649  -55.5691 H         1 UNK         0.3000 
    236 H236       -5.9498  -20.5780  -53.5395 H         1 UNK         0.0600 
    237 H237       -7.0773  -18.9209  -55.8595 H         1 UNK         0.0600 
    238 H238       -6.6322  -20.6225  -55.9412 H         1 UNK         0.0600 
    239 H239       -7.9615  -20.1126  -54.9127 H         1 UNK         0.0600 
    240 H240       -4.8681  -18.9543  -51.9278 H         1 UNK         0.3000 
    241 H241       -6.1740  -16.4396  -51.4984 H         1 UNK         0.0600 
    242 H242       -8.5065  -18.9329  -49.4022 H         1 UNK         0.3800 
    243 H243       -7.4717  -19.4966  -50.6877 H         1 UNK         0.3800 
    244 H244       -3.8296  -16.7174  -50.9576 H         1 UNK         0.0800 
    245 H245       -4.7125  -16.2324  -49.5373 H         1 UNK         0.0800 
    246 H246       -2.5868  -16.6766  -48.3803 H         1 UNK         0.0800 
    247 H247       -2.2512  -18.1943  -47.6034 H         1 UNK         0.0800 
@<TRIPOS>BOND
     1    1    2 1    
     2    1  127 1    
     3    1  128 1    
     4    1  129 1    
     5    2    3 2    
     6    2    4 am   BACKBONE|DICT|INTERRES
     7    4    5 1    
     8    4  130 1    
     9    5    6 1    
    10    5   65 1    
    11    5  131 1    
    12    6    7 1    
    13    6  132 1    
    14    6  133 1    
    15    7    8 1    
    16    8    9 1    
    17    8  134 1    
    18    8  135 1    
    19    9   10 ar   
    20    9   14 ar   
    21   10   11 ar   
    22   10  136 1    
    23   11   12 ar   
    24   11  126 1    
    25   12   13 ar   
    26   12  137 1    
    27   13   14 ar   
    28   13   15 1    
    29   14  138 1    
    30   15   16 1    
    31   15  139 1    
    32   15  140 1    
    33   16   17 1    
    34   17   18 1    
    35   17  141 1    
    36   17  142 1    
    37   18   19 1    
    38   18   67 1    
    39   18  143 1    
    40   19   20 am   BACKBONE|DICT|INTERRES
    41   19  144 1    
    42   20   21 2    
    43   20   22 1    
    44   22   23 1    
    45   22   24 1    
    46   22  145 1    
    47   23  146 1    
    48   23  147 1    
    49   23  148 1    
    50   24   25 am   BACKBONE|DICT|INTERRES
    51   24  149 1    
    52   25   26 2    
    53   25   27 1    
    54   27   28 1    
    55   27   29 1    
    56   27  150 1    
    57   28  151 1    
    58   28  152 1    
    59   28  153 1    
    60   29   30 am   BACKBONE|DICT|INTERRES
    61   29  154 1    
    62   30   31 2    
    63   30   32 1    
    64   32   33 1    
    65   32   34 1    
    66   32  155 1    
    67   33  156 1    
    68   33  157 1    
    69   33  158 1    
    70   34   35 am   BACKBONE|DICT|INTERRES
    71   34  159 1    
    72   35   36 2    
    73   35   37 1    
    74   37   38 1    
    75   37   39 1    
    76   37  160 1    
    77   38  161 1    
    78   38  162 1    
    79   38  163 1    
    80   39   40 am   BACKBONE|DICT|INTERRES
    81   39  164 1    
    82   40   41 2    
    83   40   42 1    
    84   42   43 1    
    85   42   44 1    
    86   42  165 1    
    87   43  166 1    
    88   43  167 1    
    89   43  168 1    
    90   44   45 am   BACKBONE|DICT|INTERRES
    91   44  169 1    
    92   45   46 2    
    93   45   47 1    
    94   47   48 1    
    95   47   49 1    
    96   47  170 1    
    97   48  171 1    
    98   48  172 1    
    99   48  173 1    
   100   49   50 am   BACKBONE|DICT|INTERRES
   101   49  174 1    
   102   50   51 2    
   103   50   52 1    
   104   52   53 1    
   105   52   54 1    
   106   52  175 1    
   107   53  176 1    
   108   53  177 1    
   109   53  178 1    
   110   54   55 am   BACKBONE|DICT|INTERRES
   111   54  179 1    
   112   55   56 2    
   113   55   57 1    
   114   57   58 1    
   115   57   59 1    
   116   57  180 1    
   117   58  181 1    
   118   58  182 1    
   119   58  183 1    
   120   59   60 am   BACKBONE|DICT|INTERRES
   121   59  184 1    
   122   60   61 2    
   123   60   62 1    
   124   62   63 1    
   125   62   64 1    
   126   62  185 1    
   127   63  186 1    
   128   63  187 1    
   129   63  188 1    
   130   64   65 am   BACKBONE|DICT|INTERRES
   131   64  189 1    
   132   65   66 2    
   133   67   68 2    
   134   67   69 am   BACKBONE|DICT|INTERRES
   135   69   70 1    
   136   69  190 1    
   137   70   71 1    
   138   70   72 1    
   139   70  191 1    
   140   71  192 1    
   141   71  193 1    
   142   71  194 1    
   143   72   73 2    
   144   72   74 am   BACKBONE|DICT|INTERRES
   145   74   75 1    
   146   74  195 1    
   147   75   76 1    
   148   75   77 1    
   149   75  196 1    
   150   76  197 1    
   151   76  198 1    
   152   76  199 1    
   153   77   78 2    
   154   77   79 am   BACKBONE|DICT|INTERRES
   155   79   80 1    
   156   79  200 1    
   157   80   81 1    
   158   80   82 1    
   159   80  201 1    
   160   81  202 1    
   161   81  203 1    
   162   81  204 1    
   163   82   83 2    
   164   82   84 am   BACKBONE|DICT|INTERRES
   165   84   85 1    
   166   84  205 1    
   167   85   86 1    
   168   85   87 1    
   169   85  206 1    
   170   86  207 1    
   171   86  208 1    
   172   86  209 1    
   173   87   88 2    
   174   87   89 am   BACKBONE|DICT|INTERRES
   175   89   90 1    
   176   89  210 1    
   177   90   91 1    
   178   90   92 1    
   179   90  211 1    
   180   91  212 1    
   181   91  213 1    
   182   91  214 1    
   183   92   93 2    
   184   92   94 am   BACKBONE|DICT|INTERRES
   185   94   95 1    
   186   94  215 1    
   187   95   96 1    
   188   95   97 1    
   189   95  216 1    
   190   96  217 1    
   191   96  218 1    
   192   96  219 1    
   193   97   98 2    
   194   97   99 am   BACKBONE|DICT|INTERRES
   195   99  100 1    
   196   99  220 1    
   197  100  101 1    
   198  100  102 1    
   199  100  221 1    
   200  101  222 1    
   201  101  223 1    
   202  101  224 1    
   203  102  103 2    
   204  102  104 am   BACKBONE|DICT|INTERRES
   205  104  105 1    
   206  104  225 1    
   207  105  106 1    
   208  105  107 1    
   209  105  226 1    
   210  106  227 1    
   211  106  228 1    
   212  106  229 1    
   213  107  108 2    
   214  107  109 am   BACKBONE|DICT|INTERRES
   215  109  110 1    
   216  109  230 1    
   217  110  111 1    
   218  110  112 1    
   219  110  231 1    
   220  111  232 1    
   221  111  233 1    
   222  111  234 1    
   223  112  113 2    
   224  112  114 am   BACKBONE|DICT|INTERRES
   225  114  115 1    
   226  114  235 1    
   227  115  116 1    
   228  115  117 1    
   229  115  236 1    
   230  116  237 1    
   231  116  238 1    
   232  116  239 1    
   233  117  118 2    
   234  117  119 am   BACKBONE|DICT|INTERRES
   235  119  120 1    
   236  119  240 1    
   237  120  121 1    
   238  120  124 1    
   239  120  241 1    
   240  121  122 am   BACKBONE|DICT|INTERRES
   241  121  123 2    
   242  122  242 1    
   243  122  243 1    
   244  124  125 1    
   245  124  244 1    
   246  124  245 1    
   247  125  126 1    
   248  126  246 1    
   249  126  247 1    
@<TRIPOS>SUBSTRUCTURE
     1 UNK         1 GROUP             0       ****    0 ROOT    
