@<TRIPOS>MOLECULE
3R540
247   249    1
SMALL
USER_CHARGES


@<TRIPOS>ATOM
      1 CA         -7.0888  -14.3268  -44.3462 C.3       0 UNK        -0.1800 
      2 C          -5.9019  -13.4024  -44.5801 C.2       0 UNK         0.5000 
      3 O          -5.9225  -12.2540  -44.1356 O.2       0 UNK        -0.5000 
      4 N          -4.8754  -13.8957  -45.2826 N.am      1 UNK        -0.5000 
      5 CA         -3.6262  -13.1776  -45.5592 C.3       1 UNK         0.1400 
      6 C6         -2.8404  -13.8156  -46.7318 C.3       23 UNK        -0.0398 
      7 S7         -3.7747  -13.7204  -48.2990 S.3       23 UNK        -0.2404 
      8 C8         -4.0924  -15.4731  -48.6749 C.3       23 UNK        -0.0205 
      9 C9         -2.9083  -16.1166  -49.3795 C.ar      23 UNK        -0.0193 
     10 C10        -2.7707  -15.9999  -50.7656 C.ar      23 UNK        -0.1150 
     11 C11        -1.6861  -16.5848  -51.4262 C.ar      23 UNK        -0.0193 
     12 C12        -0.7358  -17.2976  -50.6889 C.ar      23 UNK        -0.1150 
     13 C13        -0.8582  -17.4109  -49.3007 C.ar      23 UNK        -0.0193 
     14 C14        -1.9476  -16.8227  -48.6522 C.ar      23 UNK        -0.1150 
     15 C15         0.2055  -18.1350  -48.4932 C.3       23 UNK        -0.0205 
     16 S16        -0.1105  -19.9159  -48.3928 S.3       23 UNK        -0.2404 
     17 C17        -1.5774  -19.9560  -47.3139 C.3       23 UNK        -0.0398 
     18 CA         -1.7875  -21.3766  -46.7521 C.3       11 UNK         0.1400 
     19 N          -0.8228  -21.7073  -45.7047 N.am      11 UNK        -0.5000 
     20 C          -0.5411  -22.9531  -45.3058 C.2       10 UNK         0.5000 
     21 O          -1.0651  -23.9592  -45.7811 O.2       10 UNK        -0.5000 
     22 CA          0.4510  -23.0851  -44.1394 C.3       10 UNK         0.1400 
     23 CB          1.8912  -22.8688  -44.6268 C.3       10 UNK        -0.1800 
     24 N           0.1459  -22.1496  -43.0551 N.am      10 UNK        -0.5000 
     25 C          -0.9758  -22.1984  -42.3210 C.2       9 UNK         0.5000 
     26 O          -1.8526  -23.0498  -42.4704 O.2       9 UNK        -0.5000 
     27 CA         -1.1732  -21.0967  -41.2656 C.3       9 UNK         0.1400 
     28 CB         -0.5027  -21.4951  -39.9429 C.3       9 UNK        -0.1800 
     29 N          -0.6845  -19.7784  -41.6692 N.am      9 UNK        -0.5000 
     30 C          -1.0716  -19.0713  -42.7377 C.2       8 UNK         0.5000 
     31 O          -1.8467  -19.4992  -43.5932 O.2       8 UNK        -0.5000 
     32 CA         -0.4880  -17.6521  -42.8859 C.3       8 UNK         0.1400 
     33 CB         -1.2076  -16.6513  -41.9637 C.3       8 UNK        -0.1800 
     34 N           0.9692  -17.5767  -42.7278 N.am      8 UNK        -0.5000 
     35 C           1.7309  -17.8267  -41.6501 C.2       7 UNK         0.5000 
     36 O           1.2698  -18.1250  -40.5474 O.2       7 UNK        -0.5000 
     37 CA          3.2632  -17.7293  -41.8208 C.3       7 UNK         0.1400 
     38 CB          4.0077  -18.8449  -41.0564 C.3       7 UNK        -0.1800 
     39 N           3.7055  -17.6545  -43.2218 N.am      7 UNK        -0.5000 
     40 C           3.5911  -18.6147  -44.1525 C.2       6 UNK         0.5000 
     41 O           3.1161  -19.7275  -43.9205 O.2       6 UNK        -0.5000 
     42 CA          4.0484  -18.2559  -45.5854 C.3       6 UNK         0.1400 
     43 CB          3.5134  -19.2564  -46.6329 C.3       6 UNK        -0.1800 
     44 N           3.7302  -16.8831  -46.0087 N.am      6 UNK        -0.5000 
     45 C           2.5214  -16.3030  -46.0223 C.2       5 UNK         0.5000 
     46 O           1.5221  -16.7935  -45.4959 O.2       5 UNK        -0.5000 
     47 CA          2.4329  -14.9338  -46.7200 C.3       5 UNK         0.1400 
     48 CB          1.0212  -14.6309  -47.2551 C.3       5 UNK        -0.1800 
     49 N           2.8079  -13.8944  -45.7719 N.am      5 UNK        -0.5000 
     50 C           4.0533  -13.4367  -45.5837 C.2       4 UNK         0.5000 
     51 O           5.0179  -13.7907  -46.2629 O.2       4 UNK        -0.5000 
     52 CA          4.2677  -12.4407  -44.4230 C.3       4 UNK         0.1400 
     53 CB          4.1859  -10.9940  -44.9331 C.3       4 UNK        -0.1800 
     54 N           3.3079  -12.6147  -43.3305 N.am      4 UNK        -0.5000 
     55 C           3.1813  -13.7302  -42.5990 C.2       3 UNK         0.5000 
     56 O           3.9622  -14.6780  -42.6784 O.2       3 UNK        -0.5000 
     57 CA          1.9605  -13.8339  -41.6601 C.3       3 UNK         0.1400 
     58 CB          2.3897  -13.6669  -40.1953 C.3       3 UNK        -0.1800 
     59 N           0.8659  -12.8986  -41.9504 N.am      3 UNK        -0.5000 
     60 C           0.1735  -12.8400  -43.0966 C.2       2 UNK         0.5000 
     61 O           0.4348  -13.5265  -44.0861 O.2       2 UNK        -0.5000 
     62 CA         -0.9512  -11.7888  -43.1579 C.3       2 UNK         0.1400 
     63 CB         -0.3551  -10.3858  -43.3590 C.3       2 UNK        -0.1800 
     64 N          -1.9067  -12.0440  -44.2373 N.am      2 UNK        -0.5000 
     65 C          -2.7494  -13.0835  -44.2916 C.2       1 UNK         0.5000 
     66 O          -2.8444  -13.9371  -43.4055 O.2       1 UNK        -0.5000 
     67 C          -3.2388  -21.5930  -46.2944 C.2       11 UNK         0.5000 
     68 O          -4.0593  -21.9912  -47.1196 O.2       11 UNK        -0.5000 
     69 N          -3.5335  -21.3767  -45.0058 N.am      12 UNK        -0.5000 
     70 CA         -4.8339  -21.6829  -44.4070 C.3       12 UNK         0.1400 
     71 CB         -4.8903  -21.1325  -42.9745 C.3       12 UNK        -0.1800 
     72 C          -5.1474  -23.1918  -44.4329 C.2       12 UNK         0.5000 
     73 O          -6.2787  -23.5705  -44.7369 O.2       12 UNK        -0.5000 
     74 N          -4.1328  -24.0215  -44.1513 N.am      13 UNK        -0.5000 
     75 CA         -4.2124  -25.4796  -44.2199 C.3       13 UNK         0.1400 
     76 CB         -3.0158  -26.0906  -43.4742 C.3       13 UNK        -0.1800 
     77 C          -4.2799  -26.0033  -45.6669 C.2       13 UNK         0.5000 
     78 O          -5.0996  -26.8749  -45.9584 O.2       13 UNK        -0.5000 
     79 N          -3.4179  -25.4708  -46.5445 N.am      14 UNK        -0.5000 
     80 CA         -3.2833  -25.9022  -47.9389 C.3       14 UNK         0.1400 
     81 CB         -1.9152  -25.4464  -48.4708 C.3       14 UNK        -0.1800 
     82 C          -4.4006  -25.4010  -48.8745 C.2       14 UNK         0.5000 
     83 O          -4.5351  -25.9428  -49.9718 O.2       14 UNK        -0.5000 
     84 N          -5.1479  -24.3719  -48.4463 N.am      15 UNK        -0.5000 
     85 CA         -6.0980  -23.5760  -49.2339 C.3       15 UNK         0.1400 
     86 CB         -7.2787  -24.4294  -49.7441 C.3       15 UNK        -0.1800 
     87 C          -5.3591  -22.8027  -50.3463 C.2       15 UNK         0.5000 
     88 O          -5.6653  -22.9602  -51.5286 O.2       15 UNK        -0.5000 
     89 N          -4.3767  -22.0053  -49.9021 N.am      16 UNK        -0.5000 
     90 CA         -3.3234  -21.3161  -50.6494 C.3       16 UNK         0.1400 
     91 CB         -3.8674  -20.4090  -51.7695 C.3       16 UNK        -0.1800 
     92 C          -2.2692  -22.3164  -51.1521 C.2       16 UNK         0.5000 
     93 O          -2.5136  -23.0570  -52.1040 O.2       16 UNK        -0.5000 
     94 N          -1.0946  -22.3144  -50.5062 N.am      17 UNK        -0.5000 
     95 CA          0.0358  -23.1912  -50.8328 C.3       17 UNK         0.1400 
     96 CB          1.0854  -23.1017  -49.7145 C.3       17 UNK        -0.1800 
     97 C           0.6684  -22.8906  -52.2068 C.2       17 UNK         0.5000 
     98 O           1.3382  -23.7567  -52.7715 O.2       17 UNK        -0.5000 
     99 N           0.4111  -21.6893  -52.7421 N.am      18 UNK        -0.5000 
    100 CA         0.7518  -21.2506  -54.0934 C.3       18 UNK         0.1400 
    101 CB         0.7044  -19.7140  -54.1280 C.3       18 UNK        -0.1800 
    102 C         -0.1716  -21.9026  -55.1474 C.2       18 UNK         0.5000 
    103 O         -0.9670  -21.2177  -55.7967 O.2       18 UNK        -0.5000 
    104 N         -0.0700  -23.2343  -55.2618 N.am      19 UNK        -0.5000 
    105 CA        -0.7380  -24.1199  -56.2250 C.3       19 UNK         0.1400 
    106 CB        -0.1888  -23.8543  -57.6424 C.3       19 UNK        -0.1800 
    107 C         -2.2827  -24.0809  -56.1894 C.2       19 UNK         0.5000 
    108 O         -2.9169  -24.4617  -57.1748 O.2       19 UNK        -0.5000 
    109 N         -2.8616  -23.6070  -55.0744 N.am      20 UNK        -0.5000 
    110 CA        -4.2882  -23.3311  -54.8664 C.3       20 UNK         0.1400 
    111 CB        -5.0971  -24.6440  -54.8138 C.3       20 UNK        -0.1800 
    112 C         -4.8665  -22.3019  -55.8644 C.2       20 UNK         0.5000 
    113 O         -6.0602  -22.3530  -56.1688 O.2       20 UNK        -0.5000 
    114 N         -4.0138  -21.3993  -56.3722 N.am      21 UNK        -0.5000 
    115 CA        -4.3538  -20.4630  -57.4438 C.3       21 UNK         0.1400 
    116 CB        -3.9593  -21.0807  -58.7962 C.3       21 UNK        -0.1800 
    117 C         -3.7081  -19.0799  -57.2726 C.2       21 UNK         0.5000 
    118 O         -4.3047  -18.0961  -57.7123 O.2       21 UNK        -0.5000 
    119 N         -2.5141  -19.0145  -56.6645 N.am      22 UNK        -0.5000 
    120 CA        -1.7132  -17.7881  -56.4779 C.3       22 UNK         0.1400 
    121 C         -1.1516  -17.1727  -57.7987 C.2       22 UNK         0.5000 
    122 N         -1.0891  -17.9138  -58.8986 N.am      22 UNK        -0.7600 
    123 O         -0.7326  -16.0185  -57.8267 O.2       22 UNK        -0.5000 
    124 C124       -2.4002  -16.7325  -55.5643 C.3       23 UNK        -0.0398 
    125 S125       -2.7328  -17.3586  -53.8809 S.3       23 UNK        -0.2404 
    126 C126       -1.5196  -16.3952  -52.9261 C.3       23 UNK        -0.0205 
    127 H127       -6.9395  -15.3036  -44.8070 H         1 UNK         0.0600 
    128 H128       -7.9945  -13.8885  -44.7653 H         1 UNK         0.0600 
    129 H129       -7.2432  -14.4753  -43.2774 H         1 UNK         0.0600 
    130 H130       -4.9088  -14.8529  -45.5988 H         1 UNK         0.3000 
    131 H131       -3.8886  -12.1573  -45.8486 H         1 UNK         0.0600 
    132 H132       -2.5794  -14.8494  -46.5031 H         1 UNK         0.0800 
    133 H133       -1.8943  -13.2947  -46.8896 H         1 UNK         0.0800 
    134 H134       -4.9727  -15.5377  -49.3163 H         1 UNK         0.0800 
    135 H135       -4.3444  -16.0163  -47.7631 H         1 UNK         0.0800 
    136 H136       -3.5038  -15.4429  -51.3322 H         1 UNK         0.1150 
    137 H137        0.1111  -17.7452  -51.1899 H         1 UNK         0.1150 
    138 H138       -2.0410  -16.9082  -47.5792 H         1 UNK         0.1150 
    139 H139        0.2528  -17.7280  -47.4847 H         1 UNK         0.0800 
    140 H140        1.1881  -17.9711  -48.9377 H         1 UNK         0.0800 
    141 H141       -2.4350  -19.6252  -47.9018 H         1 UNK         0.0800 
    142 H142       -1.4653  -19.2337  -46.5030 H         1 UNK         0.0800 
    143 H143       -1.6344  -22.0844  -47.5695 H         1 UNK         0.0600 
    144 H144       -0.3832  -20.9323  -45.2304 H         1 UNK         0.3000 
    145 H145        0.3721  -24.0998  -43.7434 H         1 UNK         0.0600 
    146 H146        2.0244  -21.8810  -45.0690 H         1 UNK         0.0600 
    147 H147        2.1583  -23.6041  -45.3868 H         1 UNK         0.0600 
    148 H148        2.6061  -22.9695  -43.8101 H         1 UNK         0.0600 
    149 H149        0.8122  -21.4102  -42.8825 H         1 UNK         0.3000 
    150 H150       -2.2453  -21.0019  -41.0862 H         1 UNK         0.0600 
    151 H151        0.5815  -21.5586  -40.0453 H         1 UNK         0.0600 
    152 H152       -0.8594  -22.4672  -39.5996 H         1 UNK         0.0600 
    153 H153       -0.7225  -20.7727  -39.1564 H         1 UNK         0.0600 
    154 H154       -0.0208  -19.3265  -41.0441 H         1 UNK         0.3000 
    155 H155       -0.6854  -17.3423  -43.9135 H         1 UNK         0.0600 
    156 H156       -1.0661  -16.8857  -40.9087 H         1 UNK         0.0600 
    157 H157       -2.2812  -16.6503  -42.1563 H         1 UNK         0.0600 
    158 H158       -0.8507  -15.6359  -42.1336 H         1 UNK         0.0600 
    159 H159        1.4506  -17.3568  -43.5953 H         1 UNK         0.3000 
    160 H160        3.5509  -16.7886  -41.3537 H         1 UNK         0.0600 
    161 H161        3.6927  -19.8395  -41.3726 H         1 UNK         0.0600 
    162 H162        3.8210  -18.7741  -39.9842 H         1 UNK         0.0600 
    163 H163        5.0855  -18.7710  -41.2006 H         1 UNK         0.0600 
    164 H164        4.0641  -16.7491  -43.5025 H         1 UNK         0.3000 
    165 H165        5.1365  -18.3316  -45.5816 H         1 UNK         0.0600 
    166 H166        3.8591  -20.2693  -46.4233 H         1 UNK         0.0600 
    167 H167        2.4232  -19.2800  -46.6444 H         1 UNK         0.0600 
    168 H168        3.8533  -19.0011  -47.6365 H         1 UNK         0.0600 
    169 H169        4.5040  -16.3590  -46.3958 H         1 UNK         0.3000 
    170 H170        3.1157  -14.9303  -47.5723 H         1 UNK         0.0600 
    171 H171        0.9677  -13.6293  -47.6815 H         1 UNK         0.0600 
    172 H172        0.7479  -15.3294  -48.0446 H         1 UNK         0.0600 
    173 H173        0.2613  -14.7006  -46.4763 H         1 UNK         0.0600 
    174 H174        2.0716  -13.6077  -45.1324 H         1 UNK         0.3000 
    175 H175        5.2692  -12.6102  -44.0222 H         1 UNK         0.0600 
    176 H176        4.9054  -10.8215  -45.7347 H         1 UNK         0.0600 
    177 H177        3.1950  -10.7613  -45.3252 H         1 UNK         0.0600 
    178 H178        4.4094  -10.2818  -44.1386 H         1 UNK         0.0600 
    179 H179        2.6275  -11.8812  -43.2018 H         1 UNK         0.3000 
    180 H180        1.5588  -14.8407  -41.7813 H         1 UNK         0.0600 
    181 H181        2.7677  -12.6627  -39.9998 H         1 UNK         0.0600 
    182 H182        3.1803  -14.3722  -39.9351 H         1 UNK         0.0600 
    183 H183        1.5571  -13.8525  -39.5164 H         1 UNK         0.0600 
    184 H184        0.6055  -12.2786  -41.1967 H         1 UNK         0.3000 
    185 H185       -1.4941  -11.8110  -42.2106 H         1 UNK         0.0600 
    186 H186        0.3284  -10.1253  -42.5499 H         1 UNK         0.0600 
    187 H187        0.2022  -10.3156  -44.2943 H         1 UNK         0.0600 
    188 H188       -1.1354   -9.6244  -43.3759 H         1 UNK         0.0600 
    189 H189       -1.8734  -11.4017  -45.0151 H         1 UNK         0.3000 
    190 H190       -2.8284  -20.9673  -44.3998 H         1 UNK         0.3000 
    191 H191       -5.5993  -21.1723  -44.9953 H         1 UNK         0.0600 
    192 H192       -4.6676  -20.0655  -42.9505 H         1 UNK         0.0600 
    193 H193       -5.8838  -21.2687  -42.5458 H         1 UNK         0.0600 
    194 H194       -4.1817  -21.6389  -42.3203 H         1 UNK         0.0600 
    195 H195       -3.2457  -23.6276  -43.8550 H         1 UNK         0.3000 
    196 H196       -5.1236  -25.7961  -43.7079 H         1 UNK         0.0600 
    197 H197       -2.0659  -25.7836  -43.9134 H         1 UNK         0.0600 
    198 H198       -3.0538  -27.1803  -43.4990 H         1 UNK         0.0600 
    199 H199       -3.0101  -25.7884  -42.4268 H         1 UNK         0.0600 
    200 H200       -2.7283  -24.8015  -46.2121 H         1 UNK         0.3000 
    201 H201       -3.3059  -26.9938  -47.9633 H         1 UNK         0.0600 
    202 H202       -1.8287  -24.3599  -48.4699 H         1 UNK         0.0600 
    203 H203       -1.1011  -25.8486  -47.8677 H         1 UNK         0.0600 
    204 H204       -1.7585  -25.7871  -49.4949 H         1 UNK         0.0600 
    205 H205       -4.9114  -23.9787  -47.5439 H         1 UNK         0.3000 
    206 H206       -6.5087  -22.8285  -48.5533 H         1 UNK         0.0600 
    207 H207       -7.7604  -24.9639  -48.9254 H         1 UNK         0.0600 
    208 H208       -8.0354  -23.7984  -50.2114 H         1 UNK         0.0600 
    209 H209       -6.9678  -25.1633  -50.4876 H         1 UNK         0.0600 
    210 H210       -4.2572  -21.9829  -48.8905 H         1 UNK         0.3000 
    211 H211       -2.8376  -20.6551  -49.9330 H         1 UNK         0.0600 
    212 H212       -4.5714  -19.6762  -51.3756 H         1 UNK         0.0600 
    213 H213       -3.0536  -19.8564  -52.2393 H         1 UNK         0.0600 
    214 H214       -4.3705  -20.9679  -52.5564 H         1 UNK         0.0600 
    215 H215       -0.9332  -21.6479  -49.7629 H         1 UNK         0.3000 
    216 H216       -0.3363  -24.2170  -50.8676 H         1 UNK         0.0600 
    217 H217        1.5323  -22.1086  -49.6594 H         1 UNK         0.0600 
    218 H218        1.8943  -23.8136  -49.8831 H         1 UNK         0.0600 
    219 H219        0.6504  -23.3304  -48.7410 H         1 UNK         0.0600 
    220 H220       -0.1601  -21.0560  -52.2039 H         1 UNK         0.3000 
    221 H221        1.7752  -21.5590  -54.3165 H         1 UNK         0.0600 
    222 H222       -0.2954  -19.3371  -53.9093 H         1 UNK         0.0600 
    223 H223        1.3901  -19.2814  -53.3993 H         1 UNK         0.0600 
    224 H224        0.9993  -19.3399  -55.1087 H         1 UNK         0.0600 
    225 H225        0.5587  -23.6950  -54.6103 H         1 UNK         0.3000 
    226 H226       -0.4581  -25.1364  -55.9456 H         1 UNK         0.0600 
    227 H227        0.9001  -23.9009  -57.6592 H         1 UNK         0.0600 
    228 H228       -0.5524  -24.5973  -58.3532 H         1 UNK         0.0600 
    229 H229       -0.4885  -22.8732  -58.0126 H         1 UNK         0.0600 
    230 H230       -2.2680  -23.3492  -54.2952 H         1 UNK         0.3000 
    231 H231       -4.3708  -22.8646  -53.8871 H         1 UNK         0.0600 
    232 H232       -5.1277  -25.1432  -55.7824 H         1 UNK         0.0600 
    233 H233       -6.1268  -24.4553  -54.5083 H         1 UNK         0.0600 
    234 H234       -4.6706  -25.3372  -54.0887 H         1 UNK         0.0600 
    235 H235       -3.0468  -21.4216  -56.0702 H         1 UNK         0.3000 
    236 H236       -5.4322  -20.2903  -57.4511 H         1 UNK         0.0600 
    237 H237       -2.8934  -21.3089  -58.8361 H         1 UNK         0.0600 
    238 H238       -4.5043  -22.0070  -58.9792 H         1 UNK         0.0600 
    239 H239       -4.1848  -20.4026  -59.6203 H         1 UNK         0.0600 
    240 H240       -2.0537  -19.8675  -56.3579 H         1 UNK         0.3000 
    241 H241       -0.8170  -18.1135  -55.9538 H         1 UNK         0.0600 
    242 H242       -0.7155  -17.5144  -59.7454 H         1 UNK         0.3800 
    243 H243       -1.4087  -18.8687  -58.8922 H         1 UNK         0.3800 
    244 H244       -3.3407  -16.3948  -55.9997 H         1 UNK         0.0800 
    245 H245       -1.7822  -15.8374  -55.4831 H         1 UNK         0.0800 
    246 H246       -1.6329  -15.3351  -53.1575 H         1 UNK         0.0800 
    247 H247       -0.5131  -16.6752  -53.2413 H         1 UNK         0.0800 
@<TRIPOS>BOND
     1    1    2 1    
     2    1  127 1    
     3    1  128 1    
     4    1  129 1    
     5    2    3 2    
     6    2    4 am   BACKBONE|DICT|INTERRES
     7    4    5 1    
     8    4  130 1    
     9    5    6 1    
    10    5   65 1    
    11    5  131 1    
    12    6    7 1    
    13    6  132 1    
    14    6  133 1    
    15    7    8 1    
    16    8    9 1    
    17    8  134 1    
    18    8  135 1    
    19    9   10 ar   
    20    9   14 ar   
    21   10   11 ar   
    22   10  136 1    
    23   11   12 ar   
    24   11  126 1    
    25   12   13 ar   
    26   12  137 1    
    27   13   14 ar   
    28   13   15 1    
    29   14  138 1    
    30   15   16 1    
    31   15  139 1    
    32   15  140 1    
    33   16   17 1    
    34   17   18 1    
    35   17  141 1    
    36   17  142 1    
    37   18   19 1    
    38   18   67 1    
    39   18  143 1    
    40   19   20 am   BACKBONE|DICT|INTERRES
    41   19  144 1    
    42   20   21 2    
    43   20   22 1    
    44   22   23 1    
    45   22   24 1    
    46   22  145 1    
    47   23  146 1    
    48   23  147 1    
    49   23  148 1    
    50   24   25 am   BACKBONE|DICT|INTERRES
    51   24  149 1    
    52   25   26 2    
    53   25   27 1    
    54   27   28 1    
    55   27   29 1    
    56   27  150 1    
    57   28  151 1    
    58   28  152 1    
    59   28  153 1    
    60   29   30 am   BACKBONE|DICT|INTERRES
    61   29  154 1    
    62   30   31 2    
    63   30   32 1    
    64   32   33 1    
    65   32   34 1    
    66   32  155 1    
    67   33  156 1    
    68   33  157 1    
    69   33  158 1    
    70   34   35 am   BACKBONE|DICT|INTERRES
    71   34  159 1    
    72   35   36 2    
    73   35   37 1    
    74   37   38 1    
    75   37   39 1    
    76   37  160 1    
    77   38  161 1    
    78   38  162 1    
    79   38  163 1    
    80   39   40 am   BACKBONE|DICT|INTERRES
    81   39  164 1    
    82   40   41 2    
    83   40   42 1    
    84   42   43 1    
    85   42   44 1    
    86   42  165 1    
    87   43  166 1    
    88   43  167 1    
    89   43  168 1    
    90   44   45 am   BACKBONE|DICT|INTERRES
    91   44  169 1    
    92   45   46 2    
    93   45   47 1    
    94   47   48 1    
    95   47   49 1    
    96   47  170 1    
    97   48  171 1    
    98   48  172 1    
    99   48  173 1    
   100   49   50 am   BACKBONE|DICT|INTERRES
   101   49  174 1    
   102   50   51 2    
   103   50   52 1    
   104   52   53 1    
   105   52   54 1    
   106   52  175 1    
   107   53  176 1    
   108   53  177 1    
   109   53  178 1    
   110   54   55 am   BACKBONE|DICT|INTERRES
   111   54  179 1    
   112   55   56 2    
   113   55   57 1    
   114   57   58 1    
   115   57   59 1    
   116   57  180 1    
   117   58  181 1    
   118   58  182 1    
   119   58  183 1    
   120   59   60 am   BACKBONE|DICT|INTERRES
   121   59  184 1    
   122   60   61 2    
   123   60   62 1    
   124   62   63 1    
   125   62   64 1    
   126   62  185 1    
   127   63  186 1    
   128   63  187 1    
   129   63  188 1    
   130   64   65 am   BACKBONE|DICT|INTERRES
   131   64  189 1    
   132   65   66 2    
   133   67   68 2    
   134   67   69 am   BACKBONE|DICT|INTERRES
   135   69   70 1    
   136   69  190 1    
   137   70   71 1    
   138   70   72 1    
   139   70  191 1    
   140   71  192 1    
   141   71  193 1    
   142   71  194 1    
   143   72   73 2    
   144   72   74 am   BACKBONE|DICT|INTERRES
   145   74   75 1    
   146   74  195 1    
   147   75   76 1    
   148   75   77 1    
   149   75  196 1    
   150   76  197 1    
   151   76  198 1    
   152   76  199 1    
   153   77   78 2    
   154   77   79 am   BACKBONE|DICT|INTERRES
   155   79   80 1    
   156   79  200 1    
   157   80   81 1    
   158   80   82 1    
   159   80  201 1    
   160   81  202 1    
   161   81  203 1    
   162   81  204 1    
   163   82   83 2    
   164   82   84 am   BACKBONE|DICT|INTERRES
   165   84   85 1    
   166   84  205 1    
   167   85   86 1    
   168   85   87 1    
   169   85  206 1    
   170   86  207 1    
   171   86  208 1    
   172   86  209 1    
   173   87   88 2    
   174   87   89 am   BACKBONE|DICT|INTERRES
   175   89   90 1    
   176   89  210 1    
   177   90   91 1    
   178   90   92 1    
   179   90  211 1    
   180   91  212 1    
   181   91  213 1    
   182   91  214 1    
   183   92   93 2    
   184   92   94 am   BACKBONE|DICT|INTERRES
   185   94   95 1    
   186   94  215 1    
   187   95   96 1    
   188   95   97 1    
   189   95  216 1    
   190   96  217 1    
   191   96  218 1    
   192   96  219 1    
   193   97   98 2    
   194   97   99 am   BACKBONE|DICT|INTERRES
   195   99  100 1    
   196   99  220 1    
   197  100  101 1    
   198  100  102 1    
   199  100  221 1    
   200  101  222 1    
   201  101  223 1    
   202  101  224 1    
   203  102  103 2    
   204  102  104 am   BACKBONE|DICT|INTERRES
   205  104  105 1    
   206  104  225 1    
   207  105  106 1    
   208  105  107 1    
   209  105  226 1    
   210  106  227 1    
   211  106  228 1    
   212  106  229 1    
   213  107  108 2    
   214  107  109 am   BACKBONE|DICT|INTERRES
   215  109  110 1    
   216  109  230 1    
   217  110  111 1    
   218  110  112 1    
   219  110  231 1    
   220  111  232 1    
   221  111  233 1    
   222  111  234 1    
   223  112  113 2    
   224  112  114 am   BACKBONE|DICT|INTERRES
   225  114  115 1    
   226  114  235 1    
   227  115  116 1    
   228  115  117 1    
   229  115  236 1    
   230  116  237 1    
   231  116  238 1    
   232  116  239 1    
   233  117  118 2    
   234  117  119 am   BACKBONE|DICT|INTERRES
   235  119  120 1    
   236  119  240 1    
   237  120  121 1    
   238  120  124 1    
   239  120  241 1    
   240  121  122 am   BACKBONE|DICT|INTERRES
   241  121  123 2    
   242  122  242 1    
   243  122  243 1    
   244  124  125 1    
   245  124  244 1    
   246  124  245 1    
   247  125  126 1    
   248  126  246 1    
   249  126  247 1    
@<TRIPOS>SUBSTRUCTURE
     1 UNK         1 GROUP             0       ****    0 ROOT    
