@<TRIPOS>MOLECULE
3R540
247   249    1
SMALL
USER_CHARGES


@<TRIPOS>ATOM
      1 CA         -3.6938  -10.5159  -47.6988 C.3       0 UNK        -0.1800 
      2 C          -2.5598  -11.3896  -47.1830 C.2       0 UNK         0.5000 
      3 O          -1.6857  -10.9004  -46.4673 O.2       0 UNK        -0.5000 
      4 N          -2.5785  -12.6852  -47.5270 N.am      1 UNK        -0.5000 
      5 CA         -1.5500  -13.6794  -47.1764 C.3       1 UNK         0.1400 
      6 C6         -1.7766  -15.0414  -47.8783 C.3       23 UNK        -0.0398 
      7 S7         -1.9682  -14.8912  -49.6878 S.3       23 UNK        -0.2404 
      8 C8         -2.5593  -16.5574  -50.1190 C.3       23 UNK        -0.0205 
      9 C9         -1.4252  -17.4589  -50.5822 C.ar      23 UNK        -0.0193 
     10 C10        -1.2251  -17.6788  -51.9463 C.ar      23 UNK        -0.1150 
     11 C11        -0.2141  -18.5336  -52.3868 C.ar      23 UNK        -0.0193 
     12 C12         0.6133  -19.1574  -51.4507 C.ar      23 UNK        -0.1150 
     13 C13         0.4312  -18.9529  -50.0792 C.ar      23 UNK        -0.0193 
     14 C14        -0.5924  -18.0920  -49.6548 C.ar      23 UNK        -0.1150 
     15 C15         1.3619  -19.7033  -49.1220 C.3       23 UNK        -0.0205 
     16 S16         1.1331  -19.4020  -47.3355 S.3       23 UNK        -0.2404 
     17 C17        -0.4396  -20.2613  -47.0009 C.3       23 UNK        -0.0398 
     18 CA         -0.2809  -21.7638  -46.6657 C.3       11 UNK         0.1400 
     19 N           0.5941  -22.0288  -45.5166 N.am      11 UNK        -0.5000 
     20 C           0.9515  -23.2545  -45.1005 C.2       10 UNK         0.5000 
     21 O           0.6393  -24.2914  -45.6847 O.2       10 UNK        -0.5000 
     22 CA          1.7243  -23.3499  -43.7734 C.3       10 UNK         0.1400 
     23 CB          3.2318  -23.1410  -43.9828 C.3       10 UNK        -0.1800 
     24 N           1.2119  -22.4052  -42.7810 N.am      10 UNK        -0.5000 
     25 C           0.0135  -22.5189  -42.1898 C.2       9 UNK         0.5000 
     26 O          -0.7463  -23.4704  -42.3692 O.2       9 UNK        -0.5000 
     27 CA         -0.4363  -21.3533  -41.2909 C.3       9 UNK         0.1400 
     28 CB          0.0796  -21.5357  -39.8562 C.3       9 UNK        -0.1800 
     29 N          -0.0073  -20.0553  -41.8132 N.am      9 UNK        -0.5000 
     30 C          -0.5105  -19.4931  -42.9222 C.2       8 UNK         0.5000 
     31 O          -1.4194  -19.9943  -43.5841 O.2       8 UNK        -0.5000 
     32 CA          0.1328  -18.1762  -43.3995 C.3       8 UNK         0.1400 
     33 CB         -0.5851  -16.9774  -42.7654 C.3       8 UNK        -0.1800 
     34 N           1.5688  -18.0808  -43.1258 N.am      8 UNK        -0.5000 
     35 C           2.4931  -18.9486  -43.5620 C.2       7 UNK         0.5000 
     36 O           2.2283  -19.9336  -44.2480 O.2       7 UNK        -0.5000 
     37 CA          3.9438  -18.7230  -43.1017 C.3       7 UNK         0.1400 
     38 CB          4.6614  -17.7301  -44.0250 C.3       7 UNK        -0.1800 
     39 N           4.0401  -18.2578  -41.7178 N.am      7 UNK        -0.5000 
     40 C           3.6322  -18.9374  -40.6389 C.2       6 UNK         0.5000 
     41 O           3.1343  -20.0617  -40.6992 O.2       6 UNK        -0.5000 
     42 CA          3.7594  -18.2439  -39.2662 C.3       6 UNK         0.1400 
     43 CB          5.1550  -18.4663  -38.6532 C.3       6 UNK        -0.1800 
     44 N           3.3810  -16.8222  -39.2701 N.am      6 UNK        -0.5000 
     45 C           3.9967  -15.7898  -39.8622 C.2       5 UNK         0.5000 
     46 O           5.0695  -15.8736  -40.4653 O.2       5 UNK        -0.5000 
     47 CA          3.2576  -14.4390  -39.8074 C.3       5 UNK         0.1400 
     48 CB          3.8948  -13.5158  -38.7584 C.3       5 UNK        -0.1800 
     49 N           3.2386  -13.7533  -41.1020 N.am      5 UNK        -0.5000 
     50 C           2.7875  -14.2702  -42.2529 C.2       4 UNK         0.5000 
     51 O           2.3046  -15.3998  -42.3537 O.2       4 UNK        -0.5000 
     52 CA          2.8463  -13.3431  -43.4801 C.3       4 UNK         0.1400 
     53 CB          3.0152  -14.1169  -44.7994 C.3       4 UNK        -0.1800 
     54 N           1.6233  -12.5488  -43.5463 N.am      4 UNK        -0.5000 
     55 C           1.4013  -11.4318  -42.8376 C.2       3 UNK         0.5000 
     56 O           2.2468  -10.9185  -42.1028 O.2       3 UNK        -0.5000 
     57 CA          0.0136  -10.7681  -42.9589 C.3       3 UNK         0.1400 
     58 CB          0.0809   -9.5540  -43.8974 C.3       3 UNK        -0.1800 
     59 N          -1.0292  -11.6791  -43.4327 N.am      3 UNK        -0.5000 
     60 C          -1.5287  -12.7012  -42.7213 C.2       2 UNK         0.5000 
     61 O          -1.2191  -12.9282  -41.5513 O.2       2 UNK        -0.5000 
     62 CA         -2.5275  -13.6412  -43.4292 C.3       2 UNK         0.1400 
     63 CB         -3.9644  -13.3292  -42.9842 C.3       2 UNK        -0.1800 
     64 N          -2.4701  -13.5996  -44.8928 N.am      2 UNK        -0.5000 
     65 C          -1.4034  -13.8904  -45.6532 C.2       1 UNK         0.5000 
     66 O          -0.3261  -14.2679  -45.1958 O.2       1 UNK        -0.5000 
     67 C          -1.6735  -22.3976  -46.4767 C.2       11 UNK         0.5000 
     68 O          -2.1739  -23.0410  -47.3988 O.2       11 UNK        -0.5000 
     69 N          -2.2553  -22.2315  -45.2796 N.am      12 UNK        -0.5000 
     70 CA         -3.5384  -22.8157  -44.8905 C.3       12 UNK         0.1400 
     71 CB         -3.9782  -22.2442  -43.5346 C.3       12 UNK        -0.1800 
     72 C          -3.5068  -24.3541  -44.8560 C.2       12 UNK         0.5000 
     73 O          -4.4376  -24.9845  -45.3571 O.2       12 UNK        -0.5000 
     74 N          -2.4254  -24.9302  -44.3101 N.am      13 UNK        -0.5000 
     75 CA         -2.1838  -26.3752  -44.2683 C.3       13 UNK         0.1400 
     76 CB         -0.9636  -26.6678  -43.3824 C.3       13 UNK        -0.1800 
     77 C          -2.0033  -26.9962  -45.6670 C.2       13 UNK         0.5000 
     78 O          -2.5071  -28.0920  -45.9157 O.2       13 UNK        -0.5000 
     79 N          -1.3181  -26.2720  -46.5621 N.am      14 UNK        -0.5000 
     80 CA         -1.1390  -26.6306  -47.9709 C.3       14 UNK         0.1400 
     81 CB          0.0291  -25.8107  -48.5425 C.3       14 UNK        -0.1800 
     82 C          -2.4047  -26.4168  -48.8272 C.2       14 UNK         0.5000 
     83 O          -2.4629  -26.9312  -49.9447 O.2       14 UNK        -0.5000 
     84 N          -3.3718  -25.6486  -48.3029 N.am      15 UNK        -0.5000 
     85 CA         -4.5925  -25.1656  -48.9563 C.3       15 UNK         0.1400 
     86 CB         -5.5442  -26.3332  -49.2895 C.3       15 UNK        -0.1800 
     87 C          -4.2887  -24.2556  -50.1664 C.2       15 UNK         0.5000 
     88 O          -4.9786  -24.3209  -51.1856 O.2       15 UNK        -0.5000 
     89 N          -3.2436  -23.4301  -50.0308 N.am      16 UNK        -0.5000 
     90 CA         -2.7971  -22.4713  -51.0354 C.3       16 UNK         0.1400 
     91 CB         -1.3424  -22.0887  -50.7332 C.3       16 UNK        -0.1800 
     92 C          -3.7036  -21.2273  -51.0577 C.2       16 UNK         0.5000 
     93 O          -4.2161  -20.8165  -50.0132 O.2       16 UNK        -0.5000 
     94 N          -3.8708  -20.6459  -52.2478 N.am      17 UNK        -0.5000 
     95 CA         -4.7149  -19.4917  -52.5251 C.3       17 UNK         0.1400 
     96 CB         -6.2011  -19.8915  -52.5044 C.3       17 UNK        -0.1800 
     97 C          -4.3202  -18.9505  -53.9019 C.2       17 UNK         0.5000 
     98 O          -4.1496  -19.7427  -54.8352 O.2       17 UNK        -0.5000 
     99 N          -4.1772  -17.6231  -54.0018 N.am      18 UNK        -0.5000 
    100 CA        -3.7321  -16.9085  -55.1982 C.3       18 UNK         0.1400 
    101 CB        -3.6214  -15.4098  -54.8806 C.3       18 UNK        -0.1800 
    102 C         -4.6692  -17.1544  -56.3921 C.2       18 UNK         0.5000 
    103 O         -5.8743  -16.9222  -56.2732 O.2       18 UNK        -0.5000 
    104 N         -4.1003  -17.6682  -57.4913 N.am      19 UNK        -0.5000 
    105 CA        -4.7360  -18.1191  -58.7380 C.3       19 UNK         0.1400 
    106 CB        -5.4691  -16.9652  -59.4479 C.3       19 UNK        -0.1800 
    107 C         -5.6543  -19.3506  -58.5850 C.2       19 UNK         0.5000 
    108 O         -5.5994  -20.2468  -59.4273 O.2       19 UNK        -0.5000 
    109 N         -6.4641  -19.3850  -57.5199 N.am      20 UNK        -0.5000 
    110 CA        -7.4358  -20.4318  -57.2041 C.3       20 UNK         0.1400 
    111 CB        -8.2734  -19.9864  -55.9962 C.3       20 UNK        -0.1800 
    112 C         -6.8058  -21.8133  -56.9494 C.2       20 UNK         0.5000 
    113 O         -7.3950  -22.8210  -57.3437 O.2       20 UNK        -0.5000 
    114 N         -5.6261  -21.8349  -56.3169 N.am      21 UNK        -0.5000 
    115 CA        -4.8346  -23.0432  -56.0818 C.3       21 UNK         0.1400 
    116 CB        -4.8412  -23.3815  -54.5843 C.3       21 UNK        -0.1800 
    117 C         -3.3991  -22.8769  -56.6032 C.2       21 UNK         0.5000 
    118 O         -2.8384  -23.8374  -57.1320 O.2       21 UNK        -0.5000 
    119 N         -2.8334  -21.6695  -56.4698 N.am      22 UNK        -0.5000 
    120 CA        -1.4777  -21.3270  -56.9349 C.3       22 UNK         0.1400 
    121 C         -1.3476  -21.1290  -58.4754 C.2       22 UNK         0.5000 
    122 N         -2.4265  -21.1286  -59.2490 N.am      22 UNK        -0.7600 
    123 O         -0.2396  -20.9767  -58.9822 O.2       22 UNK        -0.5000 
    124 C124       -0.9000  -20.1038  -56.1780 C.3       23 UNK        -0.0398 
    125 S125       -0.8641  -20.3296  -54.3698 S.3       23 UNK        -0.2404 
    126 C126       -0.0289  -18.7936  -53.8717 C.3       23 UNK        -0.0205 
    127 H127       -4.2431  -10.0828  -46.8629 H         1 UNK         0.0600 
    128 H128       -4.3958  -11.0823  -48.3112 H         1 UNK         0.0600 
    129 H129       -3.2939   -9.7023  -48.3037 H         1 UNK         0.0600 
    130 H130       -3.3158  -13.0240  -48.1290 H         1 UNK         0.3000 
    131 H131       -0.5956  -13.2810  -47.5276 H         1 UNK         0.0600 
    132 H132       -2.6656  -15.5291  -47.4740 H         1 UNK         0.0800 
    133 H133       -0.9374  -15.7106  -47.6802 H         1 UNK         0.0800 
    134 H134       -3.0783  -17.0154  -49.2759 H         1 UNK         0.0800 
    135 H135       -3.3051  -16.4608  -50.9090 H         1 UNK         0.0800 
    136 H136       -1.8612  -17.1892  -52.6679 H         1 UNK         0.1150 
    137 H137        1.3918  -19.8245  -51.7942 H         1 UNK         0.1150 
    138 H138       -0.7583  -17.9087  -48.6048 H         1 UNK         0.1150 
    139 H139        1.2745  -20.7745  -49.3086 H         1 UNK         0.0800 
    140 H140        2.3898  -19.4347  -49.3692 H         1 UNK         0.0800 
    141 H141       -1.0997  -20.1383  -47.8601 H         1 UNK         0.0800 
    142 H142       -0.9277  -19.7366  -46.1794 H         1 UNK         0.0800 
    143 H143        0.1759  -22.2506  -47.5298 H         1 UNK         0.0600 
    144 H144        0.9583  -21.2212  -45.0191 H         1 UNK         0.3000 
    145 H145        1.5835  -24.3583  -43.3788 H         1 UNK         0.0600 
    146 H146        3.7743  -23.2065  -43.0396 H         1 UNK         0.0600 
    147 H147        3.6374  -23.9065  -44.6453 H         1 UNK         0.0600 
    148 H148        3.4557  -22.1744  -44.4322 H         1 UNK         0.0600 
    149 H149        1.7558  -21.5670  -42.6264 H         1 UNK         0.3000 
    150 H150       -1.5279  -21.3606  -41.2577 H         1 UNK         0.0600 
    151 H151       -0.2974  -22.4639  -39.4249 H         1 UNK         0.0600 
    152 H152       -0.2484  -20.7208  -39.2107 H         1 UNK         0.0600 
    153 H153        1.1680  -21.5787  -39.8182 H         1 UNK         0.0600 
    154 H154        0.7723  -19.6096  -41.3505 H         1 UNK         0.3000 
    155 H155        0.0026  -18.1187  -44.4818 H         1 UNK         0.0600 
    156 H156       -0.4451  -16.9492  -41.6842 H         1 UNK         0.0600 
    157 H157       -0.2134  -16.0381  -43.1735 H         1 UNK         0.0600 
    158 H158       -1.6574  -17.0167  -42.9606 H         1 UNK         0.0600 
    159 H159        1.8796  -17.2498  -42.6284 H         1 UNK         0.3000 
    160 H160        4.4608  -19.6826  -43.1661 H         1 UNK         0.0600 
    161 H161        5.7176  -17.6454  -43.7694 H         1 UNK         0.0600 
    162 H162        4.2193  -16.7373  -43.9563 H         1 UNK         0.0600 
    163 H163        4.6006  -18.0481  -45.0667 H         1 UNK         0.0600 
    164 H164        4.4369  -17.3357  -41.5650 H         1 UNK         0.3000 
    165 H165        3.0386  -18.7328  -38.6087 H         1 UNK         0.0600 
    166 H166        5.2284  -18.0134  -37.6646 H         1 UNK         0.0600 
    167 H167        5.3611  -19.5312  -38.5391 H         1 UNK         0.0600 
    168 H168        5.9484  -18.0495  -39.2739 H         1 UNK         0.0600 
    169 H169        2.4940  -16.6324  -38.8242 H         1 UNK         0.3000 
    170 H170        2.2185  -14.6178  -39.5239 H         1 UNK         0.0600 
    171 H171        3.9016  -13.9875  -37.7748 H         1 UNK         0.0600 
    172 H172        4.9271  -13.2718  -39.0127 H         1 UNK         0.0600 
    173 H173        3.3413  -12.5811  -38.6659 H         1 UNK         0.0600 
    174 H174        3.5786  -12.8018  -41.1091 H         1 UNK         0.3000 
    175 H175        3.7063  -12.6777  -43.3778 H         1 UNK         0.0600 
    176 H176        2.9628  -13.4478  -45.6583 H         1 UNK         0.0600 
    177 H177        2.2512  -14.8843  -44.9293 H         1 UNK         0.0600 
    178 H178        3.9868  -14.6086  -44.8353 H         1 UNK         0.0600 
    179 H179        0.8653  -12.9495  -44.0880 H         1 UNK         0.3000 
    180 H180       -0.2690  -10.4148  -41.9651 H         1 UNK         0.0600 
    181 H181        0.3745   -9.8436  -44.9071 H         1 UNK         0.0600 
    182 H182        0.8083   -8.8237  -43.5408 H         1 UNK         0.0600 
    183 H183       -0.8830   -9.0487  -43.9607 H         1 UNK         0.0600 
    184 H184       -1.3333  -11.5545  -44.3916 H         1 UNK         0.3000 
    185 H185       -2.2891  -14.6585  -43.1181 H         1 UNK         0.0600 
    186 H186       -4.2719  -12.3292  -43.2927 H         1 UNK         0.0600 
    187 H187       -4.6724  -14.0441  -43.4038 H         1 UNK         0.0600 
    188 H188       -4.0584  -13.3813  -41.8986 H         1 UNK         0.0600 
    189 H189       -3.3036  -13.2775  -45.3625 H         1 UNK         0.3000 
    190 H190       -1.8023  -21.6365  -44.5922 H         1 UNK         0.3000 
    191 H191       -4.2765  -22.5170  -45.6379 H         1 UNK         0.0600 
    192 H192       -4.0674  -21.1584  -43.5750 H         1 UNK         0.0600 
    193 H193       -4.9512  -22.6402  -43.2414 H         1 UNK         0.0600 
    194 H194       -3.2712  -22.4918  -42.7429 H         1 UNK         0.0600 
    195 H195       -1.7274  -24.3405  -43.8672 H         1 UNK         0.3000 
    196 H196       -3.0559  -26.8444  -43.8084 H         1 UNK         0.0600 
    197 H197       -0.7809  -27.7406  -43.3108 H         1 UNK         0.0600 
    198 H198       -1.1136  -26.2951  -42.3690 H         1 UNK         0.0600 
    199 H199       -0.0590  -26.2062  -43.7783 H         1 UNK         0.0600 
    200 H200       -0.8700  -25.4131  -46.2553 H         1 UNK         0.3000 
    201 H201       -0.8762  -27.6887  -48.0294 H         1 UNK         0.0600 
    202 H202        0.9492  -25.9950  -47.9877 H         1 UNK         0.0600 
    203 H203       -0.1760  -24.7401  -48.5040 H         1 UNK         0.0600 
    204 H204        0.2201  -26.0710  -49.5843 H         1 UNK         0.0600 
    205 H205       -3.1995  -25.2612  -47.3845 H         1 UNK         0.3000 
    206 H206       -5.0944  -24.5329  -48.2229 H         1 UNK         0.0600 
    207 H207       -5.7354  -26.9477  -48.4097 H         1 UNK         0.0600 
    208 H208       -6.5073  -25.9620  -49.6413 H         1 UNK         0.0600 
    209 H209       -5.1396  -26.9787  -50.0693 H         1 UNK         0.0600 
    210 H210       -2.7839  -23.3823  -49.1245 H         1 UNK         0.3000 
    211 H211       -2.8294  -22.9548  -52.0141 H         1 UNK         0.0600 
    212 H212       -1.2567  -21.5487  -49.7908 H         1 UNK         0.0600 
    213 H213       -0.9434  -21.4493  -51.5192 H         1 UNK         0.0600 
    214 H214       -0.7027  -22.9695  -50.6758 H         1 UNK         0.0600 
    215 H215       -3.3701  -20.9921  -53.0562 H         1 UNK         0.3000 
    216 H216       -4.5291  -18.7265  -51.7686 H         1 UNK         0.0600 
    217 H217       -6.8372  -19.0497  -52.7806 H         1 UNK         0.0600 
    218 H218       -6.5117  -20.2186  -51.5122 H         1 UNK         0.0600 
    219 H219       -6.4052  -20.7053  -53.2015 H         1 UNK         0.0600 
    220 H220       -4.4014  -17.0476  -53.2044 H         1 UNK         0.3000 
    221 H221       -2.7346  -17.2756  -55.4467 H         1 UNK         0.0600 
    222 H222       -4.5831  -14.9891  -54.5835 H         1 UNK         0.0600 
    223 H223       -2.9113  -15.2272  -54.0737 H         1 UNK         0.0600 
    224 H224       -3.2739  -14.8515  -55.7508 H         1 UNK         0.0600 
    225 H225       -3.1041  -17.8276  -57.4611 H         1 UNK         0.3000 
    226 H226       -3.9146  -18.4270  -59.3871 H         1 UNK         0.0600 
    227 H227       -4.8040  -16.1173  -59.6117 H         1 UNK         0.0600 
    228 H228       -5.8371  -17.2828  -60.4242 H         1 UNK         0.0600 
    229 H229       -6.3287  -16.6125  -58.8775 H         1 UNK         0.0600 
    230 H230       -6.4335  -18.5827  -56.8962 H         1 UNK         0.3000 
    231 H231       -8.1029  -20.5305  -58.0628 H         1 UNK         0.0600 
    232 H232       -7.6483  -19.8009  -55.1231 H         1 UNK         0.0600 
    233 H233       -9.0062  -20.7469  -55.7232 H         1 UNK         0.0600 
    234 H234       -8.8218  -19.0698  -56.2143 H         1 UNK         0.0600 
    235 H235       -5.2229  -20.9586  -56.0035 H         1 UNK         0.3000 
    236 H236       -5.2647  -23.8912  -56.6186 H         1 UNK         0.0600 
    237 H237       -5.8543  -23.5581  -54.2230 H         1 UNK         0.0600 
    238 H238       -4.2608  -24.2823  -54.3807 H         1 UNK         0.0600 
    239 H239       -4.4137  -22.5756  -53.9930 H         1 UNK         0.0600 
    240 H240       -3.3244  -20.9375  -55.9645 H         1 UNK         0.3000 
    241 H241       -0.8330  -22.1760  -56.6994 H         1 UNK         0.0600 
    242 H242       -2.3181  -21.0109  -60.2440 H         1 UNK         0.3800 
    243 H243       -3.3453  -21.2773  -58.8624 H         1 UNK         0.3800 
    244 H244        0.1201  -19.8974  -56.5074 H         1 UNK         0.0800 
    245 H245       -1.4848  -19.2118  -56.4036 H         1 UNK         0.0800 
    246 H246       -0.4235  -17.9555  -54.4481 H         1 UNK         0.0800 
    247 H247        1.0331  -18.8623  -54.1120 H         1 UNK         0.0800 
@<TRIPOS>BOND
     1    1    2 1    
     2    1  127 1    
     3    1  128 1    
     4    1  129 1    
     5    2    3 2    
     6    2    4 am   BACKBONE|DICT|INTERRES
     7    4    5 1    
     8    4  130 1    
     9    5    6 1    
    10    5   65 1    
    11    5  131 1    
    12    6    7 1    
    13    6  132 1    
    14    6  133 1    
    15    7    8 1    
    16    8    9 1    
    17    8  134 1    
    18    8  135 1    
    19    9   10 ar   
    20    9   14 ar   
    21   10   11 ar   
    22   10  136 1    
    23   11   12 ar   
    24   11  126 1    
    25   12   13 ar   
    26   12  137 1    
    27   13   14 ar   
    28   13   15 1    
    29   14  138 1    
    30   15   16 1    
    31   15  139 1    
    32   15  140 1    
    33   16   17 1    
    34   17   18 1    
    35   17  141 1    
    36   17  142 1    
    37   18   19 1    
    38   18   67 1    
    39   18  143 1    
    40   19   20 am   BACKBONE|DICT|INTERRES
    41   19  144 1    
    42   20   21 2    
    43   20   22 1    
    44   22   23 1    
    45   22   24 1    
    46   22  145 1    
    47   23  146 1    
    48   23  147 1    
    49   23  148 1    
    50   24   25 am   BACKBONE|DICT|INTERRES
    51   24  149 1    
    52   25   26 2    
    53   25   27 1    
    54   27   28 1    
    55   27   29 1    
    56   27  150 1    
    57   28  151 1    
    58   28  152 1    
    59   28  153 1    
    60   29   30 am   BACKBONE|DICT|INTERRES
    61   29  154 1    
    62   30   31 2    
    63   30   32 1    
    64   32   33 1    
    65   32   34 1    
    66   32  155 1    
    67   33  156 1    
    68   33  157 1    
    69   33  158 1    
    70   34   35 am   BACKBONE|DICT|INTERRES
    71   34  159 1    
    72   35   36 2    
    73   35   37 1    
    74   37   38 1    
    75   37   39 1    
    76   37  160 1    
    77   38  161 1    
    78   38  162 1    
    79   38  163 1    
    80   39   40 am   BACKBONE|DICT|INTERRES
    81   39  164 1    
    82   40   41 2    
    83   40   42 1    
    84   42   43 1    
    85   42   44 1    
    86   42  165 1    
    87   43  166 1    
    88   43  167 1    
    89   43  168 1    
    90   44   45 am   BACKBONE|DICT|INTERRES
    91   44  169 1    
    92   45   46 2    
    93   45   47 1    
    94   47   48 1    
    95   47   49 1    
    96   47  170 1    
    97   48  171 1    
    98   48  172 1    
    99   48  173 1    
   100   49   50 am   BACKBONE|DICT|INTERRES
   101   49  174 1    
   102   50   51 2    
   103   50   52 1    
   104   52   53 1    
   105   52   54 1    
   106   52  175 1    
   107   53  176 1    
   108   53  177 1    
   109   53  178 1    
   110   54   55 am   BACKBONE|DICT|INTERRES
   111   54  179 1    
   112   55   56 2    
   113   55   57 1    
   114   57   58 1    
   115   57   59 1    
   116   57  180 1    
   117   58  181 1    
   118   58  182 1    
   119   58  183 1    
   120   59   60 am   BACKBONE|DICT|INTERRES
   121   59  184 1    
   122   60   61 2    
   123   60   62 1    
   124   62   63 1    
   125   62   64 1    
   126   62  185 1    
   127   63  186 1    
   128   63  187 1    
   129   63  188 1    
   130   64   65 am   BACKBONE|DICT|INTERRES
   131   64  189 1    
   132   65   66 2    
   133   67   68 2    
   134   67   69 am   BACKBONE|DICT|INTERRES
   135   69   70 1    
   136   69  190 1    
   137   70   71 1    
   138   70   72 1    
   139   70  191 1    
   140   71  192 1    
   141   71  193 1    
   142   71  194 1    
   143   72   73 2    
   144   72   74 am   BACKBONE|DICT|INTERRES
   145   74   75 1    
   146   74  195 1    
   147   75   76 1    
   148   75   77 1    
   149   75  196 1    
   150   76  197 1    
   151   76  198 1    
   152   76  199 1    
   153   77   78 2    
   154   77   79 am   BACKBONE|DICT|INTERRES
   155   79   80 1    
   156   79  200 1    
   157   80   81 1    
   158   80   82 1    
   159   80  201 1    
   160   81  202 1    
   161   81  203 1    
   162   81  204 1    
   163   82   83 2    
   164   82   84 am   BACKBONE|DICT|INTERRES
   165   84   85 1    
   166   84  205 1    
   167   85   86 1    
   168   85   87 1    
   169   85  206 1    
   170   86  207 1    
   171   86  208 1    
   172   86  209 1    
   173   87   88 2    
   174   87   89 am   BACKBONE|DICT|INTERRES
   175   89   90 1    
   176   89  210 1    
   177   90   91 1    
   178   90   92 1    
   179   90  211 1    
   180   91  212 1    
   181   91  213 1    
   182   91  214 1    
   183   92   93 2    
   184   92   94 am   BACKBONE|DICT|INTERRES
   185   94   95 1    
   186   94  215 1    
   187   95   96 1    
   188   95   97 1    
   189   95  216 1    
   190   96  217 1    
   191   96  218 1    
   192   96  219 1    
   193   97   98 2    
   194   97   99 am   BACKBONE|DICT|INTERRES
   195   99  100 1    
   196   99  220 1    
   197  100  101 1    
   198  100  102 1    
   199  100  221 1    
   200  101  222 1    
   201  101  223 1    
   202  101  224 1    
   203  102  103 2    
   204  102  104 am   BACKBONE|DICT|INTERRES
   205  104  105 1    
   206  104  225 1    
   207  105  106 1    
   208  105  107 1    
   209  105  226 1    
   210  106  227 1    
   211  106  228 1    
   212  106  229 1    
   213  107  108 2    
   214  107  109 am   BACKBONE|DICT|INTERRES
   215  109  110 1    
   216  109  230 1    
   217  110  111 1    
   218  110  112 1    
   219  110  231 1    
   220  111  232 1    
   221  111  233 1    
   222  111  234 1    
   223  112  113 2    
   224  112  114 am   BACKBONE|DICT|INTERRES
   225  114  115 1    
   226  114  235 1    
   227  115  116 1    
   228  115  117 1    
   229  115  236 1    
   230  116  237 1    
   231  116  238 1    
   232  116  239 1    
   233  117  118 2    
   234  117  119 am   BACKBONE|DICT|INTERRES
   235  119  120 1    
   236  119  240 1    
   237  120  121 1    
   238  120  124 1    
   239  120  241 1    
   240  121  122 am   BACKBONE|DICT|INTERRES
   241  121  123 2    
   242  122  242 1    
   243  122  243 1    
   244  124  125 1    
   245  124  244 1    
   246  124  245 1    
   247  125  126 1    
   248  126  246 1    
   249  126  247 1    
@<TRIPOS>SUBSTRUCTURE
     1 UNK         1 GROUP             0       ****    0 ROOT    
