@<TRIPOS>MOLECULE
3R540
247   249    1
SMALL
USER_CHARGES


@<TRIPOS>ATOM
      1 CA          2.0919  -12.6356  -50.5142 C.3       0 UNK        -0.1800 
      2 C           1.2220  -13.8648  -50.7651 C.2       0 UNK         0.5000 
      3 O           0.8395  -14.1030  -51.9082 O.2       0 UNK        -0.5000 
      4 N           0.8874  -14.6657  -49.7476 N.am      1 UNK        -0.5000 
      5 CA          1.1897  -14.4806  -48.3268 C.3       1 UNK         0.1400 
      6 C6          2.1306  -15.5815  -47.7799 C.3       23 UNK        -0.0398 
      7 S7          3.8449  -15.4120  -48.3747 S.3       23 UNK        -0.2404 
      8 C8          4.3544  -17.1599  -48.5594 C.3       23 UNK        -0.0205 
      9 C9          3.5964  -17.9537  -49.6248 C.ar      23 UNK        -0.0193 
     10 C10         3.0701  -17.3379  -50.7647 C.ar      23 UNK        -0.1150 
     11 C11         2.3925  -18.0771  -51.7352 C.ar      23 UNK        -0.0193 
     12 C12         2.2597  -19.4616  -51.5666 C.ar      23 UNK        -0.1150 
     13 C13         2.7858  -20.1031  -50.4391 C.ar      23 UNK        -0.0193 
     14 C14         3.4533  -19.3373  -49.4767 C.ar      23 UNK        -0.1150 
     15 C15         2.7232  -21.6240  -50.2794 C.3       23 UNK        -0.0205 
     16 S16         1.1420  -22.4064  -50.7651 S.3       23 UNK        -0.2404 
     17 C17         0.0627  -22.1157  -49.3231 C.3       23 UNK        -0.0398 
     18 CA         -0.0352  -23.3342  -48.3736 C.3       11 UNK         0.1400 
     19 N           1.2412  -23.6310  -47.7146 N.am      11 UNK        -0.5000 
     20 C           1.5257  -24.7913  -47.1078 C.2       10 UNK         0.5000 
     21 O           0.7442  -25.7406  -47.0558 O.2       10 UNK        -0.5000 
     22 CA          2.8930  -24.8979  -46.4052 C.3       10 UNK         0.1400 
     23 CB          3.9699  -25.3576  -47.3989 C.3       10 UNK        -0.1800 
     24 N           3.3255  -23.6505  -45.7714 N.am      10 UNK        -0.5000 
     25 C           2.6869  -23.0352  -44.7666 C.2       9 UNK         0.5000 
     26 O           1.6590  -23.4740  -44.2536 O.2       9 UNK        -0.5000 
     27 CA          3.2629  -21.6912  -44.2675 C.3       9 UNK         0.1400 
     28 CB          4.7349  -21.4637  -44.6769 C.3       9 UNK        -0.1800 
     29 N           2.4570  -20.5309  -44.6717 N.am      9 UNK        -0.5000 
     30 C           2.0556  -20.2225  -45.9126 C.2       8 UNK         0.5000 
     31 O           2.2045  -20.9768  -46.8746 O.2       8 UNK        -0.5000 
     32 CA          1.3932  -18.8487  -46.1433 C.3       8 UNK         0.1400 
     33 CB          0.3464  -18.9037  -47.2614 C.3       8 UNK        -0.1800 
     34 N           0.7801  -18.2238  -44.9692 N.am      8 UNK        -0.5000 
     35 C           1.4392  -17.5200  -44.0390 C.2       7 UNK         0.5000 
     36 O           2.6674  -17.4839  -43.9705 O.2       7 UNK        -0.5000 
     37 CA          0.6085  -16.6886  -43.0392 C.3       7 UNK         0.1400 
     38 CB          0.7481  -15.1936  -43.3603 C.3       7 UNK        -0.1800 
     39 N          -0.8158  -17.0213  -43.0357 N.am      7 UNK        -0.5000 
     40 C          -1.3468  -18.0990  -42.4427 C.2       6 UNK         0.5000 
     41 O          -0.6838  -18.9103  -41.7966 O.2       6 UNK        -0.5000 
     42 CA         -2.8677  -18.3187  -42.5966 C.3       6 UNK         0.1400 
     43 CB         -3.5947  -17.9424  -41.2965 C.3       6 UNK        -0.1800 
     44 N          -3.4795  -17.5789  -43.7027 N.am      6 UNK        -0.5000 
     45 C          -3.1914  -17.7197  -45.0049 C.2       5 UNK         0.5000 
     46 O          -2.3737  -18.5303  -45.4363 O.2       5 UNK        -0.5000 
     47 CA         -3.9096  -16.7659  -45.9816 C.3       5 UNK         0.1400 
     48 CB         -5.0819  -17.4858  -46.6666 C.3       5 UNK        -0.1800 
     49 N          -4.3998  -15.5296  -45.3548 N.am      5 UNK        -0.5000 
     50 C          -3.6165  -14.5955  -44.7997 C.2       4 UNK         0.5000 
     51 O          -2.3852  -14.6799  -44.7441 O.2       4 UNK        -0.5000 
     52 CA         -4.3176  -13.3843  -44.1681 C.3       4 UNK         0.1400 
     53 CB         -4.8636  -13.7265  -42.7719 C.3       4 UNK        -0.1800 
     54 N          -3.3241  -12.3268  -44.0586 N.am      4 UNK        -0.5000 
     55 C          -3.5280  -11.0130  -44.1927 C.2       3 UNK         0.5000 
     56 O          -4.6414  -10.4921  -44.2668 O.2       3 UNK        -0.5000 
     57 CA         -2.2585  -10.1404  -44.3001 C.3       3 UNK         0.1400 
     58 CB         -1.8498   -9.6090  -42.9179 C.3       3 UNK        -0.1800 
     59 N          -1.1252  -10.8635  -44.8922 N.am      3 UNK        -0.5000 
     60 C          -1.0776  -11.2886  -46.1631 C.2       2 UNK         0.5000 
     61 O          -1.9379  -11.0184  -47.0022 O.2       2 UNK        -0.5000 
     62 CA          0.0782  -12.2187  -46.5634 C.3       2 UNK         0.1400 
     63 CB          1.2421  -12.2710  -45.5506 C.3       2 UNK        -0.1800 
     64 N          -0.5095  -13.5440  -46.7404 N.am      2 UNK        -0.5000 
     65 C          -0.1527  -14.5294  -47.5703 C.2       1 UNK         0.5000 
     66 O          -0.8737  -15.5134  -47.7179 O.2       1 UNK        -0.5000 
     67 C          -1.1574  -23.1358  -47.3316 C.2       11 UNK         0.5000 
     68 O          -2.2964  -23.5401  -47.5744 O.2       11 UNK        -0.5000 
     69 N          -0.8018  -22.5625  -46.1718 N.am      12 UNK        -0.5000 
     70 CA         -1.6877  -22.4005  -45.0206 C.3       12 UNK         0.1400 
     71 CB         -1.0707  -21.4149  -44.0208 C.3       12 UNK        -0.1800 
     72 C          -1.9891  -23.7439  -44.3375 C.2       12 UNK         0.5000 
     73 O          -3.1474  -24.0149  -44.0254 O.2       12 UNK        -0.5000 
     74 N          -0.9541  -24.5773  -44.1576 N.am      13 UNK        -0.5000 
     75 CA         -1.0445  -25.9282  -43.5961 C.3       13 UNK         0.1400 
     76 CB          0.3696  -26.4942  -43.3991 C.3       13 UNK        -0.1800 
     77 C          -1.8966  -26.8818  -44.4548 C.2       13 UNK         0.5000 
     78 O          -2.6232  -27.7108  -43.9062 O.2       13 UNK        -0.5000 
     79 N          -1.8262  -26.7152  -45.7825 N.am      14 UNK        -0.5000 
     80 CA         -2.6747  -27.3991  -46.7599 C.3       14 UNK         0.1400 
     81 CB         -2.0370  -27.2525  -48.1511 C.3       14 UNK        -0.1800 
     82 C          -4.1289  -26.8810  -46.7855 C.2       14 UNK         0.5000 
     83 O          -4.9810  -27.5334  -47.3897 O.2       14 UNK        -0.5000 
     84 N          -4.3802  -25.7183  -46.1609 N.am      15 UNK        -0.5000 
     85 CA         -5.6357  -24.9579  -46.1436 C.3       15 UNK         0.1400 
     86 CB         -6.7317  -25.7230  -45.3738 C.3       15 UNK        -0.1800 
     87 C          -6.0793  -24.5158  -47.5542 C.2       15 UNK         0.5000 
     88 O          -7.2764  -24.4477  -47.8402 O.2       15 UNK        -0.5000 
     89 N          -5.0970  -24.2371  -48.4182 N.am      16 UNK        -0.5000 
     90 CA         -5.2819  -23.9176  -49.8247 C.3       16 UNK         0.1400 
     91 CB         -4.2202  -24.6821  -50.6330 C.3       16 UNK        -0.1800 
     92 C          -5.1787  -22.3980  -50.0014 C.2       16 UNK         0.5000 
     93 O          -4.1051  -21.8865  -50.3186 O.2       16 UNK        -0.5000 
     94 N          -6.2960  -21.6943  -49.7762 N.am      17 UNK        -0.5000 
     95 CA         -6.3953  -20.2319  -49.8492 C.3       17 UNK         0.1400 
     96 CB         -7.8097  -19.7964  -49.4401 C.3       17 UNK        -0.1800 
     97 C          -6.0234  -19.6457  -51.2267 C.2       17 UNK         0.5000 
     98 O          -5.4070  -18.5824  -51.2896 O.2       17 UNK        -0.5000 
     99 N          -6.3655  -20.3685  -52.3027 N.am      18 UNK        -0.5000 
    100 CA        -6.0054  -20.0184  -53.6785 C.3       18 UNK         0.1400 
    101 CB        -6.8112  -20.8907  -54.6523 C.3       18 UNK        -0.1800 
    102 C         -4.4957  -20.1570  -53.9501 C.2       18 UNK         0.5000 
    103 O         -3.9330  -19.3414  -54.6831 O.2       18 UNK        -0.5000 
    104 N         -3.8650  -21.1677  -53.3335 N.am      19 UNK        -0.5000 
    105 CA        -2.4209  -21.3875  -53.3877 C.3       19 UNK         0.1400 
    106 CB        -2.0796  -22.8244  -52.9696 C.3       19 UNK        -0.1800 
    107 C         -1.6720  -20.3721  -52.5141 C.2       19 UNK         0.5000 
    108 O         -0.6546  -19.8517  -52.9555 O.2       19 UNK        -0.5000 
    109 N         -2.2173  -20.0570  -51.3305 N.am      20 UNK        -0.5000 
    110 CA        -1.7052  -19.0461  -50.4000 C.3       20 UNK         0.1400 
    111 CB        -2.5441  -19.0806  -49.1139 C.3       20 UNK        -0.1800 
    112 C         -1.6825  -17.6231  -50.9883 C.2       20 UNK         0.5000 
    113 O         -0.8034  -16.8370  -50.6410 O.2       20 UNK        -0.5000 
    114 N         -2.6300  -17.3342  -51.8888 N.am      21 UNK        -0.5000 
    115 CA        -2.6824  -16.1141  -52.6925 C.3       21 UNK         0.1400 
    116 CB        -4.1547  -15.8267  -53.0288 C.3       21 UNK        -0.1800 
    117 C         -1.8446  -16.2064  -53.9869 C.2       21 UNK         0.5000 
    118 O         -1.6769  -15.1887  -54.6604 O.2       21 UNK        -0.5000 
    119 N         -1.3564  -17.4089  -54.3262 N.am      22 UNK        -0.5000 
    120 CA        -0.6238  -17.7572  -55.5554 C.3       22 UNK         0.1400 
    121 C         -1.4457  -17.4864  -56.8522 C.2       22 UNK         0.5000 
    122 N         -2.7359  -17.8025  -56.8591 N.am      22 UNK        -0.7600 
    123 O         -0.9273  -17.0076  -57.8579 O.2       22 UNK        -0.5000 
    124 C124        0.8297  -17.1949  -55.5710 C.3       23 UNK        -0.0398 
    125 S125        1.9634  -18.1746  -54.5210 S.3       23 UNK        -0.2404 
    126 C126        1.7639  -17.3406  -52.9155 C.3       23 UNK        -0.0205 
    127 H127        1.5573  -11.9013  -49.9118 H         1 UNK         0.0600 
    128 H128        2.3625  -12.1599  -51.4572 H         1 UNK         0.0600 
    129 H129        3.0166  -12.9077  -50.0055 H         1 UNK         0.0600 
    130 H130        0.2783  -15.4600  -49.9428 H         1 UNK         0.3000 
    131 H131        1.6766  -13.5251  -48.1552 H         1 UNK         0.0600 
    132 H132        1.7462  -16.5608  -48.0636 H         1 UNK         0.0800 
    133 H133        2.1638  -15.5633  -46.6886 H         1 UNK         0.0800 
    134 H134        5.4145  -17.1806  -48.8144 H         1 UNK         0.0800 
    135 H135        4.2646  -17.6497  -47.5890 H         1 UNK         0.0800 
    136 H136        3.1750  -16.2713  -50.8979 H         1 UNK         0.1150 
    137 H137        1.7515  -20.0446  -52.3197 H         1 UNK         0.1150 
    138 H138        3.8795  -19.8255  -48.6115 H         1 UNK         0.1150 
    139 H139        3.5106  -22.0510  -50.9013 H         1 UNK         0.0800 
    140 H140        2.9619  -21.9141  -49.2564 H         1 UNK         0.0800 
    141 H141       -0.9266  -21.8744  -49.7137 H         1 UNK         0.0800 
    142 H142        0.4062  -21.2324  -48.7917 H         1 UNK         0.0800 
    143 H143       -0.3143  -24.2024  -48.9750 H         1 UNK         0.0600 
    144 H144        1.8972  -22.8612  -47.6384 H         1 UNK         0.3000 
    145 H145        2.8049  -25.6549  -45.6236 H         1 UNK         0.0600 
    146 H146        4.9251  -25.5198  -46.8992 H         1 UNK         0.0600 
    147 H147        3.6878  -26.2993  -47.8720 H         1 UNK         0.0600 
    148 H148        4.1247  -24.6251  -48.1923 H         1 UNK         0.0600 
    149 H149        4.1462  -23.2074  -46.1572 H         1 UNK         0.3000 
    150 H150        3.2252  -21.7320  -43.1781 H         1 UNK         0.0600 
    151 H151        5.3655  -22.2982  -44.3671 H         1 UNK         0.0600 
    152 H152        5.1341  -20.5685  -44.1999 H         1 UNK         0.0600 
    153 H153        4.8498  -21.3372  -45.7542 H         1 UNK         0.0600 
    154 H154        2.2777  -19.8486  -43.9484 H         1 UNK         0.3000 
    155 H155        2.1964  -18.1950  -46.4825 H         1 UNK         0.0600 
    156 H156       -0.4007  -19.6759  -47.0756 H         1 UNK         0.0600 
    157 H157        0.8155  -19.1006  -48.2246 H         1 UNK         0.0600 
    158 H158       -0.1753  -17.9541  -47.3568 H         1 UNK         0.0600 
    159 H159       -0.2332  -18.2259  -44.9476 H         1 UNK         0.3000 
    160 H160        1.0158  -16.8659  -42.0417 H         1 UNK         0.0600 
    161 H161        0.3659  -14.9684  -44.3562 H         1 UNK         0.0600 
    162 H162        1.7919  -14.8783  -43.3288 H         1 UNK         0.0600 
    163 H163        0.2007  -14.5804  -42.6443 H         1 UNK         0.0600 
    164 H164       -1.4246  -16.3998  -43.5541 H         1 UNK         0.3000 
    165 H165       -3.0302  -19.3809  -42.7830 H         1 UNK         0.0600 
    166 H166       -4.6585  -18.1727  -41.3572 H         1 UNK         0.0600 
    167 H167       -3.1925  -18.4973  -40.4477 H         1 UNK         0.0600 
    168 H168       -3.4923  -16.8797  -41.0724 H         1 UNK         0.0600 
    169 H169       -4.1649  -16.8839  -43.4487 H         1 UNK         0.3000 
    170 H170       -3.1849  -16.4890  -46.7495 H         1 UNK         0.0600 
    171 H171       -4.7534  -18.4180  -47.1277 H         1 UNK         0.0600 
    172 H172       -5.8722  -17.7338  -45.9572 H         1 UNK         0.0600 
    173 H173       -5.5161  -16.8712  -47.4555 H         1 UNK         0.0600 
    174 H174       -5.4006  -15.3927  -45.3578 H         1 UNK         0.3000 
    175 H175       -5.1312  -13.0670  -44.8238 H         1 UNK         0.0600 
    176 H176       -4.0729  -14.0731  -42.1048 H         1 UNK         0.0600 
    177 H177       -5.3326  -12.8576  -42.3097 H         1 UNK         0.0600 
    178 H178       -5.6185  -14.5117  -42.8256 H         1 UNK         0.0600 
    179 H179       -2.3734  -12.6724  -44.0395 H         1 UNK         0.3000 
    180 H180       -2.4941   -9.2879  -44.9407 H         1 UNK         0.0600 
    181 H181       -0.9929   -8.9391  -42.9902 H         1 UNK         0.0600 
    182 H182       -1.5878  -10.4189  -42.2358 H         1 UNK         0.0600 
    183 H183       -2.6641   -9.0453  -42.4606 H         1 UNK         0.0600 
    184 H184       -0.3743  -11.1174  -44.2665 H         1 UNK         0.3000 
    185 H185        0.4468  -11.8397  -47.5177 H         1 UNK         0.0600 
    186 H186        2.0372  -12.9367  -45.8846 H         1 UNK         0.0600 
    187 H187        1.6882  -11.2841  -45.4207 H         1 UNK         0.0600 
    188 H188        0.9186  -12.6192  -44.5702 H         1 UNK         0.0600 
    189 H189       -1.3634  -13.6929  -46.2151 H         1 UNK         0.3000 
    190 H190        0.1673  -22.3115  -46.0389 H         1 UNK         0.3000 
    191 H191       -2.6318  -21.9786  -45.3727 H         1 UNK         0.0600 
    192 H192       -1.7335  -21.2667  -43.1689 H         1 UNK         0.0600 
    193 H193       -0.9011  -20.4440  -44.4807 H         1 UNK         0.0600 
    194 H194       -0.1187  -21.7634  -43.6246 H         1 UNK         0.0600 
    195 H195       -0.0188  -24.2411  -44.3758 H         1 UNK         0.3000 
    196 H196       -1.5206  -25.8486  -42.6168 H         1 UNK         0.0600 
    197 H197        0.8989  -26.5901  -44.3472 H         1 UNK         0.0600 
    198 H198        0.9639  -25.8540  -42.7468 H         1 UNK         0.0600 
    199 H199        0.3341  -27.4833  -42.9409 H         1 UNK         0.0600 
    200 H200       -1.1420  -26.0660  -46.1543 H         1 UNK         0.3000 
    201 H201       -2.7080  -28.4609  -46.5075 H         1 UNK         0.0600 
    202 H202       -1.9700  -26.2069  -48.4538 H         1 UNK         0.0600 
    203 H203       -2.6208  -27.7761  -48.9091 H         1 UNK         0.0600 
    204 H204       -1.0308  -27.6716  -48.1703 H         1 UNK         0.0600 
    205 H205       -3.6142  -25.2736  -45.6704 H         1 UNK         0.3000 
    206 H206       -5.4279  -24.0394  -45.5935 H         1 UNK         0.0600 
    207 H207       -6.3841  -26.0153  -44.3829 H         1 UNK         0.0600 
    208 H208       -7.6178  -25.1025  -45.2358 H         1 UNK         0.0600 
    209 H209       -7.0438  -26.6252  -45.9003 H         1 UNK         0.0600 
    210 H210       -4.1387  -24.2149  -48.0814 H         1 UNK         0.3000 
    211 H211       -6.2645  -24.2416  -50.1742 H         1 UNK         0.0600 
    212 H212       -4.2946  -24.4498  -51.6956 H         1 UNK         0.0600 
    213 H213       -4.3507  -25.7593  -50.5265 H         1 UNK         0.0600 
    214 H214       -3.2087  -24.4402  -50.3038 H         1 UNK         0.0600 
    215 H215       -7.1281  -22.1905  -49.4883 H         1 UNK         0.3000 
    216 H216       -5.6962  -19.8231  -49.1184 H         1 UNK         0.0600 
    217 H217       -8.5672  -20.2057  -50.1096 H         1 UNK         0.0600 
    218 H218       -7.9046  -18.7097  -49.4608 H         1 UNK         0.0600 
    219 H219       -8.0449  -20.1217  -48.4266 H         1 UNK         0.0600 
    220 H220       -6.8781  -21.2270  -52.1653 H         1 UNK         0.3000 
    221 H221       -6.2783  -18.9746  -53.8488 H         1 UNK         0.0600 
    222 H222       -7.8831  -20.7441  -54.5184 H         1 UNK         0.0600 
    223 H223       -6.5971  -21.9516  -54.5168 H         1 UNK         0.0600 
    224 H224       -6.5766  -20.6379  -55.6872 H         1 UNK         0.0600 
    225 H225       -4.3877  -21.7528  -52.6989 H         1 UNK         0.3000 
    226 H226       -2.0931  -21.2532  -54.4211 H         1 UNK         0.0600 
    227 H227       -2.2625  -22.9896  -51.9090 H         1 UNK         0.0600 
    228 H228       -2.6578  -23.5544  -53.5357 H         1 UNK         0.0600 
    229 H229       -1.0243  -23.0345  -53.1476 H         1 UNK         0.0600 
    230 H230       -3.0291  -20.5872  -51.0208 H         1 UNK         0.3000 
    231 H231       -0.6751  -19.3110  -50.1558 H         1 UNK         0.0600 
    232 H232       -3.5923  -18.8756  -49.3211 H         1 UNK         0.0600 
    233 H233       -2.2103  -18.3243  -48.4040 H         1 UNK         0.0600 
    234 H234       -2.4807  -20.0498  -48.6187 H         1 UNK         0.0600 
    235 H235       -3.3594  -18.0167  -52.0534 H         1 UNK         0.3000 
    236 H236       -2.2934  -15.2782  -52.1071 H         1 UNK         0.0600 
    237 H237       -4.7520  -15.7190  -52.1231 H         1 UNK         0.0600 
    238 H238       -4.2552  -14.9013  -53.5971 H         1 UNK         0.0600 
    239 H239       -4.5929  -16.6288  -53.6244 H         1 UNK         0.0600 
    240 H240       -1.4897  -18.1824  -53.6865 H         1 UNK         0.3000 
    241 H241       -0.5395  -18.8444  -55.5426 H         1 UNK         0.0600 
    242 H242       -3.2845  -17.6379  -57.6877 H         1 UNK         0.3800 
    243 H243       -3.1645  -18.2435  -56.0486 H         1 UNK         0.3800 
    244 H244        0.8533  -16.1445  -55.2784 H         1 UNK         0.0800 
    245 H245        1.2522  -17.2333  -56.5758 H         1 UNK         0.0800 
    246 H246        0.7058  -17.2235  -52.7014 H         1 UNK         0.0800 
    247 H247        2.1711  -16.3323  -53.0017 H         1 UNK         0.0800 
@<TRIPOS>BOND
     1    1    2 1    
     2    1  127 1    
     3    1  128 1    
     4    1  129 1    
     5    2    3 2    
     6    2    4 am   BACKBONE|DICT|INTERRES
     7    4    5 1    
     8    4  130 1    
     9    5    6 1    
    10    5   65 1    
    11    5  131 1    
    12    6    7 1    
    13    6  132 1    
    14    6  133 1    
    15    7    8 1    
    16    8    9 1    
    17    8  134 1    
    18    8  135 1    
    19    9   10 ar   
    20    9   14 ar   
    21   10   11 ar   
    22   10  136 1    
    23   11   12 ar   
    24   11  126 1    
    25   12   13 ar   
    26   12  137 1    
    27   13   14 ar   
    28   13   15 1    
    29   14  138 1    
    30   15   16 1    
    31   15  139 1    
    32   15  140 1    
    33   16   17 1    
    34   17   18 1    
    35   17  141 1    
    36   17  142 1    
    37   18   19 1    
    38   18   67 1    
    39   18  143 1    
    40   19   20 am   BACKBONE|DICT|INTERRES
    41   19  144 1    
    42   20   21 2    
    43   20   22 1    
    44   22   23 1    
    45   22   24 1    
    46   22  145 1    
    47   23  146 1    
    48   23  147 1    
    49   23  148 1    
    50   24   25 am   BACKBONE|DICT|INTERRES
    51   24  149 1    
    52   25   26 2    
    53   25   27 1    
    54   27   28 1    
    55   27   29 1    
    56   27  150 1    
    57   28  151 1    
    58   28  152 1    
    59   28  153 1    
    60   29   30 am   BACKBONE|DICT|INTERRES
    61   29  154 1    
    62   30   31 2    
    63   30   32 1    
    64   32   33 1    
    65   32   34 1    
    66   32  155 1    
    67   33  156 1    
    68   33  157 1    
    69   33  158 1    
    70   34   35 am   BACKBONE|DICT|INTERRES
    71   34  159 1    
    72   35   36 2    
    73   35   37 1    
    74   37   38 1    
    75   37   39 1    
    76   37  160 1    
    77   38  161 1    
    78   38  162 1    
    79   38  163 1    
    80   39   40 am   BACKBONE|DICT|INTERRES
    81   39  164 1    
    82   40   41 2    
    83   40   42 1    
    84   42   43 1    
    85   42   44 1    
    86   42  165 1    
    87   43  166 1    
    88   43  167 1    
    89   43  168 1    
    90   44   45 am   BACKBONE|DICT|INTERRES
    91   44  169 1    
    92   45   46 2    
    93   45   47 1    
    94   47   48 1    
    95   47   49 1    
    96   47  170 1    
    97   48  171 1    
    98   48  172 1    
    99   48  173 1    
   100   49   50 am   BACKBONE|DICT|INTERRES
   101   49  174 1    
   102   50   51 2    
   103   50   52 1    
   104   52   53 1    
   105   52   54 1    
   106   52  175 1    
   107   53  176 1    
   108   53  177 1    
   109   53  178 1    
   110   54   55 am   BACKBONE|DICT|INTERRES
   111   54  179 1    
   112   55   56 2    
   113   55   57 1    
   114   57   58 1    
   115   57   59 1    
   116   57  180 1    
   117   58  181 1    
   118   58  182 1    
   119   58  183 1    
   120   59   60 am   BACKBONE|DICT|INTERRES
   121   59  184 1    
   122   60   61 2    
   123   60   62 1    
   124   62   63 1    
   125   62   64 1    
   126   62  185 1    
   127   63  186 1    
   128   63  187 1    
   129   63  188 1    
   130   64   65 am   BACKBONE|DICT|INTERRES
   131   64  189 1    
   132   65   66 2    
   133   67   68 2    
   134   67   69 am   BACKBONE|DICT|INTERRES
   135   69   70 1    
   136   69  190 1    
   137   70   71 1    
   138   70   72 1    
   139   70  191 1    
   140   71  192 1    
   141   71  193 1    
   142   71  194 1    
   143   72   73 2    
   144   72   74 am   BACKBONE|DICT|INTERRES
   145   74   75 1    
   146   74  195 1    
   147   75   76 1    
   148   75   77 1    
   149   75  196 1    
   150   76  197 1    
   151   76  198 1    
   152   76  199 1    
   153   77   78 2    
   154   77   79 am   BACKBONE|DICT|INTERRES
   155   79   80 1    
   156   79  200 1    
   157   80   81 1    
   158   80   82 1    
   159   80  201 1    
   160   81  202 1    
   161   81  203 1    
   162   81  204 1    
   163   82   83 2    
   164   82   84 am   BACKBONE|DICT|INTERRES
   165   84   85 1    
   166   84  205 1    
   167   85   86 1    
   168   85   87 1    
   169   85  206 1    
   170   86  207 1    
   171   86  208 1    
   172   86  209 1    
   173   87   88 2    
   174   87   89 am   BACKBONE|DICT|INTERRES
   175   89   90 1    
   176   89  210 1    
   177   90   91 1    
   178   90   92 1    
   179   90  211 1    
   180   91  212 1    
   181   91  213 1    
   182   91  214 1    
   183   92   93 2    
   184   92   94 am   BACKBONE|DICT|INTERRES
   185   94   95 1    
   186   94  215 1    
   187   95   96 1    
   188   95   97 1    
   189   95  216 1    
   190   96  217 1    
   191   96  218 1    
   192   96  219 1    
   193   97   98 2    
   194   97   99 am   BACKBONE|DICT|INTERRES
   195   99  100 1    
   196   99  220 1    
   197  100  101 1    
   198  100  102 1    
   199  100  221 1    
   200  101  222 1    
   201  101  223 1    
   202  101  224 1    
   203  102  103 2    
   204  102  104 am   BACKBONE|DICT|INTERRES
   205  104  105 1    
   206  104  225 1    
   207  105  106 1    
   208  105  107 1    
   209  105  226 1    
   210  106  227 1    
   211  106  228 1    
   212  106  229 1    
   213  107  108 2    
   214  107  109 am   BACKBONE|DICT|INTERRES
   215  109  110 1    
   216  109  230 1    
   217  110  111 1    
   218  110  112 1    
   219  110  231 1    
   220  111  232 1    
   221  111  233 1    
   222  111  234 1    
   223  112  113 2    
   224  112  114 am   BACKBONE|DICT|INTERRES
   225  114  115 1    
   226  114  235 1    
   227  115  116 1    
   228  115  117 1    
   229  115  236 1    
   230  116  237 1    
   231  116  238 1    
   232  116  239 1    
   233  117  118 2    
   234  117  119 am   BACKBONE|DICT|INTERRES
   235  119  120 1    
   236  119  240 1    
   237  120  121 1    
   238  120  124 1    
   239  120  241 1    
   240  121  122 am   BACKBONE|DICT|INTERRES
   241  121  123 2    
   242  122  242 1    
   243  122  243 1    
   244  124  125 1    
   245  124  244 1    
   246  124  245 1    
   247  125  126 1    
   248  126  246 1    
   249  126  247 1    
@<TRIPOS>SUBSTRUCTURE
     1 UNK         1 GROUP             0       ****    0 ROOT    
