@<TRIPOS>MOLECULE
3R540
247   249    1
SMALL
USER_CHARGES


@<TRIPOS>ATOM
      1 CA         -5.0453  -14.6488  -46.9598 C.3       0 UNK        -0.1800 
      2 C          -4.2949  -14.0364  -48.1351 C.2       0 UNK         0.5000 
      3 O          -4.7426  -13.0328  -48.6891 O.2       0 UNK        -0.5000 
      4 N          -3.1724  -14.6527  -48.5277 N.am      1 UNK        -0.5000 
      5 CA         -2.3324  -14.2392  -49.6548 C.3       1 UNK         0.1400 
      6 C6         -1.4868  -15.4303  -50.1766 C.3       23 UNK        -0.0398 
      7 S7         -0.4629  -15.0531  -51.6410 S.3       23 UNK        -0.2404 
      8 C8          1.2238  -15.2391  -50.9769 C.3       23 UNK        -0.0205 
      9 C9          1.6644  -16.6955  -50.9331 C.ar      23 UNK        -0.0193 
     10 C10         2.2478  -17.2776  -52.0599 C.ar      23 UNK        -0.1150 
     11 C11         2.6627  -18.6108  -52.0372 C.ar      23 UNK        -0.0193 
     12 C12         2.4992  -19.3613  -50.8694 C.ar      23 UNK        -0.1150 
     13 C13         1.9284  -18.7915  -49.7218 C.ar      23 UNK        -0.0193 
     14 C14         1.5157  -17.4555  -49.7689 C.ar      23 UNK        -0.1150 
     15 C15         1.7355  -19.5574  -48.4089 C.3       23 UNK        -0.0205 
     16 S16         2.5555  -21.1846  -48.2901 S.3       23 UNK        -0.2404 
     17 C17         1.4453  -22.2724  -49.2591 C.3       23 UNK        -0.0398 
     18 CA          0.5922  -23.2413  -48.3986 C.3       11 UNK         0.1400 
     19 N           1.3790  -23.8959  -47.3497 N.am      11 UNK        -0.5000 
     20 C           0.9636  -24.9093  -46.5790 C.2       10 UNK         0.5000 
     21 O          -0.1325  -25.4559  -46.6985 O.2       10 UNK        -0.5000 
     22 CA          1.9184  -25.3490  -45.4498 C.3       10 UNK         0.1400 
     23 CB          2.8848  -26.4284  -45.9592 C.3       10 UNK        -0.1800 
     24 N           2.6916  -24.2558  -44.8451 N.am      10 UNK        -0.5000 
     25 C           2.1775  -23.1405  -44.3073 C.2       9 UNK         0.5000 
     26 O           0.9710  -22.8831  -44.3074 O.2       9 UNK        -0.5000 
     27 CA          3.1859  -22.1393  -43.7104 C.3       9 UNK         0.1400 
     28 CB          4.1197  -21.5726  -44.7928 C.3       9 UNK        -0.1800 
     29 N           2.5104  -21.0138  -43.0702 N.am      9 UNK        -0.5000 
     30 C           1.9869  -21.0075  -41.8382 C.2       8 UNK         0.5000 
     31 O           2.0627  -21.9605  -41.0601 O.2       8 UNK        -0.5000 
     32 CA          1.2544  -19.7120  -41.4186 C.3       8 UNK         0.1400 
     33 CB          1.2454  -19.4867  -39.8925 C.3       8 UNK        -0.1800 
     34 N           1.7294  -18.5164  -42.1313 N.am      8 UNK        -0.5000 
     35 C           2.9559  -17.9688  -42.0835 C.2       7 UNK         0.5000 
     36 O           3.8528  -18.3766  -41.3445 O.2       7 UNK        -0.5000 
     37 CA          3.2622  -16.8012  -43.0473 C.3       7 UNK         0.1400 
     38 CB          4.4848  -17.1306  -43.9221 C.3       7 UNK        -0.1800 
     39 N           2.1438  -16.4863  -43.9374 N.am      7 UNK        -0.5000 
     40 C           1.2096  -15.5546  -43.7134 C.2       6 UNK         0.5000 
     41 O           1.2033  -14.8116  -42.7313 O.2       6 UNK        -0.5000 
     42 CA          0.0769  -15.4373  -44.7584 C.3       6 UNK         0.1400 
     43 CB          0.3007  -16.2714  -46.0406 C.3       6 UNK        -0.1800 
     44 N          -1.2422  -15.7401  -44.1968 N.am      6 UNK        -0.5000 
     45 C          -1.5979  -16.8079  -43.4655 C.2       5 UNK         0.5000 
     46 O          -0.8212  -17.7185  -43.1775 O.2       5 UNK        -0.5000 
     47 CA         -3.0727  -16.8973  -43.0091 C.3       5 UNK         0.1400 
     48 CB         -3.2271  -17.5994  -41.6436 C.3       5 UNK        -0.1800 
     49 N          -3.7877  -15.6133  -43.0400 N.am      5 UNK        -0.5000 
     50 C          -3.5542  -14.5290  -42.2858 C.2       4 UNK         0.5000 
     51 O          -2.7373  -14.4802  -41.3648 O.2       4 UNK        -0.5000 
     52 CA         -4.3201  -13.2518  -42.6907 C.3       4 UNK         0.1400 
     53 CB         -5.0184  -12.6073  -41.4822 C.3       4 UNK        -0.1800 
     54 N          -3.4219  -12.2721  -43.3087 N.am      4 UNK        -0.5000 
     55 C          -2.7001  -12.4938  -44.4145 C.2       3 UNK         0.5000 
     56 O          -2.7931  -13.5248  -45.0897 O.2       3 UNK        -0.5000 
     57 CA         -1.6755  -11.4211  -44.8173 C.3       3 UNK         0.1400 
     58 CB         -0.6169  -11.2339  -43.7094 C.3       3 UNK        -0.1800 
     59 N          -1.0502  -11.8895  -46.0485 N.am      3 UNK        -0.5000 
     60 C          -0.1554  -11.2682  -46.8202 C.2       2 UNK         0.5000 
     61 O           0.2381  -10.1168  -46.6320 O.2       2 UNK        -0.5000 
     62 CA          0.4115  -12.0884  -47.9944 C.3       2 UNK         0.1400 
     63 CB          1.7659  -12.7021  -47.6024 C.3       2 UNK        -0.1800 
     64 N          -0.4890  -13.1641  -48.4268 N.am      2 UNK        -0.5000 
     65 C          -1.5045  -12.9877  -49.2847 C.2       1 UNK         0.5000 
     66 O          -1.7994  -11.8955  -49.7728 O.2       1 UNK        -0.5000 
     67 C          -0.6786  -22.5513  -47.8575 C.2       11 UNK         0.5000 
     68 O          -1.7195  -22.5875  -48.5165 O.2       11 UNK        -0.5000 
     69 N          -0.5749  -21.9511  -46.6647 N.am      12 UNK        -0.5000 
     70 CA         -1.6897  -21.3250  -45.9616 C.3       12 UNK         0.1400 
     71 CB         -1.1569  -20.2673  -44.9891 C.3       12 UNK        -0.1800 
     72 C          -2.5410  -22.3678  -45.2224 C.2       12 UNK         0.5000 
     73 O          -3.7677  -22.2722  -45.2468 O.2       12 UNK        -0.5000 
     74 N          -1.8784  -23.3590  -44.6072 N.am      13 UNK        -0.5000 
     75 CA         -2.5034  -24.4584  -43.8661 C.3       13 UNK         0.1400 
     76 CB         -1.4159  -25.3184  -43.2079 C.3       13 UNK        -0.1800 
     77 C          -3.4326  -25.3308  -44.7315 C.2       13 UNK         0.5000 
     78 O          -4.4549  -25.8051  -44.2344 O.2       13 UNK        -0.5000 
     79 N          -3.1033  -25.4758  -46.0225 N.am      14 UNK        -0.5000 
     80 CA         -3.9142  -26.1216  -47.0582 C.3       14 UNK         0.1400 
     81 CB         -2.9934  -26.4840  -48.2371 C.3       14 UNK        -0.1800 
     82 C          -5.1210  -25.2578  -47.4985 C.2       14 UNK         0.5000 
     83 O          -5.3125  -25.0267  -48.6942 O.2       14 UNK        -0.5000 
     84 N          -5.8956  -24.7637  -46.5198 N.am      15 UNK        -0.5000 
     85 CA         -7.1010  -23.9289  -46.6403 C.3       15 UNK         0.1400 
     86 CB         -8.2674  -24.7768  -47.1879 C.3       15 UNK        -0.1800 
     87 C          -6.8968  -22.6275  -47.4505 C.2       15 UNK         0.5000 
     88 O          -7.8497  -22.1146  -48.0391 O.2       15 UNK        -0.5000 
     89 N          -5.6451  -22.1488  -47.5029 N.am      16 UNK        -0.5000 
     90 CA         -5.1170  -21.0740  -48.3488 C.3       16 UNK         0.1400 
     91 CB         -5.6835  -19.7071  -47.9168 C.3       16 UNK        -0.1800 
     92 C          -5.2589  -21.3154  -49.8689 C.2       16 UNK         0.5000 
     93 O          -5.0128  -20.3928  -50.6454 O.2       16 UNK        -0.5000 
     94 N          -5.6141  -22.5379  -50.2905 N.am      17 UNK        -0.5000 
     95 CA         -5.8159  -22.8973  -51.6939 C.3       17 UNK         0.1400 
     96 CB         -6.5701  -24.2323  -51.7821 C.3       17 UNK        -0.1800 
     97 C          -4.4848  -22.9648  -52.4555 C.2       17 UNK         0.5000 
     98 O          -4.3907  -22.4583  -53.5728 O.2       17 UNK        -0.5000 
     99 N          -3.4638  -23.5413  -51.8087 N.am      18 UNK        -0.5000 
    100 CA        -2.0960  -23.5969  -52.3206 C.3       18 UNK         0.1400 
    101 CB        -1.3021  -24.6385  -51.5223 C.3       18 UNK        -0.1800 
    102 C         -1.4018  -22.2210  -52.3123 C.2       18 UNK         0.5000 
    103 O         -0.5516  -21.9764  -53.1655 O.2       18 UNK        -0.5000 
    104 N         -1.7963  -21.3399  -51.3812 N.am      19 UNK        -0.5000 
    105 CA        -1.3761  -19.9391  -51.3402 C.3       19 UNK         0.1400 
    106 CB        -1.7372  -19.3271  -49.9767 C.3       19 UNK        -0.1800 
    107 C         -2.0019  -19.1328  -52.4919 C.2       19 UNK         0.5000 
    108 O         -1.2897  -18.4146  -53.1899 O.2       19 UNK        -0.5000 
    109 N         -3.3168  -19.2981  -52.7011 N.am      20 UNK        -0.5000 
    110 CA        -4.0740  -18.6738  -53.7890 C.3       20 UNK         0.1400 
    111 CB        -5.5701  -18.9698  -53.6085 C.3       20 UNK        -0.1800 
    112 C         -3.5972  -19.1091  -55.1876 C.2       20 UNK         0.5000 
    113 O         -3.5652  -18.2838  -56.1021 O.2       20 UNK        -0.5000 
    114 N         -3.1837  -20.3784  -55.3176 N.am      21 UNK        -0.5000 
    115 CA        -2.6076  -20.9648  -56.5314 C.3       21 UNK         0.1400 
    116 CB        -2.3933  -22.4707  -56.3164 C.3       21 UNK        -0.1800 
    117 C         -1.3009  -20.2943  -57.0073 C.2       21 UNK         0.5000 
    118 O         -0.9671  -20.4119  -58.1874 O.2       21 UNK        -0.5000 
    119 N         -0.6023  -19.5860  -56.1096 N.am      22 UNK        -0.5000 
    120 CA         0.5481  -18.7297  -56.4392 C.3       22 UNK         0.1400 
    121 C          0.1652  -17.4008  -57.1594 C.2       22 UNK         0.5000 
    122 N         -1.1034  -17.0131  -57.2403 N.am      22 UNK        -0.7600 
    123 O          1.0424  -16.7080  -57.6681 O.2       22 UNK        -0.5000 
    124 C124        1.4301  -18.4361  -55.1997 C.3       23 UNK        -0.0398 
    125 S125        2.0858  -19.9434  -54.4069 S.3       23 UNK        -0.2404 
    126 C126        3.3127  -19.2346  -53.2642 C.3       23 UNK        -0.0205 
    127 H127       -4.4594  -15.4239  -46.4656 H         1 UNK         0.0600 
    128 H128       -5.9807  -15.0913  -47.3014 H         1 UNK         0.0600 
    129 H129       -5.2801  -13.8810  -46.2227 H         1 UNK         0.0600 
    130 H130       -2.8669  -15.4695  -48.0200 H         1 UNK         0.3000 
    131 H131       -2.9967  -13.9462  -50.4713 H         1 UNK         0.0600 
    132 H132       -0.8652  -15.8381  -49.3810 H         1 UNK         0.0800 
    133 H133       -2.1596  -16.2379  -50.4673 H         1 UNK         0.0800 
    134 H134        1.2904  -14.7896  -49.9867 H         1 UNK         0.0800 
    135 H135        1.9092  -14.6719  -51.6084 H         1 UNK         0.0800 
    136 H136        2.3770  -16.6899  -52.9576 H         1 UNK         0.1150 
    137 H137        2.8297  -20.3887  -50.8696 H         1 UNK         0.1150 
    138 H138        1.0815  -17.0048  -48.8889 H         1 UNK         0.1150 
    139 H139        2.1279  -18.9430  -47.5972 H         1 UNK         0.0800 
    140 H140        0.6719  -19.6754  -48.2072 H         1 UNK         0.0800 
    141 H141        2.0818  -22.8611  -49.9207 H         1 UNK         0.0800 
    142 H142        0.8184  -21.6762  -49.9246 H         1 UNK         0.0800 
    143 H143        0.2520  -24.0398  -49.0568 H         1 UNK         0.0600 
    144 H144        2.2889  -23.4961  -47.1706 H         1 UNK         0.3000 
    145 H145        1.3121  -25.7897  -44.6583 H         1 UNK         0.0600 
    146 H146        3.4953  -26.8268  -45.1486 H         1 UNK         0.0600 
    147 H147        2.3397  -27.2670  -46.3948 H         1 UNK         0.0600 
    148 H148        3.5557  -26.0389  -46.7259 H         1 UNK         0.0600 
    149 H149        3.6921  -24.3887  -44.8142 H         1 UNK         0.3000 
    150 H150        3.7871  -22.6677  -42.9677 H         1 UNK         0.0600 
    151 H151        4.6630  -22.3614  -45.3139 H         1 UNK         0.0600 
    152 H152        4.8646  -20.9072  -44.3554 H         1 UNK         0.0600 
    153 H153        3.5675  -21.0025  -45.5395 H         1 UNK         0.0600 
    154 H154        2.3632  -20.1972  -43.6423 H         1 UNK         0.3000 
    155 H155        0.2178  -19.8490  -41.7296 H         1 UNK         0.0600 
    156 H156        2.2541  -19.4192  -39.4846 H         1 UNK         0.0600 
    157 H157        0.7414  -20.3066  -39.3798 H         1 UNK         0.0600 
    158 H158        0.7152  -18.5700  -39.6340 H         1 UNK         0.0600 
    159 H159        1.0270  -18.0833  -42.7254 H         1 UNK         0.3000 
    160 H160        3.5065  -15.9305  -42.4354 H         1 UNK         0.0600 
    161 H161        4.3176  -18.0202  -44.5309 H         1 UNK         0.0600 
    162 H162        5.3697  -17.3133  -43.3110 H         1 UNK         0.0600 
    163 H163        4.7235  -16.3049  -44.5928 H         1 UNK         0.0600 
    164 H164        2.0589  -17.0576  -44.7650 H         1 UNK         0.3000 
    165 H165        0.0504  -14.3872  -45.0498 H         1 UNK         0.0600 
    166 H166        0.3245  -17.3413  -45.8344 H         1 UNK         0.0600 
    167 H167       -0.4995  -16.0986  -46.7596 H         1 UNK         0.0600 
    168 H168        1.2371  -16.0021  -46.5310 H         1 UNK         0.0600 
    169 H169       -1.9532  -15.0379  -44.3803 H         1 UNK         0.3000 
    170 H170       -3.5667  -17.5265  -43.7507 H         1 UNK         0.0600 
    171 H171       -2.8513  -18.6225  -41.6863 H         1 UNK         0.0600 
    172 H172       -2.6744  -17.0853  -40.8570 H         1 UNK         0.0600 
    173 H173       -4.2731  -17.6521  -41.3420 H         1 UNK         0.0600 
    174 H174       -4.4579  -15.5213  -43.7905 H         1 UNK         0.3000 
    175 H175       -5.0876  -13.5138  -43.4222 H         1 UNK         0.0600 
    176 H176       -4.3014  -12.2751  -40.7302 H         1 UNK         0.0600 
    177 H177       -5.6122  -11.7443  -41.7837 H         1 UNK         0.0600 
    178 H178       -5.6949  -13.3147  -41.0008 H         1 UNK         0.0600 
    179 H179       -3.2747  -11.4169  -42.7930 H         1 UNK         0.3000 
    180 H180       -2.1985  -10.4831  -45.0107 H         1 UNK         0.0600 
    181 H181       -0.0906  -12.1657  -43.4971 H         1 UNK         0.0600 
    182 H182       -1.0711  -10.8954  -42.7778 H         1 UNK         0.0600 
    183 H183        0.1273  -10.4868  -43.9834 H         1 UNK         0.0600 
    184 H184       -1.3790  -12.8083  -46.3192 H         1 UNK         0.3000 
    185 H185        0.5814  -11.4018  -48.8267 H         1 UNK         0.0600 
    186 H186        2.2289  -13.2138  -48.4456 H         1 UNK         0.0600 
    187 H187        2.4634  -11.9297  -47.2756 H         1 UNK         0.0600 
    188 H188        1.6670  -13.4179  -46.7860 H         1 UNK         0.0600 
    189 H189       -0.3082  -14.0824  -48.0547 H         1 UNK         0.3000 
    190 H190        0.2905  -22.0376  -46.1469 H         1 UNK         0.3000 
    191 H191       -2.3253  -20.8136  -46.6855 H         1 UNK         0.0600 
    192 H192       -1.9819  -19.7657  -44.4829 H         1 UNK         0.0600 
    193 H193       -0.5827  -19.5049  -45.5136 H         1 UNK         0.0600 
    194 H194       -0.5170  -20.6981  -44.2192 H         1 UNK         0.0600 
    195 H195       -0.8627  -23.3249  -44.6024 H         1 UNK         0.3000 
    196 H196       -3.1096  -24.0118  -43.0755 H         1 UNK         0.0600 
    197 H197       -0.8440  -25.8722  -43.9511 H         1 UNK         0.0600 
    198 H198       -0.7212  -24.7106  -42.6273 H         1 UNK         0.0600 
    199 H199       -1.8580  -26.0487  -42.5293 H         1 UNK         0.0600 
    200 H200       -2.2168  -25.0911  -46.3287 H         1 UNK         0.3000 
    201 H201       -4.3188  -27.0507  -46.6523 H         1 UNK         0.0600 
    202 H202       -2.5448  -25.5934  -48.6776 H         1 UNK         0.0600 
    203 H203       -3.5412  -27.0045  -49.0237 H         1 UNK         0.0600 
    204 H204       -2.1840  -27.1407  -47.9175 H         1 UNK         0.0600 
    205 H205       -5.6239  -25.0034  -45.5707 H         1 UNK         0.3000 
    206 H206       -7.3599  -23.6172  -45.6276 H         1 UNK         0.0600 
    207 H207       -8.4092  -25.6812  -46.5963 H         1 UNK         0.0600 
    208 H208       -9.2064  -24.2228  -47.1582 H         1 UNK         0.0600 
    209 H209       -8.0954  -25.0763  -48.2224 H         1 UNK         0.0600 
    210 H210       -4.9562  -22.6031  -46.9133 H         1 UNK         0.3000 
    211 H211       -4.0438  -21.0553  -48.1652 H         1 UNK         0.0600 
    212 H212       -5.1889  -18.8911  -48.4451 H         1 UNK         0.0600 
    213 H213       -5.5328  -19.5388  -46.8505 H         1 UNK         0.0600 
    214 H214       -6.7512  -19.6289  -48.1226 H         1 UNK         0.0600 
    215 H215       -5.7344  -23.2803  -49.6085 H         1 UNK         0.3000 
    216 H216       -6.4332  -22.1269  -52.1609 H         1 UNK         0.0600 
    217 H217       -5.9984  -25.0510  -51.3436 H         1 UNK         0.0600 
    218 H218       -6.7759  -24.4950  -52.8205 H         1 UNK         0.0600 
    219 H219       -7.5273  -24.1783  -51.2631 H         1 UNK         0.0600 
    220 H220       -3.6283  -23.9207  -50.8869 H         1 UNK         0.3000 
    221 H221       -2.1321  -23.9309  -53.3598 H         1 UNK         0.0600 
    222 H222       -1.6624  -25.6462  -51.7302 H         1 UNK         0.0600 
    223 H223       -1.3996  -24.4708  -50.4525 H         1 UNK         0.0600 
    224 H224       -0.2410  -24.6126  -51.7742 H         1 UNK         0.0600 
    225 H225       -2.4728  -21.6366  -50.6931 H         1 UNK         0.3000 
    226 H226       -0.2908  -19.9063  -51.4541 H         1 UNK         0.0600 
    227 H227       -2.8097  -19.1733  -49.8630 H         1 UNK         0.0600 
    228 H228       -1.4071  -19.9581  -49.1545 H         1 UNK         0.0600 
    229 H229       -1.2543  -18.3592  -49.8536 H         1 UNK         0.0600 
    230 H230       -3.8525  -19.8651  -52.0490 H         1 UNK         0.3000 
    231 H231       -3.9292  -17.5942  -53.7138 H         1 UNK         0.0600 
    232 H232       -5.7749  -20.0403  -53.6392 H         1 UNK         0.0600 
    233 H233       -6.1601  -18.4987  -54.3956 H         1 UNK         0.0600 
    234 H234       -5.9350  -18.5873  -52.6552 H         1 UNK         0.0600 
    235 H235       -3.3127  -21.0064  -54.5315 H         1 UNK         0.3000 
    236 H236       -3.3409  -20.8388  -57.3303 H         1 UNK         0.0600 
    237 H237       -3.3264  -22.9716  -56.0587 H         1 UNK         0.0600 
    238 H238       -2.0117  -22.9444  -57.2217 H         1 UNK         0.0600 
    239 H239       -1.6751  -22.6632  -55.5199 H         1 UNK         0.0600 
    240 H240       -0.9330  -19.5324  -55.1544 H         1 UNK         0.3000 
    241 H241        1.1689  -19.2797  -57.1491 H         1 UNK         0.0600 
    242 H242       -1.3248  -16.1531  -57.7161 H         1 UNK         0.3800 
    243 H243       -1.8520  -17.5596  -56.8272 H         1 UNK         0.3800 
    244 H244        0.8652  -17.8656  -54.4629 H         1 UNK         0.0800 
    245 H245        2.2800  -17.8124  -55.4821 H         1 UNK         0.0800 
    246 H246        3.9967  -20.0266  -52.9556 H         1 UNK         0.0800 
    247 H247        3.9247  -18.4971  -53.7855 H         1 UNK         0.0800 
@<TRIPOS>BOND
     1    1    2 1    
     2    1  127 1    
     3    1  128 1    
     4    1  129 1    
     5    2    3 2    
     6    2    4 am   BACKBONE|DICT|INTERRES
     7    4    5 1    
     8    4  130 1    
     9    5    6 1    
    10    5   65 1    
    11    5  131 1    
    12    6    7 1    
    13    6  132 1    
    14    6  133 1    
    15    7    8 1    
    16    8    9 1    
    17    8  134 1    
    18    8  135 1    
    19    9   10 ar   
    20    9   14 ar   
    21   10   11 ar   
    22   10  136 1    
    23   11   12 ar   
    24   11  126 1    
    25   12   13 ar   
    26   12  137 1    
    27   13   14 ar   
    28   13   15 1    
    29   14  138 1    
    30   15   16 1    
    31   15  139 1    
    32   15  140 1    
    33   16   17 1    
    34   17   18 1    
    35   17  141 1    
    36   17  142 1    
    37   18   19 1    
    38   18   67 1    
    39   18  143 1    
    40   19   20 am   BACKBONE|DICT|INTERRES
    41   19  144 1    
    42   20   21 2    
    43   20   22 1    
    44   22   23 1    
    45   22   24 1    
    46   22  145 1    
    47   23  146 1    
    48   23  147 1    
    49   23  148 1    
    50   24   25 am   BACKBONE|DICT|INTERRES
    51   24  149 1    
    52   25   26 2    
    53   25   27 1    
    54   27   28 1    
    55   27   29 1    
    56   27  150 1    
    57   28  151 1    
    58   28  152 1    
    59   28  153 1    
    60   29   30 am   BACKBONE|DICT|INTERRES
    61   29  154 1    
    62   30   31 2    
    63   30   32 1    
    64   32   33 1    
    65   32   34 1    
    66   32  155 1    
    67   33  156 1    
    68   33  157 1    
    69   33  158 1    
    70   34   35 am   BACKBONE|DICT|INTERRES
    71   34  159 1    
    72   35   36 2    
    73   35   37 1    
    74   37   38 1    
    75   37   39 1    
    76   37  160 1    
    77   38  161 1    
    78   38  162 1    
    79   38  163 1    
    80   39   40 am   BACKBONE|DICT|INTERRES
    81   39  164 1    
    82   40   41 2    
    83   40   42 1    
    84   42   43 1    
    85   42   44 1    
    86   42  165 1    
    87   43  166 1    
    88   43  167 1    
    89   43  168 1    
    90   44   45 am   BACKBONE|DICT|INTERRES
    91   44  169 1    
    92   45   46 2    
    93   45   47 1    
    94   47   48 1    
    95   47   49 1    
    96   47  170 1    
    97   48  171 1    
    98   48  172 1    
    99   48  173 1    
   100   49   50 am   BACKBONE|DICT|INTERRES
   101   49  174 1    
   102   50   51 2    
   103   50   52 1    
   104   52   53 1    
   105   52   54 1    
   106   52  175 1    
   107   53  176 1    
   108   53  177 1    
   109   53  178 1    
   110   54   55 am   BACKBONE|DICT|INTERRES
   111   54  179 1    
   112   55   56 2    
   113   55   57 1    
   114   57   58 1    
   115   57   59 1    
   116   57  180 1    
   117   58  181 1    
   118   58  182 1    
   119   58  183 1    
   120   59   60 am   BACKBONE|DICT|INTERRES
   121   59  184 1    
   122   60   61 2    
   123   60   62 1    
   124   62   63 1    
   125   62   64 1    
   126   62  185 1    
   127   63  186 1    
   128   63  187 1    
   129   63  188 1    
   130   64   65 am   BACKBONE|DICT|INTERRES
   131   64  189 1    
   132   65   66 2    
   133   67   68 2    
   134   67   69 am   BACKBONE|DICT|INTERRES
   135   69   70 1    
   136   69  190 1    
   137   70   71 1    
   138   70   72 1    
   139   70  191 1    
   140   71  192 1    
   141   71  193 1    
   142   71  194 1    
   143   72   73 2    
   144   72   74 am   BACKBONE|DICT|INTERRES
   145   74   75 1    
   146   74  195 1    
   147   75   76 1    
   148   75   77 1    
   149   75  196 1    
   150   76  197 1    
   151   76  198 1    
   152   76  199 1    
   153   77   78 2    
   154   77   79 am   BACKBONE|DICT|INTERRES
   155   79   80 1    
   156   79  200 1    
   157   80   81 1    
   158   80   82 1    
   159   80  201 1    
   160   81  202 1    
   161   81  203 1    
   162   81  204 1    
   163   82   83 2    
   164   82   84 am   BACKBONE|DICT|INTERRES
   165   84   85 1    
   166   84  205 1    
   167   85   86 1    
   168   85   87 1    
   169   85  206 1    
   170   86  207 1    
   171   86  208 1    
   172   86  209 1    
   173   87   88 2    
   174   87   89 am   BACKBONE|DICT|INTERRES
   175   89   90 1    
   176   89  210 1    
   177   90   91 1    
   178   90   92 1    
   179   90  211 1    
   180   91  212 1    
   181   91  213 1    
   182   91  214 1    
   183   92   93 2    
   184   92   94 am   BACKBONE|DICT|INTERRES
   185   94   95 1    
   186   94  215 1    
   187   95   96 1    
   188   95   97 1    
   189   95  216 1    
   190   96  217 1    
   191   96  218 1    
   192   96  219 1    
   193   97   98 2    
   194   97   99 am   BACKBONE|DICT|INTERRES
   195   99  100 1    
   196   99  220 1    
   197  100  101 1    
   198  100  102 1    
   199  100  221 1    
   200  101  222 1    
   201  101  223 1    
   202  101  224 1    
   203  102  103 2    
   204  102  104 am   BACKBONE|DICT|INTERRES
   205  104  105 1    
   206  104  225 1    
   207  105  106 1    
   208  105  107 1    
   209  105  226 1    
   210  106  227 1    
   211  106  228 1    
   212  106  229 1    
   213  107  108 2    
   214  107  109 am   BACKBONE|DICT|INTERRES
   215  109  110 1    
   216  109  230 1    
   217  110  111 1    
   218  110  112 1    
   219  110  231 1    
   220  111  232 1    
   221  111  233 1    
   222  111  234 1    
   223  112  113 2    
   224  112  114 am   BACKBONE|DICT|INTERRES
   225  114  115 1    
   226  114  235 1    
   227  115  116 1    
   228  115  117 1    
   229  115  236 1    
   230  116  237 1    
   231  116  238 1    
   232  116  239 1    
   233  117  118 2    
   234  117  119 am   BACKBONE|DICT|INTERRES
   235  119  120 1    
   236  119  240 1    
   237  120  121 1    
   238  120  124 1    
   239  120  241 1    
   240  121  122 am   BACKBONE|DICT|INTERRES
   241  121  123 2    
   242  122  242 1    
   243  122  243 1    
   244  124  125 1    
   245  124  244 1    
   246  124  245 1    
   247  125  126 1    
   248  126  246 1    
   249  126  247 1    
@<TRIPOS>SUBSTRUCTURE
     1 UNK         1 GROUP             0       ****    0 ROOT    
