@<TRIPOS>MOLECULE
3R540
247   249    1
SMALL
USER_CHARGES


@<TRIPOS>ATOM
      1 CA          1.7883   -8.6517  -44.1565 C.3       0 UNK        -0.1800 
      2 C           1.7663  -10.1665  -44.2864 C.2       0 UNK         0.5000 
      3 O           2.7858  -10.8146  -44.0472 O.2       0 UNK        -0.5000 
      4 N           0.6111  -10.7359  -44.6563 N.am      1 UNK        -0.5000 
      5 CA          0.3969  -12.1716  -44.8936 C.3       1 UNK         0.1400 
      6 C6         -1.0167  -12.4665  -45.4504 C.3       23 UNK        -0.0398 
      7 S7         -1.3091  -11.6408  -47.0527 S.3       23 UNK        -0.2404 
      8 C8         -2.9804  -12.2285  -47.4788 C.3       23 UNK        -0.0205 
      9 C9         -2.9861  -13.7026  -47.8553 C.ar      23 UNK        -0.0193 
     10 C10        -2.6192  -14.1035  -49.1450 C.ar      23 UNK        -0.1150 
     11 C11        -2.5872  -15.4601  -49.4839 C.ar      23 UNK        -0.0193 
     12 C12        -2.9241  -16.4123  -48.5190 C.ar      23 UNK        -0.1150 
     13 C13        -3.3111  -16.0243  -47.2354 C.ar      23 UNK        -0.0193 
     14 C14        -3.3463  -14.6669  -46.9093 C.ar      23 UNK        -0.1150 
     15 C15        -3.6275  -17.0804  -46.1921 C.3       23 UNK        -0.0205 
     16 S16        -5.1000  -18.0552  -46.6071 S.3       23 UNK        -0.2404 
     17 C17        -4.8840  -19.4494  -45.4509 C.3       23 UNK        -0.0398 
     18 CA         -4.3164  -20.7032  -46.1565 C.3       11 UNK         0.1400 
     19 N          -2.9579  -20.5169  -46.6820 N.am      11 UNK        -0.5000 
     20 C          -2.3961  -21.3200  -47.5965 C.2       10 UNK         0.5000 
     21 O          -2.9805  -22.2690  -48.1139 O.2       10 UNK        -0.5000 
     22 CA         -0.9246  -21.0653  -47.9575 C.3       10 UNK         0.1400 
     23 CB         -0.8123  -20.0474  -49.0996 C.3       10 UNK        -0.1800 
     24 N          -0.1439  -20.6240  -46.8019 N.am      10 UNK        -0.5000 
     25 C           0.1923  -21.4328  -45.7853 C.2       9 UNK         0.5000 
     26 O          -0.1064  -22.6262  -45.7495 O.2       9 UNK        -0.5000 
     27 CA          0.9538  -20.8169  -44.5939 C.3       9 UNK         0.1400 
     28 CB          2.4682  -20.9883  -44.7811 C.3       9 UNK        -0.1800 
     29 N           0.6619  -19.4020  -44.3684 N.am      9 UNK        -0.5000 
     30 C          -0.5440  -18.8955  -44.0747 C.2       8 UNK         0.5000 
     31 O          -1.5574  -19.5813  -43.9247 O.2       8 UNK        -0.5000 
     32 CA         -0.6450  -17.3570  -44.0071 C.3       8 UNK         0.1400 
     33 CB         -0.3839  -16.8653  -42.5769 C.3       8 UNK        -0.1800 
     34 N           0.2442  -16.6438  -44.9337 N.am      8 UNK        -0.5000 
     35 C           0.3896  -16.8808  -46.2484 C.2       7 UNK         0.5000 
     36 O          -0.2623  -17.7233  -46.8621 O.2       7 UNK        -0.5000 
     37 CA          1.4823  -16.1001  -47.0030 C.3       7 UNK         0.1400 
     38 CB          0.8676  -15.0050  -47.8850 C.3       7 UNK        -0.1800 
     39 N           2.4977  -15.5066  -46.1333 N.am      7 UNK        -0.5000 
     40 C           3.3854  -16.1840  -45.3920 C.2       6 UNK         0.5000 
     41 O           3.4193  -17.4152  -45.3383 O.2       6 UNK        -0.5000 
     42 CA          4.3777  -15.3445  -44.5540 C.3       6 UNK         0.1400 
     43 CB          5.7350  -16.0524  -44.3694 C.3       6 UNK        -0.1800 
     44 N           4.5816  -13.9710  -45.0367 N.am      6 UNK        -0.5000 
     45 C           5.0360  -13.5804  -46.2386 C.2       5 UNK         0.5000 
     46 O           5.3185  -14.3520  -47.1553 O.2       5 UNK        -0.5000 
     47 CA          5.2012  -12.0654  -46.4563 C.3       5 UNK         0.1400 
     48 CB          3.9583  -11.4735  -47.1376 C.3       5 UNK        -0.1800 
     49 N           5.4747  -11.3498  -45.2062 N.am      5 UNK        -0.5000 
     50 C           6.6928  -11.3023  -44.6474 C.2       4 UNK         0.5000 
     51 O           7.6885  -11.8286  -45.1473 O.2       4 UNK        -0.5000 
     52 CA          6.8519  -10.5380  -43.3196 C.3       4 UNK         0.1400 
     53 CB          7.2772   -9.0865  -43.5909 C.3       4 UNK        -0.1800 
     54 N           5.6776  -10.5270  -42.4462 N.am      4 UNK        -0.5000 
     55 C           5.0896  -11.5982  -41.8977 C.2       3 UNK         0.5000 
     56 O           5.3788  -12.7608  -42.1845 O.2       3 UNK        -0.5000 
     57 CA          4.0119  -11.3365  -40.8312 C.3       3 UNK         0.1400 
     58 CB          3.7898   -9.8469  -40.4941 C.3       3 UNK        -0.1800 
     59 N           2.7499  -11.9126  -41.2765 N.am      3 UNK        -0.5000 
     60 C           1.9634  -12.7169  -40.5506 C.2       2 UNK         0.5000 
     61 O           2.2501  -13.1017  -39.4158 O.2       2 UNK        -0.5000 
     62 CA          0.6171  -13.1490  -41.1691 C.3       2 UNK         0.1400 
     63 CB         -0.5550  -12.8226  -40.2281 C.3       2 UNK        -0.1800 
     64 N           0.3574  -12.5146  -42.4631 N.am      2 UNK        -0.5000 
     65 C           0.6773  -13.0407  -43.6506 C.2       1 UNK         0.5000 
     66 O           1.2007  -14.1453  -43.7903 O.2       1 UNK        -0.5000 
     67 C          -4.3844  -21.9341  -45.2332 C.2       11 UNK         0.5000 
     68 O          -5.3668  -22.6733  -45.2922 O.2       11 UNK        -0.5000 
     69 N          -3.3209  -22.1772  -44.4509 N.am      12 UNK        -0.5000 
     70 CA         -3.1583  -23.3836  -43.6322 C.3       12 UNK         0.1400 
     71 CB         -1.9292  -23.2275  -42.7247 C.3       12 UNK        -0.1800 
     72 C          -3.0624  -24.6713  -44.4784 C.2       12 UNK         0.5000 
     73 O          -3.5854  -25.7086  -44.0713 O.2       12 UNK        -0.5000 
     74 N          -2.4421  -24.5654  -45.6615 N.am      13 UNK        -0.5000 
     75 CA         -2.3658  -25.6152  -46.6805 C.3       13 UNK         0.1400 
     76 CB         -1.1215  -25.3627  -47.5483 C.3       13 UNK        -0.1800 
     77 C          -3.6278  -25.7110  -47.5664 C.2       13 UNK         0.5000 
     78 O          -3.6598  -26.5513  -48.4674 O.2       13 UNK        -0.5000 
     79 N          -4.6231  -24.8398  -47.3372 N.am      14 UNK        -0.5000 
     80 CA         -5.8778  -24.7015  -48.0855 C.3       14 UNK         0.1400 
     81 CB         -6.7866  -25.9252  -47.8467 C.3       14 UNK        -0.1800 
     82 C          -5.6530  -24.4030  -49.5830 C.2       14 UNK         0.5000 
     83 O          -6.3277  -24.9808  -50.4351 O.2       14 UNK        -0.5000 
     84 N          -4.6751  -23.5330  -49.8737 N.am      15 UNK        -0.5000 
     85 CA         -4.1801  -23.1562  -51.2015 C.3       15 UNK         0.1400 
     86 CB         -5.2468  -22.3582  -51.9745 C.3       15 UNK        -0.1800 
     87 C          -3.6328  -24.3707  -51.9802 C.2       15 UNK         0.5000 
     88 O          -3.9287  -24.5357  -53.1666 O.2       15 UNK        -0.5000 
     89 N          -2.8731  -25.2077  -51.2569 N.am      16 UNK        -0.5000 
     90 CA         -2.3253  -26.5075  -51.6516 C.3       16 UNK         0.1400 
     91 CB         -1.2694  -26.3574  -52.7636 C.3       16 UNK        -0.1800 
     92 C          -3.4399  -27.5143  -51.9941 C.2       16 UNK         0.5000 
     93 O          -3.4608  -28.0708  -53.0921 O.2       16 UNK        -0.5000 
     94 N          -4.3530  -27.7107  -51.0321 N.am      17 UNK        -0.5000 
     95 CA         -5.5166  -28.6018  -51.0843 C.3       17 UNK         0.1400 
     96 CB         -5.0686  -30.0784  -51.0874 C.3       17 UNK        -0.1800 
     97 C          -6.4825  -28.2565  -52.2378 C.2       17 UNK         0.5000 
     98 O          -6.8236  -29.1201  -53.0485 O.2       17 UNK        -0.5000 
     99 N          -6.8998  -26.9839  -52.2775 N.am      18 UNK        -0.5000 
    100 CA        -7.8418  -26.3778  -53.2225 C.3       18 UNK         0.1400 
    101 CB        -9.2401  -27.0201  -53.1032 C.3       18 UNK        -0.1800 
    102 C         -7.3258  -26.3155  -54.6755 C.2       18 UNK         0.5000 
    103 O         -8.1290  -26.2840  -55.6095 O.2       18 UNK        -0.5000 
    104 N         -5.9983  -26.2516  -54.8489 N.am      19 UNK        -0.5000 
    105 CA        -5.3417  -26.0484  -56.1441 C.3       19 UNK         0.1400 
    106 CB        -3.9208  -26.6270  -56.0808 C.3       19 UNK        -0.1800 
    107 C         -5.3004  -24.5650  -56.5672 C.2       19 UNK         0.5000 
    108 O         -4.9149  -24.2763  -57.7006 O.2       19 UNK        -0.5000 
    109 N         -5.6780  -23.6605  -55.6494 N.am      20 UNK        -0.5000 
    110 CA        -5.6479  -22.1972  -55.7593 C.3       20 UNK         0.1400 
    111 CB        -6.5297  -21.6948  -56.9220 C.3       20 UNK        -0.1800 
    112 C         -4.2129  -21.6286  -55.7959 C.2       20 UNK         0.5000 
    113 O         -3.9940  -20.5364  -56.3234 O.2       20 UNK        -0.5000 
    114 N         -3.2589  -22.3689  -55.2161 N.am      21 UNK        -0.5000 
    115 CA        -1.8572  -21.9859  -55.1037 C.3       21 UNK         0.1400 
    116 CB        -0.9967  -23.2591  -55.0913 C.3       21 UNK        -0.1800 
    117 C         -1.6573  -21.1399  -53.8360 C.2       21 UNK         0.5000 
    118 O         -1.3468  -21.6826  -52.7728 O.2       21 UNK        -0.5000 
    119 N         -1.8585  -19.8232  -53.9620 N.am      22 UNK        -0.5000 
    120 CA        -1.6566  -18.8231  -52.8983 C.3       22 UNK         0.1400 
    121 C         -0.1477  -18.5698  -52.5809 C.2       22 UNK         0.5000 
    122 N          0.6158  -19.6060  -52.2633 N.am      22 UNK        -0.7600 
    123 O          0.3474  -17.4479  -52.6395 O.2       22 UNK        -0.5000 
    124 C124       -2.4791  -17.5251  -53.1667 C.3       23 UNK        -0.0398 
    125 S125       -3.3868  -16.9467  -51.6923 S.3       23 UNK        -0.2404 
    126 C126       -2.1363  -15.9092  -50.8668 C.3       23 UNK        -0.0205 
    127 H127        0.8576   -8.2023  -44.5032 H         1 UNK         0.0600 
    128 H128        2.6060   -8.2384  -44.7469 H         1 UNK         0.0600 
    129 H129        1.9388   -8.3663  -43.1158 H         1 UNK         0.0600 
    130 H130       -0.1841  -10.1447  -44.8539 H         1 UNK         0.3000 
    131 H131        1.1190  -12.4812  -45.6501 H         1 UNK         0.0600 
    132 H132       -1.7856  -12.1470  -44.7446 H         1 UNK         0.0800 
    133 H133       -1.1512  -13.5405  -45.5875 H         1 UNK         0.0800 
    134 H134       -3.6590  -12.0392  -46.6456 H         1 UNK         0.0800 
    135 H135       -3.3571  -11.6398  -48.3165 H         1 UNK         0.0800 
    136 H136       -2.3375  -13.3581  -49.8755 H         1 UNK         0.1150 
    137 H137       -2.8845  -17.4631  -48.7660 H         1 UNK         0.1150 
    138 H138       -3.6295  -14.3608  -45.9120 H         1 UNK         0.1150 
    139 H139       -2.7734  -17.7510  -46.1217 H         1 UNK         0.0800 
    140 H140       -3.7668  -16.6300  -45.2085 H         1 UNK         0.0800 
    141 H141       -5.8664  -19.6655  -45.0268 H         1 UNK         0.0800 
    142 H142       -4.2528  -19.1520  -44.6115 H         1 UNK         0.0800 
    143 H143       -4.9689  -20.9183  -47.0063 H         1 UNK         0.0600 
    144 H144       -2.3998  -19.7845  -46.2683 H         1 UNK         0.3000 
    145 H145       -0.5014  -22.0071  -48.3130 H         1 UNK         0.0600 
    146 H146       -1.2730  -19.0946  -48.8443 H         1 UNK         0.0600 
    147 H147        0.2291  -19.8567  -49.3582 H         1 UNK         0.0600 
    148 H148       -1.3088  -20.4214  -49.9954 H         1 UNK         0.0600 
    149 H149        0.0699  -19.6321  -46.7517 H         1 UNK         0.3000 
    150 H150        0.6557  -21.3625  -43.6968 H         1 UNK         0.0600 
    151 H151        2.7284  -22.0369  -44.9313 H         1 UNK         0.0600 
    152 H152        3.0162  -20.6400  -43.9054 H         1 UNK         0.0600 
    153 H153        2.8310  -20.4310  -45.6461 H         1 UNK         0.0600 
    154 H154        1.4286  -18.7572  -44.5081 H         1 UNK         0.3000 
    155 H155       -1.6673  -17.0843  -44.2577 H         1 UNK         0.0600 
    156 H156       -0.9841  -17.4182  -41.8530 H         1 UNK         0.0600 
    157 H157       -0.6491  -15.8135  -42.4752 H         1 UNK         0.0600 
    158 H158        0.6636  -16.9797  -42.2954 H         1 UNK         0.0600 
    159 H159        0.8004  -15.8970  -44.5271 H         1 UNK         0.3000 
    160 H160        1.9878  -16.8132  -47.6574 H         1 UNK         0.0600 
    161 H161        1.6320  -14.4814  -48.4594 H         1 UNK         0.0600 
    162 H162        0.3250  -14.2681  -47.2962 H         1 UNK         0.0600 
    163 H163        0.1645  -15.4341  -48.5990 H         1 UNK         0.0600 
    164 H164        2.5253  -14.5002  -46.0846 H         1 UNK         0.3000 
    165 H165        3.9220  -15.2466  -43.5676 H         1 UNK         0.0600 
    166 H166        6.2289  -16.2337  -45.3244 H         1 UNK         0.0600 
    167 H167        6.4069  -15.4563  -43.7514 H         1 UNK         0.0600 
    168 H168        5.6127  -17.0168  -43.8750 H         1 UNK         0.0600 
    169 H169        4.4144  -13.2487  -44.3482 H         1 UNK         0.3000 
    170 H170        6.0436  -11.9205  -47.1363 H         1 UNK         0.0600 
    171 H171        3.0562  -11.6464  -46.5553 H         1 UNK         0.0600 
    172 H172        4.0618  -10.3987  -47.2868 H         1 UNK         0.0600 
    173 H173        3.8017  -11.9252  -48.1179 H         1 UNK         0.0600 
    174 H174        4.6822  -10.9351  -44.7253 H         1 UNK         0.3000 
    175 H175        7.6567  -11.0268  -42.7668 H         1 UNK         0.0600 
    176 H176        6.4933   -8.5287  -44.1050 H         1 UNK         0.0600 
    177 H177        7.5109   -8.5625  -42.6639 H         1 UNK         0.0600 
    178 H178        8.1703   -9.0495  -44.2162 H         1 UNK         0.0600 
    179 H179        5.3433   -9.6157  -42.1698 H         1 UNK         0.3000 
    180 H180        4.3618  -11.8366  -39.9261 H         1 UNK         0.0600 
    181 H181        3.4396   -9.2808  -41.3577 H         1 UNK         0.0600 
    182 H182        4.7060   -9.3803  -40.1300 H         1 UNK         0.0600 
    183 H183        3.0440   -9.7362  -39.7067 H         1 UNK         0.0600 
    184 H184        2.4890  -11.6926  -42.2313 H         1 UNK         0.3000 
    185 H185        0.6604  -14.2328  -41.2882 H         1 UNK         0.0600 
    186 H186       -1.5029  -13.1562  -40.6506 H         1 UNK         0.0600 
    187 H187       -0.4393  -13.3220  -39.2653 H         1 UNK         0.0600 
    188 H188       -0.6305  -11.7516  -40.0363 H         1 UNK         0.0600 
    189 H189       -0.0442  -11.5881  -42.4378 H         1 UNK         0.3000 
    190 H190       -2.5650  -21.5032  -44.4314 H         1 UNK         0.3000 
    191 H191       -4.0401  -23.4723  -42.9942 H         1 UNK         0.0600 
    192 H192       -1.0053  -23.1759  -43.2996 H         1 UNK         0.0600 
    193 H193       -1.9974  -22.3251  -42.1167 H         1 UNK         0.0600 
    194 H194       -1.8409  -24.0742  -42.0429 H         1 UNK         0.0600 
    195 H195       -1.9774  -23.6929  -45.8837 H         1 UNK         0.3000 
    196 H196       -2.2443  -26.5805  -46.1853 H         1 UNK         0.0600 
    197 H197       -0.2189  -25.3169  -46.9385 H         1 UNK         0.0600 
    198 H198       -1.1990  -24.4254  -48.0995 H         1 UNK         0.0600 
    199 H199       -0.9783  -26.1621  -48.2764 H         1 UNK         0.0600 
    200 H200       -4.5030  -24.1761  -46.5826 H         1 UNK         0.3000 
    201 H201       -6.3860  -23.8276  -47.6764 H         1 UNK         0.0600 
    202 H202       -7.7638  -25.7844  -48.3101 H         1 UNK         0.0600 
    203 H203       -6.9542  -26.0870  -46.7819 H         1 UNK         0.0600 
    204 H204       -6.3570  -26.8377  -48.2599 H         1 UNK         0.0600 
    205 H205       -4.1506  -23.1249  -49.0993 H         1 UNK         0.3000 
    206 H206       -3.3321  -22.4915  -51.0305 H         1 UNK         0.0600 
    207 H207       -5.6631  -21.5595  -51.3607 H         1 UNK         0.0600 
    208 H208       -6.0703  -22.9908  -52.3073 H         1 UNK         0.0600 
    209 H209       -4.8059  -21.8885  -52.8515 H         1 UNK         0.0600 
    210 H210       -2.7538  -24.9789  -50.2808 H         1 UNK         0.3000 
    211 H211       -1.8147  -26.9022  -50.7718 H         1 UNK         0.0600 
    212 H212       -0.5100  -25.6240  -52.4925 H         1 UNK         0.0600 
    213 H213       -0.7596  -27.3045  -52.9428 H         1 UNK         0.0600 
    214 H214       -1.7161  -26.0495  -53.7068 H         1 UNK         0.0600 
    215 H215       -4.2254  -27.2100  -50.1552 H         1 UNK         0.3000 
    216 H216       -6.0722  -28.4326  -50.1611 H         1 UNK         0.0600 
    217 H217       -5.9280  -30.7464  -51.0208 H         1 UNK         0.0600 
    218 H218       -4.5238  -30.3367  -51.9959 H         1 UNK         0.0600 
    219 H219       -4.4231  -30.2952  -50.2363 H         1 UNK         0.0600 
    220 H220       -6.5571  -26.3415  -51.5628 H         1 UNK         0.3000 
    221 H221       -7.9392  -25.3387  -52.9047 H         1 UNK         0.0600 
    222 H222       -9.2498  -28.0448  -53.4753 H         1 UNK         0.0600 
    223 H223       -9.5798  -27.0348  -52.0676 H         1 UNK         0.0600 
    224 H224       -9.9790  -26.4589  -53.6763 H         1 UNK         0.0600 
    225 H225       -5.3935  -26.2758  -54.0374 H         1 UNK         0.3000 
    226 H226       -5.8924  -26.5935  -56.9134 H         1 UNK         0.0600 
    227 H227       -3.9354  -27.6823  -55.8083 H         1 UNK         0.0600 
    228 H228       -3.4200  -26.5477  -57.0463 H         1 UNK         0.0600 
    229 H229       -3.3091  -26.0987  -55.3507 H         1 UNK         0.0600 
    230 H230       -5.9199  -24.0234  -54.7384 H         1 UNK         0.3000 
    231 H231       -6.0960  -21.8205  -54.8398 H         1 UNK         0.0600 
    232 H232       -6.6500  -20.6118  -56.8789 H         1 UNK         0.0600 
    233 H233       -7.5270  -22.1326  -56.8791 H         1 UNK         0.0600 
    234 H234       -6.0987  -21.9331  -57.8945 H         1 UNK         0.0600 
    235 H235       -3.5275  -23.2262  -54.7446 H         1 UNK         0.3000 
    236 H236       -1.5611  -21.3938  -55.9723 H         1 UNK         0.0600 
    237 H237       -1.1513  -23.8509  -55.9937 H         1 UNK         0.0600 
    238 H238        0.0642  -23.0123  -55.0377 H         1 UNK         0.0600 
    239 H239       -1.2302  -23.8883  -54.2343 H         1 UNK         0.0600 
    240 H240       -2.1288  -19.4648  -54.8675 H         1 UNK         0.3000 
    241 H241       -2.0607  -19.2726  -51.9896 H         1 UNK         0.0600 
    242 H242        1.5945  -19.4706  -52.0671 H         1 UNK         0.3800 
    243 H243        0.2090  -20.5344  -52.2427 H         1 UNK         0.3800 
    244 H244       -1.8752  -16.7155  -53.5790 H         1 UNK         0.0800 
    245 H245       -3.2422  -17.7151  -53.9229 H         1 UNK         0.0800 
    246 H246       -1.9043  -15.0526  -51.5013 H         1 UNK         0.0800 
    247 H247       -1.2114  -16.4731  -50.7483 H         1 UNK         0.0800 
@<TRIPOS>BOND
     1    1    2 1    
     2    1  127 1    
     3    1  128 1    
     4    1  129 1    
     5    2    3 2    
     6    2    4 am   BACKBONE|DICT|INTERRES
     7    4    5 1    
     8    4  130 1    
     9    5    6 1    
    10    5   65 1    
    11    5  131 1    
    12    6    7 1    
    13    6  132 1    
    14    6  133 1    
    15    7    8 1    
    16    8    9 1    
    17    8  134 1    
    18    8  135 1    
    19    9   10 ar   
    20    9   14 ar   
    21   10   11 ar   
    22   10  136 1    
    23   11   12 ar   
    24   11  126 1    
    25   12   13 ar   
    26   12  137 1    
    27   13   14 ar   
    28   13   15 1    
    29   14  138 1    
    30   15   16 1    
    31   15  139 1    
    32   15  140 1    
    33   16   17 1    
    34   17   18 1    
    35   17  141 1    
    36   17  142 1    
    37   18   19 1    
    38   18   67 1    
    39   18  143 1    
    40   19   20 am   BACKBONE|DICT|INTERRES
    41   19  144 1    
    42   20   21 2    
    43   20   22 1    
    44   22   23 1    
    45   22   24 1    
    46   22  145 1    
    47   23  146 1    
    48   23  147 1    
    49   23  148 1    
    50   24   25 am   BACKBONE|DICT|INTERRES
    51   24  149 1    
    52   25   26 2    
    53   25   27 1    
    54   27   28 1    
    55   27   29 1    
    56   27  150 1    
    57   28  151 1    
    58   28  152 1    
    59   28  153 1    
    60   29   30 am   BACKBONE|DICT|INTERRES
    61   29  154 1    
    62   30   31 2    
    63   30   32 1    
    64   32   33 1    
    65   32   34 1    
    66   32  155 1    
    67   33  156 1    
    68   33  157 1    
    69   33  158 1    
    70   34   35 am   BACKBONE|DICT|INTERRES
    71   34  159 1    
    72   35   36 2    
    73   35   37 1    
    74   37   38 1    
    75   37   39 1    
    76   37  160 1    
    77   38  161 1    
    78   38  162 1    
    79   38  163 1    
    80   39   40 am   BACKBONE|DICT|INTERRES
    81   39  164 1    
    82   40   41 2    
    83   40   42 1    
    84   42   43 1    
    85   42   44 1    
    86   42  165 1    
    87   43  166 1    
    88   43  167 1    
    89   43  168 1    
    90   44   45 am   BACKBONE|DICT|INTERRES
    91   44  169 1    
    92   45   46 2    
    93   45   47 1    
    94   47   48 1    
    95   47   49 1    
    96   47  170 1    
    97   48  171 1    
    98   48  172 1    
    99   48  173 1    
   100   49   50 am   BACKBONE|DICT|INTERRES
   101   49  174 1    
   102   50   51 2    
   103   50   52 1    
   104   52   53 1    
   105   52   54 1    
   106   52  175 1    
   107   53  176 1    
   108   53  177 1    
   109   53  178 1    
   110   54   55 am   BACKBONE|DICT|INTERRES
   111   54  179 1    
   112   55   56 2    
   113   55   57 1    
   114   57   58 1    
   115   57   59 1    
   116   57  180 1    
   117   58  181 1    
   118   58  182 1    
   119   58  183 1    
   120   59   60 am   BACKBONE|DICT|INTERRES
   121   59  184 1    
   122   60   61 2    
   123   60   62 1    
   124   62   63 1    
   125   62   64 1    
   126   62  185 1    
   127   63  186 1    
   128   63  187 1    
   129   63  188 1    
   130   64   65 am   BACKBONE|DICT|INTERRES
   131   64  189 1    
   132   65   66 2    
   133   67   68 2    
   134   67   69 am   BACKBONE|DICT|INTERRES
   135   69   70 1    
   136   69  190 1    
   137   70   71 1    
   138   70   72 1    
   139   70  191 1    
   140   71  192 1    
   141   71  193 1    
   142   71  194 1    
   143   72   73 2    
   144   72   74 am   BACKBONE|DICT|INTERRES
   145   74   75 1    
   146   74  195 1    
   147   75   76 1    
   148   75   77 1    
   149   75  196 1    
   150   76  197 1    
   151   76  198 1    
   152   76  199 1    
   153   77   78 2    
   154   77   79 am   BACKBONE|DICT|INTERRES
   155   79   80 1    
   156   79  200 1    
   157   80   81 1    
   158   80   82 1    
   159   80  201 1    
   160   81  202 1    
   161   81  203 1    
   162   81  204 1    
   163   82   83 2    
   164   82   84 am   BACKBONE|DICT|INTERRES
   165   84   85 1    
   166   84  205 1    
   167   85   86 1    
   168   85   87 1    
   169   85  206 1    
   170   86  207 1    
   171   86  208 1    
   172   86  209 1    
   173   87   88 2    
   174   87   89 am   BACKBONE|DICT|INTERRES
   175   89   90 1    
   176   89  210 1    
   177   90   91 1    
   178   90   92 1    
   179   90  211 1    
   180   91  212 1    
   181   91  213 1    
   182   91  214 1    
   183   92   93 2    
   184   92   94 am   BACKBONE|DICT|INTERRES
   185   94   95 1    
   186   94  215 1    
   187   95   96 1    
   188   95   97 1    
   189   95  216 1    
   190   96  217 1    
   191   96  218 1    
   192   96  219 1    
   193   97   98 2    
   194   97   99 am   BACKBONE|DICT|INTERRES
   195   99  100 1    
   196   99  220 1    
   197  100  101 1    
   198  100  102 1    
   199  100  221 1    
   200  101  222 1    
   201  101  223 1    
   202  101  224 1    
   203  102  103 2    
   204  102  104 am   BACKBONE|DICT|INTERRES
   205  104  105 1    
   206  104  225 1    
   207  105  106 1    
   208  105  107 1    
   209  105  226 1    
   210  106  227 1    
   211  106  228 1    
   212  106  229 1    
   213  107  108 2    
   214  107  109 am   BACKBONE|DICT|INTERRES
   215  109  110 1    
   216  109  230 1    
   217  110  111 1    
   218  110  112 1    
   219  110  231 1    
   220  111  232 1    
   221  111  233 1    
   222  111  234 1    
   223  112  113 2    
   224  112  114 am   BACKBONE|DICT|INTERRES
   225  114  115 1    
   226  114  235 1    
   227  115  116 1    
   228  115  117 1    
   229  115  236 1    
   230  116  237 1    
   231  116  238 1    
   232  116  239 1    
   233  117  118 2    
   234  117  119 am   BACKBONE|DICT|INTERRES
   235  119  120 1    
   236  119  240 1    
   237  120  121 1    
   238  120  124 1    
   239  120  241 1    
   240  121  122 am   BACKBONE|DICT|INTERRES
   241  121  123 2    
   242  122  242 1    
   243  122  243 1    
   244  124  125 1    
   245  124  244 1    
   246  124  245 1    
   247  125  126 1    
   248  126  246 1    
   249  126  247 1    
@<TRIPOS>SUBSTRUCTURE
     1 UNK         1 GROUP             0       ****    0 ROOT    
