@<TRIPOS>MOLECULE
3R540
247   249    1
SMALL
USER_CHARGES


@<TRIPOS>ATOM
      1 CA          1.8872  -12.8425  -46.9367 C.3       0 UNK        -0.1800 
      2 C           3.0511  -12.8624  -47.9176 C.2       0 UNK         0.5000 
      3 O           3.5585  -11.7999  -48.2777 O.2       0 UNK        -0.5000 
      4 N           3.4702  -14.0532  -48.3570 N.am      1 UNK        -0.5000 
      5 CA          4.5430  -14.2502  -49.3294 C.3       1 UNK         0.1400 
      6 C6          4.0479  -14.1757  -50.8020 C.3       23 UNK        -0.0398 
      7 S7          2.7413  -15.3735  -51.2549 S.3       23 UNK        -0.2404 
      8 C8          1.2252  -14.3888  -51.0501 C.3       23 UNK        -0.0205 
      9 C9          0.0269  -15.3064  -50.8747 C.ar      23 UNK        -0.0193 
     10 C10        -0.6793  -15.7710  -51.9869 C.ar      23 UNK        -0.1150 
     11 C11        -1.7374  -16.6704  -51.8291 C.ar      23 UNK        -0.0193 
     12 C12        -2.0884  -17.0936  -50.5433 C.ar      23 UNK        -0.1150 
     13 C13        -1.4004  -16.6280  -49.4147 C.ar      23 UNK        -0.0193 
     14 C14        -0.3496  -15.7249  -49.5959 C.ar      23 UNK        -0.1150 
     15 C15        -1.7434  -17.0731  -47.9903 C.3       23 UNK        -0.0205 
     16 S16        -2.7024  -18.6237  -47.8745 S.3       23 UNK        -0.2404 
     17 C17        -2.4735  -19.0639  -46.1243 C.3       23 UNK        -0.0398 
     18 CA         -1.3683  -20.1292  -45.9267 C.3       11 UNK         0.1400 
     19 N          -0.8248  -20.0690  -44.5708 N.am      11 UNK        -0.5000 
     20 C           0.2361  -20.7580  -44.1326 C.2       10 UNK         0.5000 
     21 O           0.9077  -21.5099  -44.8379 O.2       10 UNK        -0.5000 
     22 CA          0.5595  -20.6191  -42.6371 C.3       10 UNK         0.1400 
     23 CB          1.3017  -19.3040  -42.3618 C.3       10 UNK        -0.1800 
     24 N          -0.6480  -20.6881  -41.8116 N.am      10 UNK        -0.5000 
     25 C          -1.3798  -21.7983  -41.6399 C.2       9 UNK         0.5000 
     26 O          -1.1033  -22.8837  -42.1474 O.2       9 UNK        -0.5000 
     27 CA         -2.6571  -21.6670  -40.7917 C.3       9 UNK         0.1400 
     28 CB         -2.3216  -21.7101  -39.2934 C.3       9 UNK        -0.1800 
     29 N          -3.4107  -20.4488  -41.0870 N.am      9 UNK        -0.5000 
     30 C          -3.9971  -20.1843  -42.2628 C.2       8 UNK         0.5000 
     31 O          -3.9749  -20.9447  -43.2290 O.2       8 UNK        -0.5000 
     32 CA         -4.6750  -18.8099  -42.3991 C.3       8 UNK         0.1400 
     33 CB         -6.1057  -18.8534  -41.8423 C.3       8 UNK        -0.1800 
     34 N          -3.9300  -17.7258  -41.7518 N.am      8 UNK        -0.5000 
     35 C          -2.6777  -17.3752  -42.0693 C.2       7 UNK         0.5000 
     36 O          -1.9860  -17.9763  -42.8959 O.2       7 UNK        -0.5000 
     37 CA         -2.0880  -16.1702  -41.3312 C.3       7 UNK         0.1400 
     38 CB         -1.1840  -16.6209  -40.1721 C.3       7 UNK        -0.1800 
     39 N          -1.3119  -15.4149  -42.3012 N.am      7 UNK        -0.5000 
     40 C          -1.1130  -14.0961  -42.3179 C.2       6 UNK         0.5000 
     41 O          -1.5060  -13.3400  -41.4273 O.2       6 UNK        -0.5000 
     42 CA         -0.3469  -13.5392  -43.5408 C.3       6 UNK         0.1400 
     43 CB         -0.1074  -12.0209  -43.4528 C.3       6 UNK        -0.1800 
     44 N           0.9411  -14.2024  -43.7657 N.am      6 UNK        -0.5000 
     45 C           1.1143  -15.4308  -44.2690 C.2       5 UNK         0.5000 
     46 O           0.1809  -16.1795  -44.5706 O.2       5 UNK        -0.5000 
     47 CA          2.5761  -15.8925  -44.4345 C.3       5 UNK         0.1400 
     48 CB          3.2406  -16.1292  -43.0686 C.3       5 UNK        -0.1800 
     49 N           2.6910  -17.1119  -45.2323 N.am      5 UNK        -0.5000 
     50 C           2.3980  -17.2042  -46.5343 C.2       4 UNK         0.5000 
     51 O           2.0643  -16.2422  -47.2249 O.2       4 UNK        -0.5000 
     52 CA          2.5685  -18.5938  -47.1687 C.3       4 UNK         0.1400 
     53 CB          1.9941  -18.6671  -48.5950 C.3       4 UNK        -0.1800 
     54 N           3.9877  -18.9333  -47.2053 N.am      4 UNK        -0.5000 
     55 C           4.6766  -19.4590  -46.1834 C.2       3 UNK         0.5000 
     56 O           4.1635  -19.7730  -45.1086 O.2       3 UNK        -0.5000 
     57 CA          6.1936  -19.6418  -46.3789 C.3       3 UNK         0.1400 
     58 CB          6.4958  -21.0569  -46.8956 C.3       3 UNK        -0.1800 
     59 N           6.7828  -18.6613  -47.2936 N.am      3 UNK        -0.5000 
     60 C           6.9113  -17.3516  -47.0375 C.2       2 UNK         0.5000 
     61 O           6.5845  -16.8311  -45.9693 O.2       2 UNK        -0.5000 
     62 CA          7.4965  -16.4603  -48.1571 C.3       2 UNK         0.1400 
     63 CB          7.9730  -17.2381  -49.4056 C.3       2 UNK        -0.1800 
     64 N           6.5712  -15.3904  -48.5500 N.am      2 UNK        -0.5000 
     65 C           5.3096  -15.5417  -48.9811 C.2       1 UNK         0.5000 
     66 O           4.7599  -16.6382  -49.0919 O.2       1 UNK        -0.5000 
     67 C          -1.8435  -21.5537  -46.2988 C.2       11 UNK         0.5000 
     68 O          -1.5724  -22.0184  -47.4082 O.2       11 UNK        -0.5000 
     69 N          -2.5062  -22.2364  -45.3532 N.am      12 UNK        -0.5000 
     70 CA         -2.9342  -23.6286  -45.4774 C.3       12 UNK         0.1400 
     71 CB         -3.9288  -23.9711  -44.3590 C.3       12 UNK        -0.1800 
     72 C          -1.7559  -24.6168  -45.4831 C.2       12 UNK         0.5000 
     73 O          -1.7391  -25.5180  -46.3206 O.2       12 UNK        -0.5000 
     74 N          -0.7795  -24.4231  -44.5835 N.am      13 UNK        -0.5000 
     75 CA          0.4305  -25.2469  -44.4778 C.3       13 UNK         0.1400 
     76 CB          1.2268  -24.8454  -43.2273 C.3       13 UNK        -0.1800 
     77 C           1.3225  -25.1769  -45.7308 C.2       13 UNK         0.5000 
     78 O           1.8812  -26.1952  -46.1398 O.2       13 UNK        -0.5000 
     79 N           1.4035  -23.9869  -46.3392 N.am      14 UNK        -0.5000 
     80 CA          2.0788  -23.7424  -47.6141 C.3       14 UNK         0.1400 
     81 CB          2.3477  -22.2357  -47.7353 C.3       14 UNK        -0.1800 
     82 C           1.2841  -24.2448  -48.8389 C.2       14 UNK         0.5000 
     83 O           1.8318  -24.2529  -49.9415 O.2       14 UNK        -0.5000 
     84 N           0.0110  -24.6204  -48.6346 N.am      15 UNK        -0.5000 
     85 CA         -0.9860  -25.0364  -49.6298 C.3       15 UNK         0.1400 
     86 CB         -0.5470  -26.3225  -50.3588 C.3       15 UNK        -0.1800 
     87 C          -1.3981  -23.9118  -50.6038 C.2       15 UNK         0.5000 
     88 O          -2.0009  -24.1874  -51.6419 O.2       15 UNK        -0.5000 
     89 N          -1.1011  -22.6581  -50.2415 N.am      16 UNK        -0.5000 
     90 CA         -1.4300  -21.4619  -51.0111 C.3       16 UNK         0.1400 
     91 CB         -0.5122  -20.3187  -50.5639 C.3       16 UNK        -0.1800 
     92 C          -2.9131  -21.0792  -50.8745 C.2       16 UNK         0.5000 
     93 O          -3.4754  -20.4989  -51.8001 O.2       16 UNK        -0.5000 
     94 N          -3.5470  -21.4687  -49.7591 N.am      17 UNK        -0.5000 
     95 CA         -4.9751  -21.2672  -49.4894 C.3       17 UNK         0.1400 
     96 CB         -5.2683  -21.6754  -48.0375 C.3       17 UNK        -0.1800 
     97 C          -5.9137  -22.0197  -50.4594 C.2       17 UNK         0.5000 
     98 O          -7.1009  -21.7024  -50.5221 O.2       17 UNK        -0.5000 
     99 N          -5.3754  -23.0031  -51.1929 N.am      18 UNK        -0.5000 
    100 CA        -6.0828  -23.7658  -52.2191 C.3       18 UNK         0.1400 
    101 CB        -5.4852  -25.1814  -52.2673 C.3       18 UNK        -0.1800 
    102 C         -6.0201  -23.1081  -53.6134 C.2       18 UNK         0.5000 
    103 O         -6.7123  -23.5761  -54.5196 O.2       18 UNK        -0.5000 
    104 N         -5.1924  -22.0663  -53.7931 N.am      19 UNK        -0.5000 
    105 CA        -4.9357  -21.4167  -55.0807 C.3       19 UNK         0.1400 
    106 CB        -3.5592  -20.7305  -55.0411 C.3       19 UNK        -0.1800 
    107 C         -6.0673  -20.4528  -55.4926 C.2       19 UNK         0.5000 
    108 O         -5.8687  -19.2363  -55.5191 O.2       19 UNK        -0.5000 
    109 N         -7.2333  -21.0289  -55.8165 N.am      20 UNK        -0.5000 
    110 CA        -8.4296  -20.3926  -56.3764 C.3       20 UNK         0.1400 
    111 CB        -8.1883  -20.0377  -57.8606 C.3       20 UNK        -0.1800 
    112 C         -8.9202  -19.2029  -55.5266 C.2       20 UNK         0.5000 
    113 O         -9.4884  -19.4223  -54.4556 O.2       20 UNK        -0.5000 
    114 N         -8.6674  -17.9733  -55.9976 N.am      21 UNK        -0.5000 
    115 CA        -9.0116  -16.7080  -55.3436 C.3       21 UNK         0.1400 
    116 CB        -8.6216  -15.5478  -56.2722 C.3       21 UNK        -0.1800 
    117 C         -8.3805  -16.5179  -53.9491 C.2       21 UNK         0.5000 
    118 O         -8.9383  -15.7790  -53.1363 O.2       21 UNK        -0.5000 
    119 N         -7.2572  -17.1978  -53.6844 N.am      22 UNK        -0.5000 
    120 CA        -6.6420  -17.2881  -52.3513 C.3       22 UNK         0.1400 
    121 C         -7.4091  -18.2067  -51.3525 C.2       22 UNK         0.5000 
    122 N         -8.3923  -18.9949  -51.7712 N.am      22 UNK        -0.7600 
    123 O         -7.1075  -18.1959  -50.1626 O.2       22 UNK        -0.5000 
    124 C124       -5.1565  -17.7110  -52.4316 C.3       23 UNK        -0.0398 
    125 S125       -4.1049  -16.5013  -53.3038 S.3       23 UNK        -0.2404 
    126 C126       -2.4531  -17.2296  -53.0525 C.3       23 UNK        -0.0205 
    127 H127        1.1944  -12.0399  -47.1896 H         1 UNK         0.0600 
    128 H128        2.2541  -12.6697  -45.9256 H         1 UNK         0.0600 
    129 H129        1.3283  -13.7771  -46.9485 H         1 UNK         0.0600 
    130 H130        3.0177  -14.9084  -48.0313 H         1 UNK         0.3000 
    131 H131        5.2583  -13.4335  -49.2088 H         1 UNK         0.0600 
    132 H132        3.6861  -13.1686  -51.0131 H         1 UNK         0.0800 
    133 H133        4.8888  -14.3272  -51.4804 H         1 UNK         0.0800 
    134 H134        1.3155  -13.7335  -50.1837 H         1 UNK         0.0800 
    135 H135        1.0896  -13.7410  -51.9173 H         1 UNK         0.0800 
    136 H136       -0.3828  -15.4554  -52.9773 H         1 UNK         0.1150 
    137 H137       -2.8840  -17.8106  -50.4294 H         1 UNK         0.1150 
    138 H138        0.1993  -15.3653  -48.7375 H         1 UNK         0.1150 
    139 H139       -0.8179  -17.1950  -47.4244 H         1 UNK         0.0800 
    140 H140       -2.3028  -16.2763  -47.4989 H         1 UNK         0.0800 
    141 H141       -3.4259  -19.3981  -45.7089 H         1 UNK         0.0800 
    142 H142       -2.2210  -18.1515  -45.5814 H         1 UNK         0.0800 
    143 H143       -0.5385  -19.8858  -46.5939 H         1 UNK         0.0600 
    144 H144       -1.2955  -19.4431  -43.9219 H         1 UNK         0.3000 
    145 H145        1.2154  -21.4454  -42.3554 H         1 UNK         0.0600 
    146 H146        1.5627  -19.2092  -41.3078 H         1 UNK         0.0600 
    147 H147        2.2304  -19.2617  -42.9321 H         1 UNK         0.0600 
    148 H148        0.7050  -18.4346  -42.6407 H         1 UNK         0.0600 
    149 H149       -0.9778  -19.8219  -41.4129 H         1 UNK         0.3000 
    150 H150       -3.2968  -22.5217  -41.0222 H         1 UNK         0.0600 
    151 H151       -1.7088  -20.8599  -38.9912 H         1 UNK         0.0600 
    152 H152       -1.7704  -22.6177  -39.0434 H         1 UNK         0.0600 
    153 H153       -3.2272  -21.7041  -38.6866 H         1 UNK         0.0600 
    154 H154       -3.4724  -19.7587  -40.3533 H         1 UNK         0.3000 
    155 H155       -4.7321  -18.5793  -43.4650 H         1 UNK         0.0600 
    156 H156       -6.1157  -19.0429  -40.7683 H         1 UNK         0.0600 
    157 H157       -6.6867  -19.6432  -42.3207 H         1 UNK         0.0600 
    158 H158       -6.6282  -17.9138  -42.0229 H         1 UNK         0.0600 
    159 H159       -4.4289  -17.1911  -41.0551 H         1 UNK         0.3000 
    160 H160       -2.9017  -15.5518  -40.9465 H         1 UNK         0.0600 
    161 H161       -0.3536  -17.2341  -40.5246 H         1 UNK         0.0600 
    162 H162       -1.7441  -17.2090  -39.4443 H         1 UNK         0.0600 
    163 H163       -0.7646  -15.7640  -39.6447 H         1 UNK         0.0600 
    164 H164       -0.9648  -15.9635  -43.0876 H         1 UNK         0.3000 
    165 H165       -0.9781  -13.7195  -44.4136 H         1 UNK         0.0600 
    166 H166        0.3715  -11.6436  -44.3566 H         1 UNK         0.0600 
    167 H167       -1.0483  -11.4809  -43.3396 H         1 UNK         0.0600 
    168 H168        0.5258  -11.7618  -42.6034 H         1 UNK         0.0600 
    169 H169        1.7562  -13.6717  -43.4959 H         1 UNK         0.3000 
    170 H170        3.1229  -15.1033  -44.9548 H         1 UNK         0.0600 
    171 H171        2.6944  -16.8592  -42.4725 H         1 UNK         0.0600 
    172 H172        4.2639  -16.4878  -43.1844 H         1 UNK         0.0600 
    173 H173        3.2880  -15.2075  -42.4879 H         1 UNK         0.0600 
    174 H174        3.0021  -17.9487  -44.7559 H         1 UNK         0.3000 
    175 H175        2.0306  -19.3175  -46.5525 H         1 UNK         0.0600 
    176 H176        2.4520  -17.9343  -49.2598 H         1 UNK         0.0600 
    177 H177        2.1466  -19.6506  -49.0359 H         1 UNK         0.0600 
    178 H178        0.9222  -18.4727  -48.5901 H         1 UNK         0.0600 
    179 H179        4.4972  -18.5864  -48.0089 H         1 UNK         0.3000 
    180 H180        6.6687  -19.5250  -45.4025 H         1 UNK         0.0600 
    181 H181        6.0587  -21.2280  -47.8803 H         1 UNK         0.0600 
    182 H182        6.0901  -21.8130  -46.2219 H         1 UNK         0.0600 
    183 H183        7.5696  -21.2304  -46.9685 H         1 UNK         0.0600 
    184 H184        7.0676  -19.0027  -48.2000 H         1 UNK         0.3000 
    185 H185        8.3696  -15.9702  -47.7242 H         1 UNK         0.0600 
    186 H186        8.7287  -17.9804  -49.1454 H         1 UNK         0.0600 
    187 H187        7.1544  -17.7532  -49.9096 H         1 UNK         0.0600 
    188 H188        8.4290  -16.5635  -50.1303 H         1 UNK         0.0600 
    189 H189        6.9302  -14.4523  -48.4405 H         1 UNK         0.3000 
    190 H190       -2.7528  -21.7676  -44.4863 H         1 UNK         0.3000 
    191 H191       -3.4536  -23.7363  -46.4311 H         1 UNK         0.0600 
    192 H192       -4.8157  -23.3398  -44.4162 H         1 UNK         0.0600 
    193 H193       -4.2621  -25.0068  -44.4343 H         1 UNK         0.0600 
    194 H194       -3.4866  -23.8378  -43.3712 H         1 UNK         0.0600 
    195 H195       -0.8855  -23.6890  -43.8888 H         1 UNK         0.3000 
    196 H196        0.1140  -26.2851  -44.3581 H         1 UNK         0.0600 
    197 H197        2.1326  -25.4452  -43.1299 H         1 UNK         0.0600 
    198 H198        0.6400  -24.9965  -42.3213 H         1 UNK         0.0600 
    199 H199        1.5278  -23.7980  -43.2621 H         1 UNK         0.0600 
    200 H200        0.9756  -23.1809  -45.8914 H         1 UNK         0.3000 
    201 H201        3.0387  -24.2628  -47.6076 H         1 UNK         0.0600 
    202 H202        2.8956  -22.0041  -48.6495 H         1 UNK         0.0600 
    203 H203        2.9462  -21.8762  -46.8985 H         1 UNK         0.0600 
    204 H204        1.4183  -21.6649  -47.7503 H         1 UNK         0.0600 
    205 H205       -0.3355  -24.5913  -47.6836 H         1 UNK         0.3000 
    206 H206       -1.8865  -25.2763  -49.0633 H         1 UNK         0.0600 
    207 H207       -0.2654  -27.1005  -49.6492 H         1 UNK         0.0600 
    208 H208       -1.3575  -26.7209  -50.9702 H         1 UNK         0.0600 
    209 H209        0.3015  -26.1463  -51.0201 H         1 UNK         0.0600 
    210 H210       -0.7021  -22.5109  -49.3225 H         1 UNK         0.3000 
    211 H211       -1.2346  -21.6605  -52.0671 H         1 UNK         0.0600 
    212 H212       -0.6713  -20.0631  -49.5164 H         1 UNK         0.0600 
    213 H213       -0.6876  -19.4225  -51.1580 H         1 UNK         0.0600 
    214 H214        0.5368  -20.5866  -50.6887 H         1 UNK         0.0600 
    215 H215       -2.9968  -21.9039  -49.0283 H         1 UNK         0.3000 
    216 H216       -5.1852  -20.2010  -49.5958 H         1 UNK         0.0600 
    217 H217       -6.3141  -21.4960  -47.7853 H         1 UNK         0.0600 
    218 H218       -4.6663  -21.1013  -47.3341 H         1 UNK         0.0600 
    219 H219       -5.0682  -22.7340  -47.8717 H         1 UNK         0.0600 
    220 H220       -4.3903  -23.1996  -51.0857 H         1 UNK         0.3000 
    221 H221       -7.1366  -23.8539  -51.9467 H         1 UNK         0.0600 
    222 H222       -4.4356  -25.1653  -52.5632 H         1 UNK         0.0600 
    223 H223       -5.5527  -25.6720  -51.2961 H         1 UNK         0.0600 
    224 H224       -6.0180  -25.8079  -52.9838 H         1 UNK         0.0600 
    225 H225       -4.6872  -21.6911  -52.9980 H         1 UNK         0.3000 
    226 H226       -4.8787  -22.1903  -55.8496 H         1 UNK         0.0600 
    227 H227       -3.2946  -20.3353  -56.0224 H         1 UNK         0.0600 
    228 H228       -3.5440  -19.8956  -54.3430 H         1 UNK         0.0600 
    229 H229       -2.7748  -21.4283  -54.7475 H         1 UNK         0.0600 
    230 H230       -7.3011  -22.0296  -55.6580 H         1 UNK         0.3000 
    231 H231       -9.2243  -21.1393  -56.3418 H         1 UNK         0.0600 
    232 H232       -7.3474  -19.3559  -57.9929 H         1 UNK         0.0600 
    233 H233       -9.0700  -19.5726  -58.3036 H         1 UNK         0.0600 
    234 H234       -7.9750  -20.9346  -58.4424 H         1 UNK         0.0600 
    235 H235       -8.1547  -17.8999  -56.8642 H         1 UNK         0.3000 
    236 H236      -10.0953  -16.6926  -55.2123 H         1 UNK         0.0600 
    237 H237       -9.1345  -15.6191  -57.2316 H         1 UNK         0.0600 
    238 H238       -8.8911  -14.5867  -55.8322 H         1 UNK         0.0600 
    239 H239       -7.5479  -15.5316  -56.4638 H         1 UNK         0.0600 
    240 H240       -6.8514  -17.7841  -54.4065 H         1 UNK         0.3000 
    241 H241       -6.6689  -16.2905  -51.9087 H         1 UNK         0.0600 
    242 H242       -8.6791  -19.0274  -52.7444 H         1 UNK         0.3800 
    243 H243       -8.8385  -19.6043  -51.1044 H         1 UNK         0.3800 
    244 H244       -5.0687  -18.6779  -52.9276 H         1 UNK         0.0800 
    245 H245       -4.7569  -17.8478  -51.4288 H         1 UNK         0.0800 
    246 H246       -1.8598  -17.0460  -53.9494 H         1 UNK         0.0800 
    247 H247       -2.5273  -18.3130  -52.9641 H         1 UNK         0.0800 
@<TRIPOS>BOND
     1    1    2 1    
     2    1  127 1    
     3    1  128 1    
     4    1  129 1    
     5    2    3 2    
     6    2    4 am   BACKBONE|DICT|INTERRES
     7    4    5 1    
     8    4  130 1    
     9    5    6 1    
    10    5   65 1    
    11    5  131 1    
    12    6    7 1    
    13    6  132 1    
    14    6  133 1    
    15    7    8 1    
    16    8    9 1    
    17    8  134 1    
    18    8  135 1    
    19    9   10 ar   
    20    9   14 ar   
    21   10   11 ar   
    22   10  136 1    
    23   11   12 ar   
    24   11  126 1    
    25   12   13 ar   
    26   12  137 1    
    27   13   14 ar   
    28   13   15 1    
    29   14  138 1    
    30   15   16 1    
    31   15  139 1    
    32   15  140 1    
    33   16   17 1    
    34   17   18 1    
    35   17  141 1    
    36   17  142 1    
    37   18   19 1    
    38   18   67 1    
    39   18  143 1    
    40   19   20 am   BACKBONE|DICT|INTERRES
    41   19  144 1    
    42   20   21 2    
    43   20   22 1    
    44   22   23 1    
    45   22   24 1    
    46   22  145 1    
    47   23  146 1    
    48   23  147 1    
    49   23  148 1    
    50   24   25 am   BACKBONE|DICT|INTERRES
    51   24  149 1    
    52   25   26 2    
    53   25   27 1    
    54   27   28 1    
    55   27   29 1    
    56   27  150 1    
    57   28  151 1    
    58   28  152 1    
    59   28  153 1    
    60   29   30 am   BACKBONE|DICT|INTERRES
    61   29  154 1    
    62   30   31 2    
    63   30   32 1    
    64   32   33 1    
    65   32   34 1    
    66   32  155 1    
    67   33  156 1    
    68   33  157 1    
    69   33  158 1    
    70   34   35 am   BACKBONE|DICT|INTERRES
    71   34  159 1    
    72   35   36 2    
    73   35   37 1    
    74   37   38 1    
    75   37   39 1    
    76   37  160 1    
    77   38  161 1    
    78   38  162 1    
    79   38  163 1    
    80   39   40 am   BACKBONE|DICT|INTERRES
    81   39  164 1    
    82   40   41 2    
    83   40   42 1    
    84   42   43 1    
    85   42   44 1    
    86   42  165 1    
    87   43  166 1    
    88   43  167 1    
    89   43  168 1    
    90   44   45 am   BACKBONE|DICT|INTERRES
    91   44  169 1    
    92   45   46 2    
    93   45   47 1    
    94   47   48 1    
    95   47   49 1    
    96   47  170 1    
    97   48  171 1    
    98   48  172 1    
    99   48  173 1    
   100   49   50 am   BACKBONE|DICT|INTERRES
   101   49  174 1    
   102   50   51 2    
   103   50   52 1    
   104   52   53 1    
   105   52   54 1    
   106   52  175 1    
   107   53  176 1    
   108   53  177 1    
   109   53  178 1    
   110   54   55 am   BACKBONE|DICT|INTERRES
   111   54  179 1    
   112   55   56 2    
   113   55   57 1    
   114   57   58 1    
   115   57   59 1    
   116   57  180 1    
   117   58  181 1    
   118   58  182 1    
   119   58  183 1    
   120   59   60 am   BACKBONE|DICT|INTERRES
   121   59  184 1    
   122   60   61 2    
   123   60   62 1    
   124   62   63 1    
   125   62   64 1    
   126   62  185 1    
   127   63  186 1    
   128   63  187 1    
   129   63  188 1    
   130   64   65 am   BACKBONE|DICT|INTERRES
   131   64  189 1    
   132   65   66 2    
   133   67   68 2    
   134   67   69 am   BACKBONE|DICT|INTERRES
   135   69   70 1    
   136   69  190 1    
   137   70   71 1    
   138   70   72 1    
   139   70  191 1    
   140   71  192 1    
   141   71  193 1    
   142   71  194 1    
   143   72   73 2    
   144   72   74 am   BACKBONE|DICT|INTERRES
   145   74   75 1    
   146   74  195 1    
   147   75   76 1    
   148   75   77 1    
   149   75  196 1    
   150   76  197 1    
   151   76  198 1    
   152   76  199 1    
   153   77   78 2    
   154   77   79 am   BACKBONE|DICT|INTERRES
   155   79   80 1    
   156   79  200 1    
   157   80   81 1    
   158   80   82 1    
   159   80  201 1    
   160   81  202 1    
   161   81  203 1    
   162   81  204 1    
   163   82   83 2    
   164   82   84 am   BACKBONE|DICT|INTERRES
   165   84   85 1    
   166   84  205 1    
   167   85   86 1    
   168   85   87 1    
   169   85  206 1    
   170   86  207 1    
   171   86  208 1    
   172   86  209 1    
   173   87   88 2    
   174   87   89 am   BACKBONE|DICT|INTERRES
   175   89   90 1    
   176   89  210 1    
   177   90   91 1    
   178   90   92 1    
   179   90  211 1    
   180   91  212 1    
   181   91  213 1    
   182   91  214 1    
   183   92   93 2    
   184   92   94 am   BACKBONE|DICT|INTERRES
   185   94   95 1    
   186   94  215 1    
   187   95   96 1    
   188   95   97 1    
   189   95  216 1    
   190   96  217 1    
   191   96  218 1    
   192   96  219 1    
   193   97   98 2    
   194   97   99 am   BACKBONE|DICT|INTERRES
   195   99  100 1    
   196   99  220 1    
   197  100  101 1    
   198  100  102 1    
   199  100  221 1    
   200  101  222 1    
   201  101  223 1    
   202  101  224 1    
   203  102  103 2    
   204  102  104 am   BACKBONE|DICT|INTERRES
   205  104  105 1    
   206  104  225 1    
   207  105  106 1    
   208  105  107 1    
   209  105  226 1    
   210  106  227 1    
   211  106  228 1    
   212  106  229 1    
   213  107  108 2    
   214  107  109 am   BACKBONE|DICT|INTERRES
   215  109  110 1    
   216  109  230 1    
   217  110  111 1    
   218  110  112 1    
   219  110  231 1    
   220  111  232 1    
   221  111  233 1    
   222  111  234 1    
   223  112  113 2    
   224  112  114 am   BACKBONE|DICT|INTERRES
   225  114  115 1    
   226  114  235 1    
   227  115  116 1    
   228  115  117 1    
   229  115  236 1    
   230  116  237 1    
   231  116  238 1    
   232  116  239 1    
   233  117  118 2    
   234  117  119 am   BACKBONE|DICT|INTERRES
   235  119  120 1    
   236  119  240 1    
   237  120  121 1    
   238  120  124 1    
   239  120  241 1    
   240  121  122 am   BACKBONE|DICT|INTERRES
   241  121  123 2    
   242  122  242 1    
   243  122  243 1    
   244  124  125 1    
   245  124  244 1    
   246  124  245 1    
   247  125  126 1    
   248  126  246 1    
   249  126  247 1    
@<TRIPOS>SUBSTRUCTURE
     1 UNK         1 GROUP             0       ****    0 ROOT    
