@<TRIPOS>MOLECULE
3R540
247   249    1
SMALL
USER_CHARGES


@<TRIPOS>ATOM
      1 CA          1.7499  -13.8069  -51.1558 C.3       0 UNK        -0.1800 
      2 C           2.3817  -13.7624  -49.7729 C.2       0 UNK         0.5000 
      3 O           3.1634  -14.6481  -49.4267 O.2       0 UNK        -0.5000 
      4 N           2.0636  -12.7270  -48.9855 N.am      1 UNK        -0.5000 
      5 CA          2.4356  -12.5490  -47.5727 C.3       1 UNK         0.1400 
      6 C6          1.4947  -11.5504  -46.8451 C.3       23 UNK        -0.0398 
      7 S7         -0.2937  -11.7865  -47.1306 S.3       23 UNK        -0.2404 
      8 C8         -0.6245  -13.4116  -46.3784 C.3       23 UNK        -0.0205 
      9 C9         -0.5639  -14.5387  -47.3995 C.ar      23 UNK        -0.0193 
     10 C10        -1.4979  -14.5942  -48.4378 C.ar      23 UNK        -0.1150 
     11 C11        -1.4448  -15.6188  -49.3850 C.ar      23 UNK        -0.0193 
     12 C12        -0.4470  -16.5906  -49.2897 C.ar      23 UNK        -0.1150 
     13 C13         0.4755  -16.5741  -48.2357 C.ar      23 UNK        -0.0193 
     14 C14         0.4081  -15.5382  -47.2983 C.ar      23 UNK        -0.1150 
     15 C15         1.5664  -17.6363  -48.0766 C.3       23 UNK        -0.0205 
     16 S16         1.2923  -19.2130  -48.9622 S.3       23 UNK        -0.2404 
     17 C17        -0.3332  -19.7518  -48.3318 C.3       23 UNK        -0.0398 
     18 CA         -0.3330  -21.2385  -47.8956 C.3       11 UNK         0.1400 
     19 N          -0.0791  -21.3854  -46.4607 N.am      11 UNK        -0.5000 
     20 C           0.0631  -22.5484  -45.8110 C.2       10 UNK         0.5000 
     21 O           0.0710  -23.6488  -46.3614 O.2       10 UNK        -0.5000 
     22 CA          0.1486  -22.4676  -44.2780 C.3       10 UNK         0.1400 
     23 CB          1.5682  -22.0997  -43.8199 C.3       10 UNK        -0.1800 
     24 N          -0.8140  -21.5101  -43.7314 N.am      10 UNK        -0.5000 
     25 C          -2.1426  -21.6887  -43.7349 C.2       9 UNK         0.5000 
     26 O          -2.6954  -22.6980  -44.1716 O.2       9 UNK        -0.5000 
     27 CA         -2.9981  -20.5285  -43.1941 C.3       9 UNK         0.1400 
     28 CB         -3.0487  -20.5593  -41.6595 C.3       9 UNK        -0.1800 
     29 N          -2.5179  -19.2189  -43.6355 N.am      9 UNK        -0.5000 
     30 C          -2.5380  -18.7932  -44.9070 C.2       8 UNK         0.5000 
     31 O          -2.9827  -19.4541  -45.8435 O.2       8 UNK        -0.5000 
     32 CA         -1.9081  -17.4168  -45.1878 C.3       8 UNK         0.1400 
     33 CB         -2.9340  -16.3074  -44.9188 C.3       8 UNK        -0.1800 
     34 N          -0.6979  -17.1553  -44.4045 N.am      8 UNK        -0.5000 
     35 C           0.3811  -17.9510  -44.3373 C.2       7 UNK         0.5000 
     36 O           0.4952  -18.9936  -44.9806 O.2       7 UNK        -0.5000 
     37 CA          1.5136  -17.5474  -43.3734 C.3       7 UNK         0.1400 
     38 CB          2.7799  -17.1632  -44.1529 C.3       7 UNK        -0.1800 
     39 N           1.1533  -16.4621  -42.4575 N.am      7 UNK        -0.5000 
     40 C           0.2675  -16.5675  -41.4545 C.2       6 UNK         0.5000 
     41 O          -0.3461  -17.6051  -41.2011 O.2       6 UNK        -0.5000 
     42 CA          0.0031  -15.3092  -40.6034 C.3       6 UNK         0.1400 
     43 CB          0.6625  -15.4515  -39.2230 C.3       6 UNK        -0.1800 
     44 N           0.4729  -14.0662  -41.2194 N.am      6 UNK        -0.5000 
     45 C          -0.0721  -13.4709  -42.2904 C.2       5 UNK         0.5000 
     46 O          -1.0472  -13.9126  -42.8977 O.2       5 UNK        -0.5000 
     47 CA          0.6352  -12.1933  -42.7865 C.3       5 UNK         0.1400 
     48 CB          0.1180  -10.9591  -42.0335 C.3       5 UNK        -0.1800 
     49 N           2.0928  -12.2795  -42.6407 N.am      5 UNK        -0.5000 
     50 C           2.8650  -13.1209  -43.3400 C.2       4 UNK         0.5000 
     51 O           2.4466  -13.8181  -44.2682 O.2       4 UNK        -0.5000 
     52 CA          4.3226  -13.2621  -42.8801 C.3       4 UNK         0.1400 
     53 CB          4.3749  -14.0686  -41.5640 C.3       4 UNK        -0.1800 
     54 N           5.0619  -13.9443  -43.9372 N.am      4 UNK        -0.5000 
     55 C           6.3747  -14.1986  -43.9760 C.2       3 UNK         0.5000 
     56 O           7.1716  -13.8709  -43.0962 O.2       3 UNK        -0.5000 
     57 CA          6.8826  -14.9223  -45.2354 C.3       3 UNK         0.1400 
     58 CB          6.4171  -16.3872  -45.2626 C.3       3 UNK        -0.1800 
     59 N           6.4381  -14.2477  -46.4541 N.am      3 UNK        -0.5000 
     60 C           6.9469  -13.0933  -46.9071 C.2       2 UNK         0.5000 
     61 O           7.9008  -12.5119  -46.3884 O.2       2 UNK        -0.5000 
     62 CA          6.2679  -12.4795  -48.1445 C.3       2 UNK         0.1400 
     63 CB          6.9005  -13.0199  -49.4358 C.3       2 UNK        -0.1800 
     64 N           4.8259  -12.7239  -48.1797 N.am      2 UNK        -0.5000 
     65 C           3.9249  -12.1734  -47.3568 C.2       1 UNK         0.5000 
     66 O           4.2365  -11.3862  -46.4613 O.2       1 UNK        -0.5000 
     67 C          -1.6400  -21.9405  -48.3185 C.2       11 UNK         0.5000 
     68 O          -1.6306  -22.7004  -49.2871 O.2       11 UNK        -0.5000 
     69 N          -2.7281  -21.7089  -47.5696 N.am      12 UNK        -0.5000 
     70 CA         -4.0233  -22.3523  -47.7820 C.3       12 UNK         0.1400 
     71 CB         -5.0821  -21.7340  -46.8586 C.3       12 UNK        -0.1800 
     72 C          -3.9643  -23.8777  -47.6081 C.2       12 UNK         0.5000 
     73 O          -4.5078  -24.5921  -48.4486 O.2       12 UNK        -0.5000 
     74 N          -3.2750  -24.3483  -46.5586 N.am      13 UNK        -0.5000 
     75 CA         -3.0466  -25.7686  -46.2881 C.3       13 UNK         0.1400 
     76 CB         -2.3748  -25.9368  -44.9172 C.3       13 UNK        -0.1800 
     77 C          -2.2277  -26.4630  -47.3915 C.2       13 UNK         0.5000 
     78 O          -2.6107  -27.5458  -47.8357 O.2       13 UNK        -0.5000 
     79 N          -1.1494  -25.8112  -47.8510 N.am      14 UNK        -0.5000 
     80 CA         -0.3036  -26.2710  -48.9569 C.3       14 UNK         0.1400 
     81 CB          0.9254  -25.3572  -49.0746 C.3       14 UNK        -0.1800 
     82 C          -1.0551  -26.3453  -50.3002 C.2       14 UNK         0.5000 
     83 O          -0.8121  -27.2610  -51.0866 O.2       14 UNK        -0.5000 
     84 N          -1.9823  -25.4043  -50.5155 N.am      15 UNK        -0.5000 
     85 CA         -2.8799  -25.3414  -51.6687 C.3       15 UNK         0.1400 
     86 CB         -3.2474  -23.8706  -51.9074 C.3       15 UNK        -0.1800 
     87 C          -4.1499  -26.2065  -51.5129 C.2       15 UNK         0.5000 
     88 O          -5.0420  -26.1125  -52.3597 O.2       15 UNK        -0.5000 
     89 N          -4.2388  -26.9941  -50.4279 N.am      16 UNK        -0.5000 
     90 CA         -5.3324  -27.9040  -50.0591 C.3       16 UNK         0.1400 
     91 CB         -5.3723  -29.1018  -51.0301 C.3       16 UNK        -0.1800 
     92 C          -6.7066  -27.2105  -49.9223 C.2       16 UNK         0.5000 
     93 O          -7.7404  -27.8457  -50.1364 O.2       16 UNK        -0.5000 
     94 N          -6.6849  -25.9073  -49.6048 N.am      17 UNK        -0.5000 
     95 CA         -7.8031  -24.9600  -49.5546 C.3       17 UNK         0.1400 
     96 CB         -8.7681  -25.3219  -48.4075 C.3       17 UNK        -0.1800 
     97 C          -8.5364  -24.7619  -50.9027 C.2       17 UNK         0.5000 
     98 O          -9.6228  -24.1807  -50.9146 O.2       17 UNK        -0.5000 
     99 N          -7.9458  -25.2332  -52.0107 N.am      18 UNK        -0.5000 
    100 CA        -8.5309  -25.1823  -53.3471 C.3       18 UNK         0.1400 
    101 CB        -8.1019  -26.4276  -54.1429 C.3       18 UNK        -0.1800 
    102 C         -8.1314  -23.8817  -54.0567 C.2       18 UNK         0.5000 
    103 O         -8.9935  -23.0468  -54.3330 O.2       18 UNK        -0.5000 
    104 N         -6.8280  -23.7284  -54.3271 N.am      19 UNK        -0.5000 
    105 CA        -6.2696  -22.5615  -55.0166 C.3       19 UNK         0.1400 
    106 CB        -5.0026  -22.9896  -55.7744 C.3       19 UNK        -0.1800 
    107 C         -5.9547  -21.3950  -54.0624 C.2       19 UNK         0.5000 
    108 O         -5.8066  -20.2627  -54.5227 O.2       19 UNK        -0.5000 
    109 N         -5.8115  -21.6979  -52.7616 N.am      20 UNK        -0.5000 
    110 CA        -5.4686  -20.7833  -51.6611 C.3       20 UNK         0.1400 
    111 CB        -6.6345  -19.8108  -51.3920 C.3       20 UNK        -0.1800 
    112 C         -4.1201  -20.0445  -51.8388 C.2       20 UNK         0.5000 
    113 O         -3.9106  -19.0005  -51.2213 O.2       20 UNK        -0.5000 
    114 N         -3.2444  -20.5869  -52.6985 N.am      21 UNK        -0.5000 
    115 CA        -1.9459  -20.0828  -53.1637 C.3       21 UNK         0.1400 
    116 CB        -0.9571  -19.9029  -51.9997 C.3       21 UNK        -0.1800 
    117 C         -2.0369  -18.8041  -54.0208 C.2       21 UNK         0.5000 
    118 O         -1.4490  -18.7619  -55.1022 O.2       21 UNK        -0.5000 
    119 N         -2.7683  -17.7964  -53.5350 N.am      22 UNK        -0.5000 
    120 CA        -2.9844  -16.5033  -54.2029 C.3       22 UNK         0.1400 
    121 C         -4.0866  -16.5212  -55.3035 C.2       22 UNK         0.5000 
    122 N         -4.8674  -17.5817  -55.4717 N.am      22 UNK        -0.7600 
    123 O         -4.2309  -15.5468  -56.0370 O.2       22 UNK        -0.5000 
    124 C124       -3.2391  -15.3635  -53.1821 C.3       23 UNK        -0.0398 
    125 S125       -1.8177  -15.0729  -52.0721 S.3       23 UNK        -0.2404 
    126 C126       -2.4768  -15.6974  -50.4980 C.3       23 UNK        -0.0205 
    127 H127        1.0060  -13.0207  -51.2871 H         1 UNK         0.0600 
    128 H128        1.2549  -14.7666  -51.3060 H         1 UNK         0.0600 
    129 H129        2.5141  -13.6909  -51.9241 H         1 UNK         0.0600 
    130 H130        1.4267  -12.0288  -49.3415 H         1 UNK         0.3000 
    131 H131        2.3146  -13.5156  -47.0835 H         1 UNK         0.0600 
    132 H132        1.6722  -11.5787  -45.7699 H         1 UNK         0.0800 
    133 H133        1.7256  -10.5299  -47.1558 H         1 UNK         0.0800 
    134 H134        0.0681  -13.5969  -45.5578 H         1 UNK         0.0800 
    135 H135       -1.6208  -13.3831  -45.9376 H         1 UNK         0.0800 
    136 H136       -2.2621  -13.8331  -48.5098 H         1 UNK         0.1150 
    137 H137       -0.4032  -17.3612  -50.0433 H         1 UNK         0.1150 
    138 H138        1.1202  -15.5067  -46.4865 H         1 UNK         0.1150 
    139 H139        2.5072  -17.2094  -48.4259 H         1 UNK         0.0800 
    140 H140        1.7095  -17.8619  -47.0208 H         1 UNK         0.0800 
    141 H141       -1.0564  -19.5618  -49.1251 H         1 UNK         0.0800 
    142 H142       -0.6448  -19.1099  -47.5085 H         1 UNK         0.0800 
    143 H143        0.4705  -21.7633  -48.4169 H         1 UNK         0.0600 
    144 H144       -0.0170  -20.5252  -45.9214 H         1 UNK         0.3000 
    145 H145       -0.0900  -23.4551  -43.8774 H         1 UNK         0.0600 
    146 H146        1.6399  -22.0849  -42.7323 H         1 UNK         0.0600 
    147 H147        2.2933  -22.8289  -44.1833 H         1 UNK         0.0600 
    148 H148        1.8765  -21.1216  -44.1896 H         1 UNK         0.0600 
    149 H149       -0.4448  -20.6249  -43.4172 H         1 UNK         0.3000 
    150 H150       -4.0142  -20.6613  -43.5717 H         1 UNK         0.0600 
    151 H151       -3.4086  -21.5242  -41.2997 H         1 UNK         0.0600 
    152 H152       -3.7243  -19.7963  -41.2726 H         1 UNK         0.0600 
    153 H153       -2.0650  -20.3894  -41.2194 H         1 UNK         0.0600 
    154 H154       -2.1083  -18.6205  -42.9312 H         1 UNK         0.3000 
    155 H155       -1.6356  -17.3819  -46.2433 H         1 UNK         0.0600 
    156 H156       -3.2330  -16.2795  -43.8702 H         1 UNK         0.0600 
    157 H157       -2.5334  -15.3289  -45.1740 H         1 UNK         0.0600 
    158 H158       -3.8347  -16.4542  -45.5164 H         1 UNK         0.0600 
    159 H159       -0.7003  -16.3125  -43.8472 H         1 UNK         0.3000 
    160 H160        1.7466  -18.4275  -42.7705 H         1 UNK         0.0600 
    161 H161        2.5994  -16.3344  -44.8357 H         1 UNK         0.0600 
    162 H162        3.1368  -18.0027  -44.7512 H         1 UNK         0.0600 
    163 H163        3.5896  -16.8782  -43.4812 H         1 UNK         0.0600 
    164 H164        1.5833  -15.5654  -42.6311 H         1 UNK         0.3000 
    165 H165       -1.0771  -15.2332  -40.4626 H         1 UNK         0.0600 
    166 H166        0.4223  -14.6037  -38.5812 H         1 UNK         0.0600 
    167 H167        0.3143  -16.3508  -38.7130 H         1 UNK         0.0600 
    168 H168        1.7486  -15.5181  -39.3008 H         1 UNK         0.0600 
    169 H169        1.2724  -13.6286  -40.7870 H         1 UNK         0.3000 
    170 H170        0.3959  -12.0644  -43.8422 H         1 UNK         0.0600 
    171 H171       -0.9632  -10.8623  -42.1410 H         1 UNK         0.0600 
    172 H172        0.3387  -11.0129  -40.9667 H         1 UNK         0.0600 
    173 H173        0.5650  -10.0444  -42.4235 H         1 UNK         0.0600 
    174 H174        2.5071  -11.7250  -41.9051 H         1 UNK         0.3000 
    175 H175        4.7472  -12.2673  -42.7337 H         1 UNK         0.0600 
    176 H176        3.9884  -15.0798  -41.6969 H         1 UNK         0.0600 
    177 H177        5.3907  -14.1500  -41.1788 H         1 UNK         0.0600 
    178 H178        3.7835  -13.5919  -40.7818 H         1 UNK         0.0600 
    179 H179        4.4732  -14.2289  -44.7095 H         1 UNK         0.3000 
    180 H180        7.9745  -14.9172  -45.2089 H         1 UNK         0.0600 
    181 H181        5.3355  -16.4682  -45.3710 H         1 UNK         0.0600 
    182 H182        6.6961  -16.9041  -44.3434 H         1 UNK         0.0600 
    183 H183        6.8753  -16.9282  -46.0907 H         1 UNK         0.0600 
    184 H184        5.6604  -14.6562  -46.9508 H         1 UNK         0.3000 
    185 H185        6.4294  -11.3999  -48.1108 H         1 UNK         0.0600 
    186 H186        7.9759  -12.8380  -49.4502 H         1 UNK         0.0600 
    187 H187        6.7469  -14.0948  -49.5405 H         1 UNK         0.0600 
    188 H188        6.4773  -12.5338  -50.3151 H         1 UNK         0.0600 
    189 H189        4.4826  -13.4004  -48.8558 H         1 UNK         0.3000 
    190 H190       -2.6814  -21.0259  -46.8172 H         1 UNK         0.3000 
    191 H191       -4.3203  -22.1539  -48.8123 H         1 UNK         0.0600 
    192 H192       -4.8175  -21.8501  -45.8073 H         1 UNK         0.0600 
    193 H193       -6.0548  -22.2045  -47.0079 H         1 UNK         0.0600 
    194 H194       -5.2027  -20.6689  -47.0573 H         1 UNK         0.0600 
    195 H195       -2.8921  -23.6905  -45.8865 H         1 UNK         0.3000 
    196 H196       -4.0227  -26.2564  -46.2467 H         1 UNK         0.0600 
    197 H197       -2.2106  -26.9906  -44.6889 H         1 UNK         0.0600 
    198 H198       -2.9958  -25.5248  -44.1217 H         1 UNK         0.0600 
    199 H199       -1.4069  -25.4370  -44.8776 H         1 UNK         0.0600 
    200 H200       -0.8758  -24.9391  -47.4045 H         1 UNK         0.3000 
    201 H201        0.0420  -27.2781  -48.7152 H         1 UNK         0.0600 
    202 H202        1.5106  -25.3640  -48.1548 H         1 UNK         0.0600 
    203 H203        0.6406  -24.3250  -49.2811 H         1 UNK         0.0600 
    204 H204        1.5823  -25.6856  -49.8809 H         1 UNK         0.0600 
    205 H205       -2.0742  -24.6555  -49.8366 H         1 UNK         0.3000 
    206 H206       -2.3510  -25.7047  -52.5520 H         1 UNK         0.0600 
    207 H207       -2.3530  -23.2610  -52.0375 H         1 UNK         0.0600 
    208 H208       -3.8500  -23.7606  -52.8073 H         1 UNK         0.0600 
    209 H209       -3.8134  -23.4600  -51.0707 H         1 UNK         0.0600 
    210 H210       -3.4772  -26.9580  -49.7615 H         1 UNK         0.3000 
    211 H211       -5.0881  -28.2869  -49.0675 H         1 UNK         0.0600 
    212 H212       -5.6724  -28.7975  -52.0335 H         1 UNK         0.0600 
    213 H213       -6.0800  -29.8595  -50.6919 H         1 UNK         0.0600 
    214 H214       -4.3966  -29.5822  -51.1028 H         1 UNK         0.0600 
    215 H215       -5.7776  -25.4991  -49.3834 H         1 UNK         0.3000 
    216 H216       -7.3583  -23.9932  -49.3149 H         1 UNK         0.0600 
    217 H217       -9.5146  -24.5406  -48.2603 H         1 UNK         0.0600 
    218 H218       -8.2328  -25.4371  -47.4649 H         1 UNK         0.0600 
    219 H219       -9.3031  -26.2508  -48.6061 H         1 UNK         0.0600 
    220 H220       -7.0355  -25.6734  -51.9314 H         1 UNK         0.3000 
    221 H221       -9.6205  -25.2026  -53.2730 H         1 UNK         0.0600 
    222 H222       -7.0181  -26.5147  -54.2245 H         1 UNK         0.0600 
    223 H223       -8.4694  -27.3376  -53.6680 H         1 UNK         0.0600 
    224 H224       -8.5076  -26.4028  -55.1551 H         1 UNK         0.0600 
    225 H225       -6.1857  -24.4661  -54.0708 H         1 UNK         0.3000 
    226 H226       -6.9900  -22.1952  -55.7514 H         1 UNK         0.0600 
    227 H227       -5.2287  -23.7611  -56.5108 H         1 UNK         0.0600 
    228 H228       -4.5659  -22.1478  -56.3137 H         1 UNK         0.0600 
    229 H229       -4.2376  -23.3821  -55.1049 H         1 UNK         0.0600 
    230 H230       -5.9681  -22.6597  -52.4988 H         1 UNK         0.3000 
    231 H231       -5.3537  -21.4075  -50.7753 H         1 UNK         0.0600 
    232 H232       -6.4604  -19.2283  -50.4865 H         1 UNK         0.0600 
    233 H233       -7.5723  -20.3489  -51.2535 H         1 UNK         0.0600 
    234 H234       -6.7701  -19.1062  -52.2132 H         1 UNK         0.0600 
    235 H235       -3.5538  -21.4243  -53.1676 H         1 UNK         0.3000 
    236 H236       -1.5454  -20.8662  -53.8092 H         1 UNK         0.0600 
    237 H237        0.0430  -19.6745  -52.3694 H         1 UNK         0.0600 
    238 H238       -1.2550  -19.0821  -51.3496 H         1 UNK         0.0600 
    239 H239       -0.8843  -20.8080  -51.3965 H         1 UNK         0.0600 
    240 H240       -3.2300  -17.9390  -52.6417 H         1 UNK         0.3000 
    241 H241       -2.0628  -16.2516  -54.7316 H         1 UNK         0.0600 
    242 H242       -5.5663  -17.5605  -56.1968 H         1 UNK         0.3800 
    243 H243       -4.7968  -18.4063  -54.8895 H         1 UNK         0.3800 
    244 H244       -3.4292  -14.4219  -53.7002 H         1 UNK         0.0800 
    245 H245       -4.1369  -15.5701  -52.5972 H         1 UNK         0.0800 
    246 H246       -3.3701  -15.1319  -50.2284 H         1 UNK         0.0800 
    247 H247       -2.7920  -16.7331  -50.6218 H         1 UNK         0.0800 
@<TRIPOS>BOND
     1    1    2 1    
     2    1  127 1    
     3    1  128 1    
     4    1  129 1    
     5    2    3 2    
     6    2    4 am   BACKBONE|DICT|INTERRES
     7    4    5 1    
     8    4  130 1    
     9    5    6 1    
    10    5   65 1    
    11    5  131 1    
    12    6    7 1    
    13    6  132 1    
    14    6  133 1    
    15    7    8 1    
    16    8    9 1    
    17    8  134 1    
    18    8  135 1    
    19    9   10 ar   
    20    9   14 ar   
    21   10   11 ar   
    22   10  136 1    
    23   11   12 ar   
    24   11  126 1    
    25   12   13 ar   
    26   12  137 1    
    27   13   14 ar   
    28   13   15 1    
    29   14  138 1    
    30   15   16 1    
    31   15  139 1    
    32   15  140 1    
    33   16   17 1    
    34   17   18 1    
    35   17  141 1    
    36   17  142 1    
    37   18   19 1    
    38   18   67 1    
    39   18  143 1    
    40   19   20 am   BACKBONE|DICT|INTERRES
    41   19  144 1    
    42   20   21 2    
    43   20   22 1    
    44   22   23 1    
    45   22   24 1    
    46   22  145 1    
    47   23  146 1    
    48   23  147 1    
    49   23  148 1    
    50   24   25 am   BACKBONE|DICT|INTERRES
    51   24  149 1    
    52   25   26 2    
    53   25   27 1    
    54   27   28 1    
    55   27   29 1    
    56   27  150 1    
    57   28  151 1    
    58   28  152 1    
    59   28  153 1    
    60   29   30 am   BACKBONE|DICT|INTERRES
    61   29  154 1    
    62   30   31 2    
    63   30   32 1    
    64   32   33 1    
    65   32   34 1    
    66   32  155 1    
    67   33  156 1    
    68   33  157 1    
    69   33  158 1    
    70   34   35 am   BACKBONE|DICT|INTERRES
    71   34  159 1    
    72   35   36 2    
    73   35   37 1    
    74   37   38 1    
    75   37   39 1    
    76   37  160 1    
    77   38  161 1    
    78   38  162 1    
    79   38  163 1    
    80   39   40 am   BACKBONE|DICT|INTERRES
    81   39  164 1    
    82   40   41 2    
    83   40   42 1    
    84   42   43 1    
    85   42   44 1    
    86   42  165 1    
    87   43  166 1    
    88   43  167 1    
    89   43  168 1    
    90   44   45 am   BACKBONE|DICT|INTERRES
    91   44  169 1    
    92   45   46 2    
    93   45   47 1    
    94   47   48 1    
    95   47   49 1    
    96   47  170 1    
    97   48  171 1    
    98   48  172 1    
    99   48  173 1    
   100   49   50 am   BACKBONE|DICT|INTERRES
   101   49  174 1    
   102   50   51 2    
   103   50   52 1    
   104   52   53 1    
   105   52   54 1    
   106   52  175 1    
   107   53  176 1    
   108   53  177 1    
   109   53  178 1    
   110   54   55 am   BACKBONE|DICT|INTERRES
   111   54  179 1    
   112   55   56 2    
   113   55   57 1    
   114   57   58 1    
   115   57   59 1    
   116   57  180 1    
   117   58  181 1    
   118   58  182 1    
   119   58  183 1    
   120   59   60 am   BACKBONE|DICT|INTERRES
   121   59  184 1    
   122   60   61 2    
   123   60   62 1    
   124   62   63 1    
   125   62   64 1    
   126   62  185 1    
   127   63  186 1    
   128   63  187 1    
   129   63  188 1    
   130   64   65 am   BACKBONE|DICT|INTERRES
   131   64  189 1    
   132   65   66 2    
   133   67   68 2    
   134   67   69 am   BACKBONE|DICT|INTERRES
   135   69   70 1    
   136   69  190 1    
   137   70   71 1    
   138   70   72 1    
   139   70  191 1    
   140   71  192 1    
   141   71  193 1    
   142   71  194 1    
   143   72   73 2    
   144   72   74 am   BACKBONE|DICT|INTERRES
   145   74   75 1    
   146   74  195 1    
   147   75   76 1    
   148   75   77 1    
   149   75  196 1    
   150   76  197 1    
   151   76  198 1    
   152   76  199 1    
   153   77   78 2    
   154   77   79 am   BACKBONE|DICT|INTERRES
   155   79   80 1    
   156   79  200 1    
   157   80   81 1    
   158   80   82 1    
   159   80  201 1    
   160   81  202 1    
   161   81  203 1    
   162   81  204 1    
   163   82   83 2    
   164   82   84 am   BACKBONE|DICT|INTERRES
   165   84   85 1    
   166   84  205 1    
   167   85   86 1    
   168   85   87 1    
   169   85  206 1    
   170   86  207 1    
   171   86  208 1    
   172   86  209 1    
   173   87   88 2    
   174   87   89 am   BACKBONE|DICT|INTERRES
   175   89   90 1    
   176   89  210 1    
   177   90   91 1    
   178   90   92 1    
   179   90  211 1    
   180   91  212 1    
   181   91  213 1    
   182   91  214 1    
   183   92   93 2    
   184   92   94 am   BACKBONE|DICT|INTERRES
   185   94   95 1    
   186   94  215 1    
   187   95   96 1    
   188   95   97 1    
   189   95  216 1    
   190   96  217 1    
   191   96  218 1    
   192   96  219 1    
   193   97   98 2    
   194   97   99 am   BACKBONE|DICT|INTERRES
   195   99  100 1    
   196   99  220 1    
   197  100  101 1    
   198  100  102 1    
   199  100  221 1    
   200  101  222 1    
   201  101  223 1    
   202  101  224 1    
   203  102  103 2    
   204  102  104 am   BACKBONE|DICT|INTERRES
   205  104  105 1    
   206  104  225 1    
   207  105  106 1    
   208  105  107 1    
   209  105  226 1    
   210  106  227 1    
   211  106  228 1    
   212  106  229 1    
   213  107  108 2    
   214  107  109 am   BACKBONE|DICT|INTERRES
   215  109  110 1    
   216  109  230 1    
   217  110  111 1    
   218  110  112 1    
   219  110  231 1    
   220  111  232 1    
   221  111  233 1    
   222  111  234 1    
   223  112  113 2    
   224  112  114 am   BACKBONE|DICT|INTERRES
   225  114  115 1    
   226  114  235 1    
   227  115  116 1    
   228  115  117 1    
   229  115  236 1    
   230  116  237 1    
   231  116  238 1    
   232  116  239 1    
   233  117  118 2    
   234  117  119 am   BACKBONE|DICT|INTERRES
   235  119  120 1    
   236  119  240 1    
   237  120  121 1    
   238  120  124 1    
   239  120  241 1    
   240  121  122 am   BACKBONE|DICT|INTERRES
   241  121  123 2    
   242  122  242 1    
   243  122  243 1    
   244  124  125 1    
   245  124  244 1    
   246  124  245 1    
   247  125  126 1    
   248  126  246 1    
   249  126  247 1    
@<TRIPOS>SUBSTRUCTURE
     1 UNK         1 GROUP             0       ****    0 ROOT    
