@<TRIPOS>MOLECULE
3R540
247   249    1
SMALL
USER_CHARGES


@<TRIPOS>ATOM
      1 CA         -2.8443  -12.5962  -49.8675 C.3       0 UNK        -0.1800 
      2 C          -1.3277  -12.5144  -49.7809 C.2       0 UNK         0.5000 
      3 O          -0.7356  -11.5546  -50.2743 O.2       0 UNK        -0.5000 
      4 N          -0.6996  -13.5140  -49.1484 N.am      1 UNK        -0.5000 
      5 CA          0.7558  -13.6088  -48.9667 C.3       1 UNK         0.1400 
      6 C6          1.1972  -15.0464  -48.5994 C.3       23 UNK        -0.0398 
      7 S7          0.9873  -16.2120  -49.9872 S.3       23 UNK        -0.2404 
      8 C8         -0.2618  -17.3714  -49.3457 C.3       23 UNK        -0.0205 
      9 C9         -1.6743  -16.8194  -49.4406 C.ar      23 UNK        -0.0193 
     10 C10        -2.2745  -16.6522  -50.6912 C.ar      23 UNK        -0.1150 
     11 C11        -3.5832  -16.1736  -50.7934 C.ar      23 UNK        -0.0193 
     12 C12        -4.2980  -15.8782  -49.6300 C.ar      23 UNK        -0.1150 
     13 C13        -3.7149  -16.0562  -48.3727 C.ar      23 UNK        -0.0193 
     14 C14        -2.3956  -16.5108  -48.2839 C.ar      23 UNK        -0.1150 
     15 C15        -4.5213  -15.7631  -47.1178 C.3       23 UNK        -0.0205 
     16 S16        -5.4097  -17.2446  -46.5348 S.3       23 UNK        -0.2404 
     17 C17        -4.0796  -18.1589  -45.6870 C.3       23 UNK        -0.0398 
     18 CA         -3.6037  -19.4224  -46.4552 C.3       11 UNK         0.1400 
     19 N          -2.1810  -19.6971  -46.2230 N.am      11 UNK        -0.5000 
     20 C          -1.4564  -20.6602  -46.8088 C.2       10 UNK         0.5000 
     21 O          -1.8941  -21.4031  -47.6853 O.2       10 UNK        -0.5000 
     22 CA         -0.0193  -20.8736  -46.2890 C.3       10 UNK         0.1400 
     23 CB          0.9904  -19.9785  -47.0179 C.3       10 UNK        -0.1800 
     24 N           0.1063  -20.6797  -44.8437 N.am      10 UNK        -0.5000 
     25 C          -0.4839  -21.4589  -43.9265 C.2       9 UNK         0.5000 
     26 O          -1.1615  -22.4469  -44.2066 O.2       9 UNK        -0.5000 
     27 CA         -0.3421  -21.0331  -42.4544 C.3       9 UNK         0.1400 
     28 CB          1.0329  -21.4295  -41.8969 C.3       9 UNK        -0.1800 
     29 N          -0.5574  -19.5985  -42.2665 N.am      9 UNK        -0.5000 
     30 C          -1.7100  -18.9641  -42.5254 C.2       8 UNK         0.5000 
     31 O          -2.7378  -19.5347  -42.8939 O.2       8 UNK        -0.5000 
     32 CA         -1.6933  -17.4275  -42.4143 C.3       8 UNK         0.1400 
     33 CB         -1.8354  -16.9817  -40.9522 C.3       8 UNK        -0.1800 
     34 N          -0.4918  -16.8291  -43.0027 N.am      8 UNK        -0.5000 
     35 C          -0.1497  -16.9415  -44.2937 C.2       7 UNK         0.5000 
     36 O          -0.8227  -17.5347  -45.1299 O.2       7 UNK        -0.5000 
     37 CA          1.1834  -16.3273  -44.7327 C.3       7 UNK         0.1400 
     38 CB          1.0251  -14.8273  -44.9833 C.3       7 UNK        -0.1800 
     39 N           2.2585  -16.5801  -43.7779 N.am      7 UNK        -0.5000 
     40 C           2.7512  -17.7997  -43.5193 C.2       6 UNK         0.5000 
     41 O           2.4019  -18.8213  -44.1123 O.2       6 UNK        -0.5000 
     42 CA          3.7526  -17.8982  -42.3571 C.3       6 UNK         0.1400 
     43 CB          5.1626  -17.4838  -42.8036 C.3       6 UNK        -0.1800 
     44 N           3.3321  -17.0873  -41.2131 N.am      6 UNK        -0.5000 
     45 C           2.2557  -17.3595  -40.4610 C.2       5 UNK         0.5000 
     46 O           1.5368  -18.3441  -40.6315 O.2       5 UNK        -0.5000 
     47 CA          1.8985  -16.3531  -39.3526 C.3       5 UNK         0.1400 
     48 CB          2.5971  -16.7320  -38.0384 C.3       5 UNK        -0.1800 
     49 N           2.2233  -14.9660  -39.6874 N.am      5 UNK        -0.5000 
     50 C           1.6736  -14.2578  -40.6840 C.2       4 UNK         0.5000 
     51 O           0.8321  -14.7188  -41.4575 O.2       4 UNK        -0.5000 
     52 CA          2.1290  -12.7879  -40.8394 C.3       4 UNK         0.1400 
     53 CB          3.2491  -12.3725  -39.8590 C.3       4 UNK        -0.1800 
     54 N           2.5279  -12.4284  -42.2041 N.am      4 UNK        -0.5000 
     55 C           3.3982  -13.0570  -43.0036 C.2       3 UNK         0.5000 
     56 O           3.8828  -14.1615  -42.7465 O.2       3 UNK        -0.5000 
     57 CA          3.8018  -12.3139  -44.3013 C.3       3 UNK         0.1400 
     58 CB          4.8535  -13.0930  -45.1125 C.3       3 UNK        -0.1800 
     59 N           2.6879  -11.9882  -45.1976 N.am      3 UNK        -0.5000 
     60 C           1.6922  -11.1189  -44.9968 C.2       2 UNK         0.5000 
     61 O           1.5731  -10.4594  -43.9630 O.2       2 UNK        -0.5000 
     62 CA          0.6443  -10.9375  -46.1199 C.3       2 UNK         0.1400 
     63 CB          0.9083   -9.6315  -46.8930 C.3       2 UNK        -0.1800 
     64 N           0.4525  -12.0570  -47.0610 N.am      2 UNK        -0.5000 
     65 C           1.3105  -12.5777  -47.9540 C.2       1 UNK         0.5000 
     66 O           2.5028  -12.2771  -48.0058 O.2       1 UNK        -0.5000 
     67 C          -4.4820  -20.6409  -46.1015 C.2       11 UNK         0.5000 
     68 O          -5.3544  -21.0171  -46.8849 O.2       11 UNK        -0.5000 
     69 N          -4.2135  -21.2441  -44.9336 N.am      12 UNK        -0.5000 
     70 CA         -4.8889  -22.4446  -44.4425 C.3       12 UNK         0.1400 
     71 CB         -4.5522  -22.6443  -42.9568 C.3       12 UNK        -0.1800 
     72 C          -4.5389  -23.7020  -45.2604 C.2       12 UNK         0.5000 
     73 O          -5.4259  -24.5105  -45.5370 O.2       12 UNK        -0.5000 
     74 N          -3.2598  -23.8397  -45.6357 N.am      13 UNK        -0.5000 
     75 CA         -2.7401  -24.9278  -46.4655 C.3       13 UNK         0.1400 
     76 CB         -1.2062  -24.8763  -46.4493 C.3       13 UNK        -0.1800 
     77 C          -3.2694  -24.8919  -47.9115 C.2       13 UNK         0.5000 
     78 O          -3.5369  -25.9510  -48.4821 O.2       13 UNK        -0.5000 
     79 N          -3.4141  -23.6796  -48.4677 N.am      14 UNK        -0.5000 
     80 CA         -3.9262  -23.3613  -49.8011 C.3       14 UNK         0.1400 
     81 CB         -5.4515  -23.5917  -49.8608 C.3       14 UNK        -0.1800 
     82 C          -3.1360  -24.1019  -50.8949 C.2       14 UNK         0.5000 
     83 O          -1.9742  -23.7662  -51.1279 O.2       14 UNK        -0.5000 
     84 N          -3.7468  -25.1174  -51.5203 N.am      15 UNK        -0.5000 
     85 CA         -3.1418  -25.9641  -52.5502 C.3       15 UNK         0.1400 
     86 CB         -4.1897  -26.9603  -53.0667 C.3       15 UNK        -0.1800 
     87 C          -1.8701  -26.7022  -52.0916 C.2       15 UNK         0.5000 
     88 O          -0.9683  -26.9001  -52.9056 O.2       15 UNK        -0.5000 
     89 N          -1.7804  -27.0357  -50.7955 N.am      16 UNK        -0.5000 
     90 CA         -0.5910  -27.6400  -50.1870 C.3       16 UNK         0.1400 
     91 CB         -0.9703  -28.2720  -48.8392 C.3       16 UNK        -0.1800 
     92 C           0.5933  -26.6584  -50.0414 C.2       16 UNK         0.5000 
     93 O           1.7266  -27.1097  -49.8750 O.2       16 UNK        -0.5000 
     94 N           0.3241  -25.3489  -50.1410 N.am      17 UNK        -0.5000 
     95 CA          1.3182  -24.2749  -50.2067 C.3       17 UNK         0.1400 
     96 CB          0.9463  -23.1944  -49.1770 C.3       17 UNK        -0.1800 
     97 C           1.4290  -23.6872  -51.6309 C.2       17 UNK         0.5000 
     98 O           2.0460  -22.6355  -51.8024 O.2       17 UNK        -0.5000 
     99 N           0.8295  -24.3662  -52.6233 N.am      18 UNK        -0.5000 
    100 CA         0.7516  -24.0035  -54.0436 C.3       18 UNK         0.1400 
    101 CB         2.1537  -23.9657  -54.6870 C.3       18 UNK        -0.1800 
    102 C         -0.0730  -22.7277  -54.3285 C.2       18 UNK         0.5000 
    103 O          0.0768  -22.1308  -55.3953 O.2       18 UNK        -0.5000 
    104 N         -0.9625  -22.3550  -53.4002 N.am      19 UNK        -0.5000 
    105 CA        -1.8969  -21.2354  -53.5053 C.3       19 UNK         0.1400 
    106 CB        -1.7551  -20.3492  -52.2523 C.3       19 UNK        -0.1800 
    107 C         -3.3262  -21.7792  -53.6884 C.2       19 UNK         0.5000 
    108 O         -4.2472  -21.3452  -52.9943 O.2       19 UNK        -0.5000 
    109 N         -3.4802  -22.7532  -54.5987 N.am      20 UNK        -0.5000 
    110 CA        -4.7240  -23.4607  -54.9147 C.3       20 UNK         0.1400 
    111 CB        -4.4341  -24.5317  -55.9797 C.3       20 UNK        -0.1800 
    112 C         -5.8301  -22.4958  -55.3769 C.2       20 UNK         0.5000 
    113 O         -5.7756  -21.9993  -56.5046 O.2       20 UNK        -0.5000 
    114 N         -6.7578  -22.1854  -54.4585 N.am      21 UNK        -0.5000 
    115 CA        -7.8233  -21.1795  -54.5764 C.3       21 UNK         0.1400 
    116 CB        -8.8985  -21.6555  -55.5752 C.3       21 UNK        -0.1800 
    117 C         -7.2987  -19.7602  -54.9009 C.2       21 UNK         0.5000 
    118 O         -8.0224  -18.9618  -55.4988 O.2       21 UNK        -0.5000 
    119 N         -6.0385  -19.4887  -54.5293 N.am      22 UNK        -0.5000 
    120 CA        -5.2536  -18.2990  -54.9015 C.3       22 UNK         0.1400 
    121 C         -4.9841  -18.1532  -56.4331 C.2       22 UNK         0.5000 
    122 N         -5.0976  -19.2078  -57.2335 N.am      22 UNK        -0.7600 
    123 O         -4.6291  -17.0771  -56.9065 O.2       22 UNK        -0.5000 
    124 C124       -5.7848  -16.9962  -54.2409 C.3       23 UNK        -0.0398 
    125 S125       -5.6368  -17.0744  -52.4240 S.3       23 UNK        -0.2404 
    126 C126       -4.2174  -15.9663  -52.1594 C.3       23 UNK        -0.0205 
    127 H127       -3.2556  -13.2122  -49.0684 H         1 UNK         0.0600 
    128 H128       -3.1439  -13.0242  -50.8240 H         1 UNK         0.0600 
    129 H129       -3.2842  -11.6024  -49.7832 H         1 UNK         0.0600 
    130 H130       -1.2389  -14.3014  -48.8166 H         1 UNK         0.3000 
    131 H131        1.2199  -13.3586  -49.9235 H         1 UNK         0.0600 
    132 H132        2.2537  -15.0708  -48.3250 H         1 UNK         0.0800 
    133 H133        0.6483  -15.4085  -47.7314 H         1 UNK         0.0800 
    134 H134       -0.2077  -18.2995  -49.9166 H         1 UNK         0.0800 
    135 H135       -0.0216  -17.6315  -48.3163 H         1 UNK         0.0800 
    136 H136       -1.7155  -16.8932  -51.5845 H         1 UNK         0.1150 
    137 H137       -5.3154  -15.5205  -49.7057 H         1 UNK         0.1150 
    138 H138       -1.9393  -16.6497  -47.3148 H         1 UNK         0.1150 
    139 H139       -3.8779  -15.3690  -46.3297 H         1 UNK         0.0800 
    140 H140       -5.2516  -14.9798  -47.3261 H         1 UNK         0.0800 
    141 H141       -4.4168  -18.4010  -44.6777 H         1 UNK         0.0800 
    142 H142       -3.2544  -17.4678  -45.5392 H         1 UNK         0.0800 
    143 H143       -3.7042  -19.2397  -47.5274 H         1 UNK         0.0600 
    144 H144       -1.7054  -19.0750  -45.5739 H         1 UNK         0.3000 
    145 H145        0.2505  -21.9078  -46.5043 H         1 UNK         0.0600 
    146 H146        2.0127  -20.2825  -46.7929 H         1 UNK         0.0600 
    147 H147        0.8871  -18.9366  -46.7205 H         1 UNK         0.0600 
    148 H148        0.8638  -20.0375  -48.0996 H         1 UNK         0.0600 
    149 H149        0.6764  -19.8997  -44.5342 H         1 UNK         0.3000 
    150 H150       -1.1061  -21.5626  -41.8815 H         1 UNK         0.0600 
    151 H151        1.2097  -22.4991  -42.0169 H         1 UNK         0.0600 
    152 H152        1.1049  -21.2048  -40.8326 H         1 UNK         0.0600 
    153 H153        1.8419  -20.9028  -42.4037 H         1 UNK         0.0600 
    154 H154        0.2317  -19.0612  -41.9194 H         1 UNK         0.3000 
    155 H155       -2.5534  -17.0460  -42.9682 H         1 UNK         0.0600 
    156 H156       -2.7721  -17.3428  -40.5260 H         1 UNK         0.0600 
    157 H157       -1.8354  -15.8948  -40.8674 H         1 UNK         0.0600 
    158 H158       -1.0261  -17.3675  -40.3334 H         1 UNK         0.0600 
    159 H159        0.0924  -16.2658  -42.3914 H         1 UNK         0.3000 
    160 H160        1.4606  -16.7940  -45.6801 H         1 UNK         0.0600 
    161 H161        0.9149  -14.2651  -44.0571 H         1 UNK         0.0600 
    162 H162        0.1455  -14.6157  -45.5916 H         1 UNK         0.0600 
    163 H163        1.8936  -14.4515  -45.5187 H         1 UNK         0.0600 
    164 H164        2.6018  -15.7915  -43.2413 H         1 UNK         0.3000 
    165 H165        3.7919  -18.9422  -42.0384 H         1 UNK         0.0600 
    166 H166        5.8827  -17.6008  -41.9936 H         1 UNK         0.0600 
    167 H167        5.5042  -18.1030  -43.6340 H         1 UNK         0.0600 
    168 H168        5.1965  -16.4458  -43.1350 H         1 UNK         0.0600 
    169 H169        3.8411  -16.2306  -41.0463 H         1 UNK         0.3000 
    170 H170        0.8208  -16.4092  -39.1904 H         1 UNK         0.0600 
    171 H171        3.6823  -16.6641  -38.1247 H         1 UNK         0.0600 
    172 H172        2.2828  -16.0814  -37.2220 H         1 UNK         0.0600 
    173 H173        2.3541  -17.7552  -37.7482 H         1 UNK         0.0600 
    174 H174        2.9115  -14.5129  -39.1041 H         1 UNK         0.3000 
    175 H175        1.2511  -12.1818  -40.6120 H         1 UNK         0.0600 
    176 H176        4.1633  -12.9461  -40.0185 H         1 UNK         0.0600 
    177 H177        3.4995  -11.3185  -39.9812 H         1 UNK         0.0600 
    178 H178        2.9426  -12.5030  -38.8204 H         1 UNK         0.0600 
    179 H179        2.1246  -11.5690  -42.5694 H         1 UNK         0.3000 
    180 H180        4.2592  -11.3728  -43.9899 H         1 UNK         0.0600 
    181 H181        5.1857  -12.5221  -45.9799 H         1 UNK         0.0600 
    182 H182        4.4604  -14.0459  -45.4693 H         1 UNK         0.0600 
    183 H183        5.7371  -13.3064  -44.5095 H         1 UNK         0.0600 
    184 H184        2.7288  -12.4030  -46.1227 H         1 UNK         0.3000 
    185 H185       -0.3145  -10.8239  -45.6118 H         1 UNK         0.0600 
    186 H186        0.1228   -9.4410  -47.6245 H         1 UNK         0.0600 
    187 H187        0.9375   -8.7752  -46.2179 H         1 UNK         0.0600 
    188 H188        1.8605   -9.6601  -47.4237 H         1 UNK         0.0600 
    189 H189       -0.4939  -12.4078  -47.1001 H         1 UNK         0.3000 
    190 H190       -3.4975  -20.8470  -44.3343 H         1 UNK         0.3000 
    191 H191       -5.9656  -22.2831  -44.5260 H         1 UNK         0.0600 
    192 H192       -4.8589  -21.7820  -42.3644 H         1 UNK         0.0600 
    193 H193       -3.4833  -22.7919  -42.8005 H         1 UNK         0.0600 
    194 H194       -5.0672  -23.5171  -42.5536 H         1 UNK         0.0600 
    195 H195       -2.5801  -23.1646  -45.2965 H         1 UNK         0.3000 
    196 H196       -3.0552  -25.8742  -46.0215 H         1 UNK         0.0600 
    197 H197       -0.8173  -25.0236  -45.4416 H         1 UNK         0.0600 
    198 H198       -0.8465  -23.9142  -46.8074 H         1 UNK         0.0600 
    199 H199       -0.7670  -25.6445  -47.0840 H         1 UNK         0.0600 
    200 H200       -3.0590  -22.8780  -47.9524 H         1 UNK         0.3000 
    201 H201       -3.7444  -22.2971  -49.9586 H         1 UNK         0.0600 
    202 H202       -5.9623  -22.9637  -49.1303 H         1 UNK         0.0600 
    203 H203       -5.7254  -24.6258  -49.6494 H         1 UNK         0.0600 
    204 H204       -5.8499  -23.3298  -50.8420 H         1 UNK         0.0600 
    205 H205       -4.6817  -25.3613  -51.2274 H         1 UNK         0.3000 
    206 H206       -2.8484  -25.3127  -53.3745 H         1 UNK         0.0600 
    207 H207       -4.5331  -27.6275  -52.2751 H         1 UNK         0.0600 
    208 H208       -5.0606  -26.4469  -53.4737 H         1 UNK         0.0600 
    209 H209       -3.7787  -27.5809  -53.8642 H         1 UNK         0.0600 
    210 H210       -2.5439  -26.7998  -50.1699 H         1 UNK         0.3000 
    211 H211       -0.2503  -28.4458  -50.8408 H         1 UNK         0.0600 
    212 H212       -1.3904  -27.5423  -48.1502 H         1 UNK         0.0600 
    213 H213       -0.1009  -28.7194  -48.3556 H         1 UNK         0.0600 
    214 H214       -1.7085  -29.0628  -48.9729 H         1 UNK         0.0600 
    215 H215       -0.6324  -25.0551  -50.3076 H         1 UNK         0.3000 
    216 H216        2.3089  -24.6545  -49.9503 H         1 UNK         0.0600 
    217 H217        1.6398  -22.3535  -49.2106 H         1 UNK         0.0600 
    218 H218        0.9888  -23.5981  -48.1668 H         1 UNK         0.0600 
    219 H219       -0.0571  -22.8015  -49.3458 H         1 UNK         0.0600 
    220 H220        0.3530  -25.2259  -52.3814 H         1 UNK         0.3000 
    221 H221        0.2020  -24.8160  -54.5209 H         1 UNK         0.0600 
    222 H222        2.7440  -23.1230  -54.3268 H         1 UNK         0.0600 
    223 H223        2.7089  -24.8798  -54.4768 H         1 UNK         0.0600 
    224 H224        2.0845  -23.8733  -55.7714 H         1 UNK         0.0600 
    225 H225       -1.0688  -22.9266  -52.5656 H         1 UNK         0.3000 
    226 H226       -1.6728  -20.6211  -54.3794 H         1 UNK         0.0600 
    227 H227       -0.7388  -19.9672  -52.1547 H         1 UNK         0.0600 
    228 H228       -2.4221  -19.4872  -52.3006 H         1 UNK         0.0600 
    229 H229       -1.9920  -20.8985  -51.3401 H         1 UNK         0.0600 
    230 H230       -2.6720  -23.0161  -55.1428 H         1 UNK         0.3000 
    231 H231       -5.0596  -23.9672  -54.0080 H         1 UNK         0.0600 
    232 H232       -5.3388  -25.0885  -56.2272 H         1 UNK         0.0600 
    233 H233       -3.6957  -25.2536  -55.6322 H         1 UNK         0.0600 
    234 H234       -4.0577  -24.0908  -56.9037 H         1 UNK         0.0600 
    235 H235       -6.6677  -22.6014  -53.5422 H         1 UNK         0.3000 
    236 H236       -8.2906  -21.1099  -53.5932 H         1 UNK         0.0600 
    237 H237       -9.2585  -22.6525  -55.3215 H         1 UNK         0.0600 
    238 H238       -9.7625  -20.9900  -55.5696 H         1 UNK         0.0600 
    239 H239       -8.5159  -21.6865  -56.5959 H         1 UNK         0.0600 
    240 H240       -5.5315  -20.1972  -54.0084 H         1 UNK         0.3000 
    241 H241       -4.2601  -18.4790  -54.4891 H         1 UNK         0.0600 
    242 H242       -5.3798  -20.1171  -56.8797 H         1 UNK         0.3800 
    243 H243       -4.9094  -19.0988  -58.2172 H         1 UNK         0.3800 
    244 H244       -6.8283  -16.8219  -54.5041 H         1 UNK         0.0800 
    245 H245       -5.2411  -16.1204  -54.5980 H         1 UNK         0.0800 
    246 H246       -3.4776  -16.1323  -52.9442 H         1 UNK         0.0800 
    247 H247       -4.5447  -14.9300  -52.2547 H         1 UNK         0.0800 
@<TRIPOS>BOND
     1    1    2 1    
     2    1  127 1    
     3    1  128 1    
     4    1  129 1    
     5    2    3 2    
     6    2    4 am   BACKBONE|DICT|INTERRES
     7    4    5 1    
     8    4  130 1    
     9    5    6 1    
    10    5   65 1    
    11    5  131 1    
    12    6    7 1    
    13    6  132 1    
    14    6  133 1    
    15    7    8 1    
    16    8    9 1    
    17    8  134 1    
    18    8  135 1    
    19    9   10 ar   
    20    9   14 ar   
    21   10   11 ar   
    22   10  136 1    
    23   11   12 ar   
    24   11  126 1    
    25   12   13 ar   
    26   12  137 1    
    27   13   14 ar   
    28   13   15 1    
    29   14  138 1    
    30   15   16 1    
    31   15  139 1    
    32   15  140 1    
    33   16   17 1    
    34   17   18 1    
    35   17  141 1    
    36   17  142 1    
    37   18   19 1    
    38   18   67 1    
    39   18  143 1    
    40   19   20 am   BACKBONE|DICT|INTERRES
    41   19  144 1    
    42   20   21 2    
    43   20   22 1    
    44   22   23 1    
    45   22   24 1    
    46   22  145 1    
    47   23  146 1    
    48   23  147 1    
    49   23  148 1    
    50   24   25 am   BACKBONE|DICT|INTERRES
    51   24  149 1    
    52   25   26 2    
    53   25   27 1    
    54   27   28 1    
    55   27   29 1    
    56   27  150 1    
    57   28  151 1    
    58   28  152 1    
    59   28  153 1    
    60   29   30 am   BACKBONE|DICT|INTERRES
    61   29  154 1    
    62   30   31 2    
    63   30   32 1    
    64   32   33 1    
    65   32   34 1    
    66   32  155 1    
    67   33  156 1    
    68   33  157 1    
    69   33  158 1    
    70   34   35 am   BACKBONE|DICT|INTERRES
    71   34  159 1    
    72   35   36 2    
    73   35   37 1    
    74   37   38 1    
    75   37   39 1    
    76   37  160 1    
    77   38  161 1    
    78   38  162 1    
    79   38  163 1    
    80   39   40 am   BACKBONE|DICT|INTERRES
    81   39  164 1    
    82   40   41 2    
    83   40   42 1    
    84   42   43 1    
    85   42   44 1    
    86   42  165 1    
    87   43  166 1    
    88   43  167 1    
    89   43  168 1    
    90   44   45 am   BACKBONE|DICT|INTERRES
    91   44  169 1    
    92   45   46 2    
    93   45   47 1    
    94   47   48 1    
    95   47   49 1    
    96   47  170 1    
    97   48  171 1    
    98   48  172 1    
    99   48  173 1    
   100   49   50 am   BACKBONE|DICT|INTERRES
   101   49  174 1    
   102   50   51 2    
   103   50   52 1    
   104   52   53 1    
   105   52   54 1    
   106   52  175 1    
   107   53  176 1    
   108   53  177 1    
   109   53  178 1    
   110   54   55 am   BACKBONE|DICT|INTERRES
   111   54  179 1    
   112   55   56 2    
   113   55   57 1    
   114   57   58 1    
   115   57   59 1    
   116   57  180 1    
   117   58  181 1    
   118   58  182 1    
   119   58  183 1    
   120   59   60 am   BACKBONE|DICT|INTERRES
   121   59  184 1    
   122   60   61 2    
   123   60   62 1    
   124   62   63 1    
   125   62   64 1    
   126   62  185 1    
   127   63  186 1    
   128   63  187 1    
   129   63  188 1    
   130   64   65 am   BACKBONE|DICT|INTERRES
   131   64  189 1    
   132   65   66 2    
   133   67   68 2    
   134   67   69 am   BACKBONE|DICT|INTERRES
   135   69   70 1    
   136   69  190 1    
   137   70   71 1    
   138   70   72 1    
   139   70  191 1    
   140   71  192 1    
   141   71  193 1    
   142   71  194 1    
   143   72   73 2    
   144   72   74 am   BACKBONE|DICT|INTERRES
   145   74   75 1    
   146   74  195 1    
   147   75   76 1    
   148   75   77 1    
   149   75  196 1    
   150   76  197 1    
   151   76  198 1    
   152   76  199 1    
   153   77   78 2    
   154   77   79 am   BACKBONE|DICT|INTERRES
   155   79   80 1    
   156   79  200 1    
   157   80   81 1    
   158   80   82 1    
   159   80  201 1    
   160   81  202 1    
   161   81  203 1    
   162   81  204 1    
   163   82   83 2    
   164   82   84 am   BACKBONE|DICT|INTERRES
   165   84   85 1    
   166   84  205 1    
   167   85   86 1    
   168   85   87 1    
   169   85  206 1    
   170   86  207 1    
   171   86  208 1    
   172   86  209 1    
   173   87   88 2    
   174   87   89 am   BACKBONE|DICT|INTERRES
   175   89   90 1    
   176   89  210 1    
   177   90   91 1    
   178   90   92 1    
   179   90  211 1    
   180   91  212 1    
   181   91  213 1    
   182   91  214 1    
   183   92   93 2    
   184   92   94 am   BACKBONE|DICT|INTERRES
   185   94   95 1    
   186   94  215 1    
   187   95   96 1    
   188   95   97 1    
   189   95  216 1    
   190   96  217 1    
   191   96  218 1    
   192   96  219 1    
   193   97   98 2    
   194   97   99 am   BACKBONE|DICT|INTERRES
   195   99  100 1    
   196   99  220 1    
   197  100  101 1    
   198  100  102 1    
   199  100  221 1    
   200  101  222 1    
   201  101  223 1    
   202  101  224 1    
   203  102  103 2    
   204  102  104 am   BACKBONE|DICT|INTERRES
   205  104  105 1    
   206  104  225 1    
   207  105  106 1    
   208  105  107 1    
   209  105  226 1    
   210  106  227 1    
   211  106  228 1    
   212  106  229 1    
   213  107  108 2    
   214  107  109 am   BACKBONE|DICT|INTERRES
   215  109  110 1    
   216  109  230 1    
   217  110  111 1    
   218  110  112 1    
   219  110  231 1    
   220  111  232 1    
   221  111  233 1    
   222  111  234 1    
   223  112  113 2    
   224  112  114 am   BACKBONE|DICT|INTERRES
   225  114  115 1    
   226  114  235 1    
   227  115  116 1    
   228  115  117 1    
   229  115  236 1    
   230  116  237 1    
   231  116  238 1    
   232  116  239 1    
   233  117  118 2    
   234  117  119 am   BACKBONE|DICT|INTERRES
   235  119  120 1    
   236  119  240 1    
   237  120  121 1    
   238  120  124 1    
   239  120  241 1    
   240  121  122 am   BACKBONE|DICT|INTERRES
   241  121  123 2    
   242  122  242 1    
   243  122  243 1    
   244  124  125 1    
   245  124  244 1    
   246  124  245 1    
   247  125  126 1    
   248  126  246 1    
   249  126  247 1    
@<TRIPOS>SUBSTRUCTURE
     1 UNK         1 GROUP             0       ****    0 ROOT    
