@<TRIPOS>MOLECULE
3R540
247   249    1
SMALL
USER_CHARGES


@<TRIPOS>ATOM
      1 CA          3.2803  -11.3654  -44.7575 C.3       0 UNK        -0.1800 
      2 C           2.6287  -12.7458  -44.7402 C.2       0 UNK         0.5000 
      3 O           2.0004  -13.0957  -43.7448 O.2       0 UNK        -0.5000 
      4 N           2.7225  -13.5566  -45.8062 N.am      1 UNK        -0.5000 
      5 CA          3.4481  -13.2924  -47.0563 C.3       1 UNK         0.1400 
      6 C6          3.0231  -14.2407  -48.2045 C.3       23 UNK        -0.0398 
      7 S7          1.2703  -14.0434  -48.6687 S.3       23 UNK        -0.2404 
      8 C8          0.6981  -15.7693  -48.6468 C.3       23 UNK        -0.0205 
      9 C9         -0.7000  -15.8882  -49.2297 C.ar      23 UNK        -0.0193 
     10 C10        -0.8801  -16.2127  -50.5781 C.ar      23 UNK        -0.1150 
     11 C11        -2.1652  -16.3194  -51.1214 C.ar      23 UNK        -0.0193 
     12 C12        -3.2736  -16.1038  -50.2962 C.ar      23 UNK        -0.1150 
     13 C13        -3.1059  -15.7980  -48.9433 C.ar      23 UNK        -0.0193 
     14 C14        -1.8164  -15.6757  -48.4185 C.ar      23 UNK        -0.1150 
     15 C15        -4.3205  -15.6309  -48.0455 C.3       23 UNK        -0.0205 
     16 S16        -4.9660  -17.2468  -47.5057 S.3       23 UNK        -0.2404 
     17 C17        -3.6034  -17.8504  -46.4507 C.3       23 UNK        -0.0398 
     18 CA         -2.6402  -18.8284  -47.1708 C.3       11 UNK         0.1400 
     19 N          -1.3532  -18.9568  -46.4744 N.am      11 UNK        -0.5000 
     20 C          -0.2689  -19.5297  -47.0209 C.2       10 UNK         0.5000 
     21 O          -0.2395  -19.9510  -48.1748 O.2       10 UNK        -0.5000 
     22 CA          0.9808  -19.7230  -46.1434 C.3       10 UNK         0.1400 
     23 CB          2.0001  -18.5921  -46.3514 C.3       10 UNK        -0.1800 
     24 N           0.7003  -19.8941  -44.7182 N.am      10 UNK        -0.5000 
     25 C           0.0720  -20.9584  -44.1969 C.2       9 UNK         0.5000 
     26 O          -0.4457  -21.8405  -44.8834 O.2       9 UNK        -0.5000 
     27 CA          0.0103  -21.0552  -42.6633 C.3       9 UNK         0.1400 
     28 CB          1.3521  -21.5528  -42.1042 C.3       9 UNK        -0.1800 
     29 N          -0.3038  -19.7567  -42.0712 N.am      9 UNK        -0.5000 
     30 C          -1.4545  -19.4510  -41.4557 C.2       8 UNK         0.5000 
     31 O          -2.3379  -20.2720  -41.2052 O.2       8 UNK        -0.5000 
     32 CA         -1.6790  -17.9687  -41.0799 C.3       8 UNK         0.1400 
     33 CB         -1.2605  -17.7156  -39.6240 C.3       8 UNK        -0.1800 
     34 N          -0.9791  -17.0177  -41.9495 N.am      8 UNK        -0.5000 
     35 C          -1.1242  -16.9475  -43.2818 C.2       7 UNK         0.5000 
     36 O          -1.9186  -17.6409  -43.9132 O.2       7 UNK        -0.5000 
     37 CA         -0.1761  -16.0195  -44.0648 C.3       7 UNK         0.1400 
     38 CB         -0.8629  -14.6785  -44.3598 C.3       7 UNK        -0.1800 
     39 N           1.1159  -15.7768  -43.4156 N.am      7 UNK        -0.5000 
     40 C           1.9649  -16.7010  -42.9388 C.2       6 UNK         0.5000 
     41 O           1.8022  -17.9135  -43.0815 O.2       6 UNK        -0.5000 
     42 CA          3.1630  -16.1988  -42.1096 C.3       6 UNK         0.1400 
     43 CB          4.4214  -16.1430  -42.9842 C.3       6 UNK        -0.1800 
     44 N           2.9607  -14.8940  -41.4693 N.am      6 UNK        -0.5000 
     45 C           1.9619  -14.5768  -40.6287 C.2       5 UNK         0.5000 
     46 O           1.0882  -15.3745  -40.2816 O.2       5 UNK        -0.5000 
     47 CA          1.9457  -13.1333  -40.0948 C.3       5 UNK         0.1400 
     48 CB          1.0662  -12.9601  -38.8427 C.3       5 UNK        -0.1800 
     49 N           3.3105  -12.7124  -39.7965 N.am      5 UNK        -0.5000 
     50 C           3.8565  -11.5376  -40.1250 C.2       4 UNK         0.5000 
     51 O           3.2331  -10.6045  -40.6343 O.2       4 UNK        -0.5000 
     52 CA          5.3717  -11.3812  -39.8691 C.3       4 UNK         0.1400 
     53 CB          5.9820  -12.4933  -38.9851 C.3       4 UNK        -0.1800 
     54 N           6.1339  -11.2674  -41.1176 N.am      4 UNK        -0.5000 
     55 C           6.1106  -12.1093  -42.1626 C.2       3 UNK         0.5000 
     56 O           5.3715  -13.0956  -42.2302 O.2       3 UNK        -0.5000 
     57 CA          7.0625  -11.7529  -43.3275 C.3       3 UNK         0.1400 
     58 CB          8.5311  -11.6397  -42.8642 C.3       3 UNK        -0.1800 
     59 N           6.9469  -12.6611  -44.4748 N.am      3 UNK        -0.5000 
     60 C           7.2428  -13.9676  -44.5384 C.2       2 UNK         0.5000 
     61 O           7.7779  -14.6036  -43.6285 O.2       2 UNK        -0.5000 
     62 CA          6.8451  -14.6772  -45.8508 C.3       2 UNK         0.1400 
     63 CB          7.0880  -16.1971  -45.8091 C.3       2 UNK        -0.1800 
     64 N           5.4387  -14.4344  -46.1862 N.am      2 UNK        -0.5000 
     65 C           4.9725  -13.3662  -46.8461 C.2       1 UNK         0.5000 
     66 O           5.6881  -12.4422  -47.2327 O.2       1 UNK        -0.5000 
     67 C          -3.2880  -20.2075  -47.3980 C.2       11 UNK         0.5000 
     68 O          -3.7602  -20.4848  -48.4995 O.2       11 UNK        -0.5000 
     69 N          -3.2435  -21.0703  -46.3719 N.am      12 UNK        -0.5000 
     70 CA         -3.7267  -22.4486  -46.4424 C.3       12 UNK         0.1400 
     71 CB         -3.7582  -23.0630  -45.0351 C.3       12 UNK        -0.1800 
     72 C          -2.8879  -23.3061  -47.4052 C.2       12 UNK         0.5000 
     73 O          -3.4575  -24.0810  -48.1734 O.2       12 UNK        -0.5000 
     74 N          -1.5608  -23.1185  -47.3790 N.am      13 UNK        -0.5000 
     75 CA         -0.6141  -23.7772  -48.2794 C.3       13 UNK         0.1400 
     76 CB          0.8211  -23.5080  -47.8041 C.3       13 UNK        -0.1800 
     77 C          -0.7909  -23.3563  -49.7512 C.2       13 UNK         0.5000 
     78 O          -0.7626  -24.2180  -50.6298 O.2       13 UNK        -0.5000 
     79 N          -0.9826  -22.0512  -49.9939 N.am      14 UNK        -0.5000 
     80 CA         -1.2155  -21.4836  -51.3233 C.3       14 UNK         0.1400 
     81 CB         -1.0295  -19.9605  -51.2756 C.3       14 UNK        -0.1800 
     82 C          -2.5976  -21.8464  -51.8938 C.2       14 UNK         0.5000 
     83 O          -2.7187  -22.0474  -53.1032 O.2       14 UNK        -0.5000 
     84 N          -3.6135  -21.9394  -51.0245 N.am      15 UNK        -0.5000 
     85 CA         -4.9478  -22.4088  -51.3842 C.3       15 UNK         0.1400 
     86 CB         -5.9512  -22.0562  -50.2770 C.3       15 UNK        -0.1800 
     87 C          -4.9696  -23.9181  -51.6728 C.2       15 UNK         0.5000 
     88 O          -5.5782  -24.3314  -52.6615 O.2       15 UNK        -0.5000 
     89 N          -4.3202  -24.7042  -50.8016 N.am      16 UNK        -0.5000 
     90 CA         -4.2362  -26.1683  -50.8098 C.3       16 UNK         0.1400 
     91 CB         -3.3868  -26.6586  -51.9995 C.3       16 UNK        -0.1800 
     92 C          -5.6329  -26.8184  -50.7606 C.2       16 UNK         0.5000 
     93 O          -5.9608  -27.6486  -51.6074 O.2       16 UNK        -0.5000 
     94 N          -6.4642  -26.3587  -49.8120 N.am      17 UNK        -0.5000 
     95 CA         -7.8869  -26.7033  -49.6567 C.3       17 UNK         0.1400 
     96 CB         -8.0525  -28.1784  -49.2347 C.3       17 UNK        -0.1800 
     97 C          -8.7309  -26.3321  -50.8994 C.2       17 UNK         0.5000 
     98 O          -9.6791  -27.0382  -51.2449 O.2       17 UNK        -0.5000 
     99 N          -8.3361  -25.2288  -51.5517 N.am      18 UNK        -0.5000 
    100 CA        -8.8564  -24.6640  -52.8007 C.3       18 UNK         0.1400 
    101 CB       -10.3541  -24.3132  -52.6830 C.3       18 UNK        -0.1800 
    102 C         -8.5358  -25.4972  -54.0613 C.2       18 UNK         0.5000 
    103 O         -9.0974  -25.2130  -55.1203 O.2       18 UNK        -0.5000 
    104 N         -7.6294  -26.4821  -53.9597 N.am      19 UNK        -0.5000 
    105 CA        -7.1583  -27.2691  -55.1017 C.3       19 UNK         0.1400 
    106 CB        -6.5591  -28.5962  -54.6131 C.3       19 UNK        -0.1800 
    107 C         -6.1339  -26.4999  -55.9556 C.2       19 UNK         0.5000 
    108 O         -6.1179  -26.6735  -57.1750 O.2       19 UNK        -0.5000 
    109 N         -5.3067  -25.6671  -55.3088 N.am      20 UNK        -0.5000 
    110 CA        -4.3283  -24.8000  -55.9663 C.3       20 UNK         0.1400 
    111 CB        -3.0264  -24.7763  -55.1520 C.3       20 UNK        -0.1800 
    112 C         -4.8884  -23.3810  -56.1450 C.2       20 UNK         0.5000 
    113 O         -4.6653  -22.7730  -57.1925 O.2       20 UNK        -0.5000 
    114 N         -5.6148  -22.8895  -55.1281 N.am      21 UNK        -0.5000 
    115 CA        -6.3452  -21.6159  -55.0868 C.3       21 UNK         0.1400 
    116 CB        -7.6101  -21.7161  -55.9634 C.3       21 UNK        -0.1800 
    117 C         -5.4789  -20.3805  -55.4262 C.2       21 UNK         0.5000 
    118 O         -5.9614  -19.4592  -56.0873 O.2       21 UNK        -0.5000 
    119 N         -4.2092  -20.3990  -54.9942 N.am      22 UNK        -0.5000 
    120 CA        -3.1642  -19.4085  -55.3143 C.3       22 UNK         0.1400 
    121 C         -2.7146  -19.3956  -56.8106 C.2       22 UNK         0.5000 
    122 N         -3.0744  -20.3731  -57.6344 N.am      22 UNK        -0.7600 
    123 O         -1.9894  -18.4989  -57.2332 O.2       22 UNK        -0.5000 
    124 C124       -3.4791  -17.9824  -54.7751 C.3       23 UNK        -0.0398 
    125 S125       -3.5767  -17.9190  -52.9523 S.3       23 UNK        -0.2404 
    126 C126       -2.3420  -16.6193  -52.6060 C.3       23 UNK        -0.0205 
    127 H127        2.9363  -10.7788  -45.6088 H         1 UNK         0.0600 
    128 H128        4.3646  -11.4438  -44.7954 H         1 UNK         0.0600 
    129 H129        3.0231  -10.8164  -43.8512 H         1 UNK         0.0600 
    130 H130        2.2379  -14.4399  -45.7733 H         1 UNK         0.3000 
    131 H131        3.2148  -12.2753  -47.3770 H         1 UNK         0.0600 
    132 H132        3.6147  -14.0435  -49.1007 H         1 UNK         0.0800 
    133 H133        3.2188  -15.2804  -47.9362 H         1 UNK         0.0800 
    134 H134        0.7046  -16.1396  -47.6216 H         1 UNK         0.0800 
    135 H135        1.3909  -16.3961  -49.2108 H         1 UNK         0.0800 
    136 H136       -0.0155  -16.3694  -51.2077 H         1 UNK         0.1150 
    137 H137       -4.2713  -16.1879  -50.7038 H         1 UNK         0.1150 
    138 H138       -1.6786  -15.4299  -47.3753 H         1 UNK         0.1150 
    139 H139       -4.0796  -15.0184  -47.1752 H         1 UNK         0.0800 
    140 H140       -5.1045  -15.0984  -48.5859 H         1 UNK         0.0800 
    141 H141       -4.0284  -18.3070  -45.5551 H         1 UNK         0.0800 
    142 H142       -3.0517  -16.9794  -46.0994 H         1 UNK         0.0800 
    143 H143       -2.4217  -18.4206  -48.1596 H         1 UNK         0.0600 
    144 H144       -1.3328  -18.6507  -45.5072 H         1 UNK         0.3000 
    145 H145        1.4596  -20.6431  -46.4821 H         1 UNK         0.0600 
    146 H146        2.9369  -18.8117  -45.8388 H         1 UNK         0.0600 
    147 H147        2.2327  -18.4652  -47.4096 H         1 UNK         0.0600 
    148 H148        1.6386  -17.6375  -45.9789 H         1 UNK         0.0600 
    149 H149        1.1190  -19.2085  -44.0933 H         1 UNK         0.3000 
    150 H150       -0.7552  -21.7923  -42.4122 H         1 UNK         0.0600 
    151 H151        1.6235  -22.5160  -42.5381 H         1 UNK         0.0600 
    152 H152        1.3007  -21.6855  -41.0235 H         1 UNK         0.0600 
    153 H153        2.1630  -20.8546  -42.3166 H         1 UNK         0.0600 
    154 H154        0.3613  -19.0113  -42.2469 H         1 UNK         0.3000 
    155 H155       -2.7483  -17.7682  -41.1699 H         1 UNK         0.0600 
    156 H156       -0.1909  -17.8758  -39.4816 H         1 UNK         0.0600 
    157 H157       -1.7879  -18.3839  -38.9421 H         1 UNK         0.0600 
    158 H158       -1.4883  -16.6939  -39.3196 H         1 UNK         0.0600 
    159 H159       -0.2869  -16.4258  -41.5022 H         1 UNK         0.3000 
    160 H160        0.0171  -16.5034  -45.0208 H         1 UNK         0.0600 
    161 H161       -0.9979  -14.0897  -43.4517 H         1 UNK         0.0600 
    162 H162       -1.8472  -14.8282  -44.8057 H         1 UNK         0.0600 
    163 H163       -0.2805  -14.0831  -45.0628 H         1 UNK         0.0600 
    164 H164        1.3666  -14.7994  -43.2805 H         1 UNK         0.3000 
    165 H165        3.3297  -16.9289  -41.3156 H         1 UNK         0.0600 
    166 H166        5.3082  -15.9280  -42.3874 H         1 UNK         0.0600 
    167 H167        4.5930  -17.0938  -43.4904 H         1 UNK         0.0600 
    168 H168        4.3387  -15.3682  -43.7456 H         1 UNK         0.0600 
    169 H169        3.6258  -14.1695  -41.7236 H         1 UNK         0.3000 
    170 H170        1.5314  -12.5185  -40.8967 H         1 UNK         0.0600 
    171 H171        0.0303  -13.2312  -39.0496 H         1 UNK         0.0600 
    172 H172        1.4139  -13.5851  -38.0194 H         1 UNK         0.0600 
    173 H173        1.0674  -11.9247  -38.5017 H         1 UNK         0.0600 
    174 H174        3.9137  -13.4278  -39.4148 H         1 UNK         0.3000 
    175 H175        5.4938  -10.4353  -39.3394 H         1 UNK         0.0600 
    176 H176        5.9484  -13.4708  -39.4680 H         1 UNK         0.0600 
    177 H177        7.0266  -12.2777  -38.7603 H         1 UNK         0.0600 
    178 H178        5.4611  -12.5706  -38.0298 H         1 UNK         0.0600 
    179 H179        6.7345  -10.4574  -41.1760 H         1 UNK         0.3000 
    180 H180        6.7506  -10.7740  -43.6944 H         1 UNK         0.0600 
    181 H181        8.8715  -12.5475  -42.3652 H         1 UNK         0.0600 
    182 H182        8.6644  -10.8160  -42.1626 H         1 UNK         0.0600 
    183 H183        9.1968  -11.4513  -43.7065 H         1 UNK         0.0600 
    184 H184        6.5127  -12.2633  -45.2993 H         1 UNK         0.3000 
    185 H185        7.4789  -14.2672  -46.6401 H         1 UNK         0.0600 
    186 H186        8.1391  -16.4200  -45.6214 H         1 UNK         0.0600 
    187 H187        6.5053  -16.6795  -45.0244 H         1 UNK         0.0600 
    188 H188        6.8242  -16.6645  -46.7580 H         1 UNK         0.0600 
    189 H189        4.7792  -15.1186  -45.8486 H         1 UNK         0.3000 
    190 H190       -2.7832  -20.7928  -45.5173 H         1 UNK         0.3000 
    191 H191       -4.7498  -22.4265  -46.8237 H         1 UNK         0.0600 
    192 H192       -2.7645  -23.1136  -44.5899 H         1 UNK         0.0600 
    193 H193       -4.1549  -24.0786  -45.0641 H         1 UNK         0.0600 
    194 H194       -4.3957  -22.4845  -44.3664 H         1 UNK         0.0600 
    195 H195       -1.1733  -22.4966  -46.6772 H         1 UNK         0.3000 
    196 H196       -0.7937  -24.8526  -48.2168 H         1 UNK         0.0600 
    197 H197        1.5390  -24.0738  -48.3989 H         1 UNK         0.0600 
    198 H198        0.9565  -23.8007  -46.7626 H         1 UNK         0.0600 
    199 H199        1.0825  -22.4543  -47.8947 H         1 UNK         0.0600 
    200 H200       -0.9281  -21.3881  -49.2254 H         1 UNK         0.3000 
    201 H201       -0.4628  -21.8919  -52.0008 H         1 UNK         0.0600 
    202 H202       -0.0367  -19.6929  -50.9141 H         1 UNK         0.0600 
    203 H203       -1.7632  -19.4840  -50.6234 H         1 UNK         0.0600 
    204 H204       -1.1375  -19.5261  -52.2694 H         1 UNK         0.0600 
    205 H205       -3.4669  -21.6652  -50.0578 H         1 UNK         0.3000 
    206 H206       -5.2543  -21.8863  -52.2901 H         1 UNK         0.0600 
    207 H207       -5.9981  -20.9782  -50.1213 H         1 UNK         0.0600 
    208 H208       -6.9569  -22.3895  -50.5364 H         1 UNK         0.0600 
    209 H209       -5.6839  -22.5179  -49.3258 H         1 UNK         0.0600 
    210 H210       -3.8878  -24.2668  -49.9913 H         1 UNK         0.3000 
    211 H211       -3.7213  -26.4555  -49.8920 H         1 UNK         0.0600 
    212 H212       -3.8882  -26.4915  -52.9516 H         1 UNK         0.0600 
    213 H213       -3.1902  -27.7282  -51.9210 H         1 UNK         0.0600 
    214 H214       -2.4229  -26.1506  -52.0328 H         1 UNK         0.0600 
    215 H215       -6.1053  -25.6683  -49.1666 H         1 UNK         0.3000 
    216 H216       -8.2647  -26.0850  -48.8412 H         1 UNK         0.0600 
    217 H217       -9.0899  -28.3976  -48.9794 H         1 UNK         0.0600 
    218 H218       -7.4487  -28.4073  -48.3567 H         1 UNK         0.0600 
    219 H219       -7.7612  -28.8644  -50.0305 H         1 UNK         0.0600 
    220 H220       -7.5105  -24.7688  -51.1983 H         1 UNK         0.3000 
    221 H221       -8.3204  -23.7236  -52.9366 H         1 UNK         0.0600 
    222 H222      -10.9792  -25.2054  -52.6422 H         1 UNK         0.0600 
    223 H223      -10.5524  -23.7213  -51.7895 H         1 UNK         0.0600 
    224 H224      -10.6859  -23.7249  -53.5393 H         1 UNK         0.0600 
    225 H225       -7.1983  -26.6766  -53.0633 H         1 UNK         0.3000 
    226 H226       -8.0148  -27.5071  -55.7363 H         1 UNK         0.0600 
    227 H227       -7.2503  -29.1278  -53.9588 H         1 UNK         0.0600 
    228 H228       -6.3358  -29.2524  -55.4551 H         1 UNK         0.0600 
    229 H229       -5.6278  -28.4430  -54.0674 H         1 UNK         0.0600 
    230 H230       -5.4214  -25.5447  -54.3090 H         1 UNK         0.3000 
    231 H231       -4.0876  -25.1875  -56.9585 H         1 UNK         0.0600 
    232 H232       -2.5759  -25.7676  -55.1035 H         1 UNK         0.0600 
    233 H233       -3.1927  -24.4364  -54.1306 H         1 UNK         0.0600 
    234 H234       -2.2935  -24.1065  -55.6036 H         1 UNK         0.0600 
    235 H235       -5.6858  -23.4608  -54.2910 H         1 UNK         0.3000 
    236 H236       -6.6781  -21.4791  -54.0580 H         1 UNK         0.0600 
    237 H237       -7.3601  -21.8162  -57.0202 H         1 UNK         0.0600 
    238 H238       -8.2181  -22.5756  -55.6813 H         1 UNK         0.0600 
    239 H239       -8.2364  -20.8299  -55.8556 H         1 UNK         0.0600 
    240 H240       -3.8834  -21.1912  -54.4486 H         1 UNK         0.3000 
    241 H241       -2.2779  -19.7576  -54.7835 H         1 UNK         0.0600 
    242 H242       -2.7601  -20.3471  -58.5912 H         1 UNK         0.3800 
    243 H243       -3.6708  -21.1370  -57.3293 H         1 UNK         0.3800 
    244 H244       -4.4132  -17.6023  -55.1886 H         1 UNK         0.0800 
    245 H245       -2.7131  -17.2768  -55.0994 H         1 UNK         0.0800 
    246 H246       -2.6413  -15.6992  -53.1097 H         1 UNK         0.0800 
    247 H247       -1.3897  -16.9211  -53.0452 H         1 UNK         0.0800 
@<TRIPOS>BOND
     1    1    2 1    
     2    1  127 1    
     3    1  128 1    
     4    1  129 1    
     5    2    3 2    
     6    2    4 am   BACKBONE|DICT|INTERRES
     7    4    5 1    
     8    4  130 1    
     9    5    6 1    
    10    5   65 1    
    11    5  131 1    
    12    6    7 1    
    13    6  132 1    
    14    6  133 1    
    15    7    8 1    
    16    8    9 1    
    17    8  134 1    
    18    8  135 1    
    19    9   10 ar   
    20    9   14 ar   
    21   10   11 ar   
    22   10  136 1    
    23   11   12 ar   
    24   11  126 1    
    25   12   13 ar   
    26   12  137 1    
    27   13   14 ar   
    28   13   15 1    
    29   14  138 1    
    30   15   16 1    
    31   15  139 1    
    32   15  140 1    
    33   16   17 1    
    34   17   18 1    
    35   17  141 1    
    36   17  142 1    
    37   18   19 1    
    38   18   67 1    
    39   18  143 1    
    40   19   20 am   BACKBONE|DICT|INTERRES
    41   19  144 1    
    42   20   21 2    
    43   20   22 1    
    44   22   23 1    
    45   22   24 1    
    46   22  145 1    
    47   23  146 1    
    48   23  147 1    
    49   23  148 1    
    50   24   25 am   BACKBONE|DICT|INTERRES
    51   24  149 1    
    52   25   26 2    
    53   25   27 1    
    54   27   28 1    
    55   27   29 1    
    56   27  150 1    
    57   28  151 1    
    58   28  152 1    
    59   28  153 1    
    60   29   30 am   BACKBONE|DICT|INTERRES
    61   29  154 1    
    62   30   31 2    
    63   30   32 1    
    64   32   33 1    
    65   32   34 1    
    66   32  155 1    
    67   33  156 1    
    68   33  157 1    
    69   33  158 1    
    70   34   35 am   BACKBONE|DICT|INTERRES
    71   34  159 1    
    72   35   36 2    
    73   35   37 1    
    74   37   38 1    
    75   37   39 1    
    76   37  160 1    
    77   38  161 1    
    78   38  162 1    
    79   38  163 1    
    80   39   40 am   BACKBONE|DICT|INTERRES
    81   39  164 1    
    82   40   41 2    
    83   40   42 1    
    84   42   43 1    
    85   42   44 1    
    86   42  165 1    
    87   43  166 1    
    88   43  167 1    
    89   43  168 1    
    90   44   45 am   BACKBONE|DICT|INTERRES
    91   44  169 1    
    92   45   46 2    
    93   45   47 1    
    94   47   48 1    
    95   47   49 1    
    96   47  170 1    
    97   48  171 1    
    98   48  172 1    
    99   48  173 1    
   100   49   50 am   BACKBONE|DICT|INTERRES
   101   49  174 1    
   102   50   51 2    
   103   50   52 1    
   104   52   53 1    
   105   52   54 1    
   106   52  175 1    
   107   53  176 1    
   108   53  177 1    
   109   53  178 1    
   110   54   55 am   BACKBONE|DICT|INTERRES
   111   54  179 1    
   112   55   56 2    
   113   55   57 1    
   114   57   58 1    
   115   57   59 1    
   116   57  180 1    
   117   58  181 1    
   118   58  182 1    
   119   58  183 1    
   120   59   60 am   BACKBONE|DICT|INTERRES
   121   59  184 1    
   122   60   61 2    
   123   60   62 1    
   124   62   63 1    
   125   62   64 1    
   126   62  185 1    
   127   63  186 1    
   128   63  187 1    
   129   63  188 1    
   130   64   65 am   BACKBONE|DICT|INTERRES
   131   64  189 1    
   132   65   66 2    
   133   67   68 2    
   134   67   69 am   BACKBONE|DICT|INTERRES
   135   69   70 1    
   136   69  190 1    
   137   70   71 1    
   138   70   72 1    
   139   70  191 1    
   140   71  192 1    
   141   71  193 1    
   142   71  194 1    
   143   72   73 2    
   144   72   74 am   BACKBONE|DICT|INTERRES
   145   74   75 1    
   146   74  195 1    
   147   75   76 1    
   148   75   77 1    
   149   75  196 1    
   150   76  197 1    
   151   76  198 1    
   152   76  199 1    
   153   77   78 2    
   154   77   79 am   BACKBONE|DICT|INTERRES
   155   79   80 1    
   156   79  200 1    
   157   80   81 1    
   158   80   82 1    
   159   80  201 1    
   160   81  202 1    
   161   81  203 1    
   162   81  204 1    
   163   82   83 2    
   164   82   84 am   BACKBONE|DICT|INTERRES
   165   84   85 1    
   166   84  205 1    
   167   85   86 1    
   168   85   87 1    
   169   85  206 1    
   170   86  207 1    
   171   86  208 1    
   172   86  209 1    
   173   87   88 2    
   174   87   89 am   BACKBONE|DICT|INTERRES
   175   89   90 1    
   176   89  210 1    
   177   90   91 1    
   178   90   92 1    
   179   90  211 1    
   180   91  212 1    
   181   91  213 1    
   182   91  214 1    
   183   92   93 2    
   184   92   94 am   BACKBONE|DICT|INTERRES
   185   94   95 1    
   186   94  215 1    
   187   95   96 1    
   188   95   97 1    
   189   95  216 1    
   190   96  217 1    
   191   96  218 1    
   192   96  219 1    
   193   97   98 2    
   194   97   99 am   BACKBONE|DICT|INTERRES
   195   99  100 1    
   196   99  220 1    
   197  100  101 1    
   198  100  102 1    
   199  100  221 1    
   200  101  222 1    
   201  101  223 1    
   202  101  224 1    
   203  102  103 2    
   204  102  104 am   BACKBONE|DICT|INTERRES
   205  104  105 1    
   206  104  225 1    
   207  105  106 1    
   208  105  107 1    
   209  105  226 1    
   210  106  227 1    
   211  106  228 1    
   212  106  229 1    
   213  107  108 2    
   214  107  109 am   BACKBONE|DICT|INTERRES
   215  109  110 1    
   216  109  230 1    
   217  110  111 1    
   218  110  112 1    
   219  110  231 1    
   220  111  232 1    
   221  111  233 1    
   222  111  234 1    
   223  112  113 2    
   224  112  114 am   BACKBONE|DICT|INTERRES
   225  114  115 1    
   226  114  235 1    
   227  115  116 1    
   228  115  117 1    
   229  115  236 1    
   230  116  237 1    
   231  116  238 1    
   232  116  239 1    
   233  117  118 2    
   234  117  119 am   BACKBONE|DICT|INTERRES
   235  119  120 1    
   236  119  240 1    
   237  120  121 1    
   238  120  124 1    
   239  120  241 1    
   240  121  122 am   BACKBONE|DICT|INTERRES
   241  121  123 2    
   242  122  242 1    
   243  122  243 1    
   244  124  125 1    
   245  124  244 1    
   246  124  245 1    
   247  125  126 1    
   248  126  246 1    
   249  126  247 1    
@<TRIPOS>SUBSTRUCTURE
     1 UNK         1 GROUP             0       ****    0 ROOT    
