@<TRIPOS>MOLECULE
3R540
247   249    1
SMALL
USER_CHARGES


@<TRIPOS>ATOM
      1 CA          3.5822  -10.7326  -44.8713 C.3       0 UNK        -0.1800 
      2 C           4.3534  -11.5022  -45.9336 C.2       0 UNK         0.5000 
      3 O           5.3779  -11.0221  -46.4177 O.2       0 UNK        -0.5000 
      4 N           3.8695  -12.6991  -46.2898 N.am      1 UNK        -0.5000 
      5 CA          4.4503  -13.5813  -47.3178 C.3       1 UNK         0.1400 
      6 C6          3.4095  -14.6043  -47.8428 C.3       23 UNK        -0.0398 
      7 S7          1.9653  -13.7400  -48.5575 S.3       23 UNK        -0.2404 
      8 C8          1.7715  -14.5012  -50.2028 C.3       23 UNK        -0.0205 
      9 C9          0.7896  -15.6639  -50.1745 C.ar      23 UNK        -0.0193 
     10 C10        -0.5357  -15.4435  -49.7851 C.ar      23 UNK        -0.1150 
     11 C11        -1.4488  -16.4983  -49.7297 C.ar      23 UNK        -0.0193 
     12 C12        -1.0270  -17.7834  -50.0810 C.ar      23 UNK        -0.1150 
     13 C13         0.2803  -18.0124  -50.5186 C.ar      23 UNK        -0.0193 
     14 C14         1.1884  -16.9488  -50.5565 C.ar      23 UNK        -0.1150 
     15 C15         0.6959  -19.4134  -50.9519 C.3       23 UNK        -0.0205 
     16 S16         2.0157  -20.1321  -49.9201 S.3       23 UNK        -0.2404 
     17 C17         1.3573  -19.9236  -48.2319 C.3       23 UNK        -0.0398 
     18 CA          0.7147  -21.1877  -47.6194 C.3       11 UNK         0.1400 
     19 N           0.5239  -21.0171  -46.1791 N.am      11 UNK        -0.5000 
     20 C           0.1594  -21.9775  -45.3217 C.2       10 UNK         0.5000 
     21 O          -0.0278  -23.1481  -45.6469 O.2       10 UNK        -0.5000 
     22 CA         -0.0739  -21.5494  -43.8620 C.3       10 UNK         0.1400 
     23 CB          1.2587  -21.4519  -43.1053 C.3       10 UNK        -0.1800 
     24 N          -0.8008  -20.2828  -43.7517 N.am      10 UNK        -0.5000 
     25 C          -2.0561  -20.0925  -44.1847 C.2       9 UNK         0.5000 
     26 O          -2.7419  -20.9759  -44.6993 O.2       9 UNK        -0.5000 
     27 CA         -2.6278  -18.6683  -44.0636 C.3       9 UNK         0.1400 
     28 CB         -3.0474  -18.3646  -42.6175 C.3       9 UNK        -0.1800 
     29 N          -1.6927  -17.6439  -44.5258 N.am      9 UNK        -0.5000 
     30 C          -1.2286  -17.5424  -45.7796 C.2       8 UNK         0.5000 
     31 O          -1.5681  -18.2858  -46.7003 O.2       8 UNK        -0.5000 
     32 CA         -0.1501  -16.4708  -46.0214 C.3       8 UNK         0.1400 
     33 CB         -0.7640  -15.0652  -46.1037 C.3       8 UNK        -0.1800 
     34 N           0.8726  -16.4879  -44.9759 N.am      8 UNK        -0.5000 
     35 C           1.6998  -17.5156  -44.7436 C.2       7 UNK         0.5000 
     36 O           1.7156  -18.5481  -45.4078 O.2       7 UNK        -0.5000 
     37 CA          2.6462  -17.3837  -43.5438 C.3       7 UNK         0.1400 
     38 CB          3.9058  -16.6136  -43.9470 C.3       7 UNK        -0.1800 
     39 N           2.0065  -16.7384  -42.3975 N.am      7 UNK        -0.5000 
     40 C           1.0447  -17.3227  -41.6683 C.2       6 UNK         0.5000 
     41 O           0.6065  -18.4514  -41.8916 O.2       6 UNK        -0.5000 
     42 CA          0.4434  -16.4921  -40.5234 C.3       6 UNK         0.1400 
     43 CB          1.3590  -16.5276  -39.2906 C.3       6 UNK        -0.1800 
     44 N           0.1837  -15.1004  -40.8889 N.am      6 UNK        -0.5000 
     45 C          -0.6274  -14.6825  -41.8670 C.2       5 UNK         0.5000 
     46 O          -1.2149  -15.4466  -42.6331 O.2       5 UNK        -0.5000 
     47 CA         -0.8118  -13.1604  -42.0338 C.3       5 UNK         0.1400 
     48 CB         -1.9020  -12.6334  -41.0823 C.3       5 UNK        -0.1800 
     49 N           0.4191  -12.3616  -41.9289 N.am      5 UNK        -0.5000 
     50 C           1.2257  -12.1722  -40.8747 C.2       4 UNK         0.5000 
     51 O           1.0624  -12.6925  -39.7691 O.2       4 UNK        -0.5000 
     52 CA          2.4472  -11.2648  -41.1099 C.3       4 UNK         0.1400 
     53 CB          2.4675  -10.0955  -40.1128 C.3       4 UNK        -0.1800 
     54 N           3.7071  -12.0031  -41.0110 N.am      4 UNK        -0.5000 
     55 C           4.0714  -13.0110  -41.8118 C.2       3 UNK         0.5000 
     56 O           3.3707  -13.4520  -42.7297 O.2       3 UNK        -0.5000 
     57 CA          5.4529  -13.6311  -41.5550 C.3       3 UNK         0.1400 
     58 CB          5.3663  -14.7344  -40.4884 C.3       3 UNK        -0.1800 
     59 N           5.8992  -14.2105  -42.8141 N.am      3 UNK        -0.5000 
     60 C           7.1155  -14.1217  -43.3642 C.2       2 UNK         0.5000 
     61 O           8.0976  -13.6420  -42.7982 O.2       2 UNK        -0.5000 
     62 CA          7.2226  -14.6030  -44.8215 C.3       2 UNK         0.1400 
     63 CB          7.5095  -16.1152  -44.8875 C.3       2 UNK        -0.1800 
     64 N           5.9893  -14.2419  -45.5243 N.am      2 UNK        -0.5000 
     65 C           5.7519  -14.2707  -46.8406 C.2       1 UNK         0.5000 
     66 O           6.5160  -14.7691  -47.6674 O.2       1 UNK        -0.5000 
     67 C          -0.5986  -21.5912  -48.3240 C.2       11 UNK         0.5000 
     68 O          -0.5943  -22.5416  -49.1074 O.2       11 UNK        -0.5000 
     69 N          -1.7080  -20.9108  -47.9948 N.am      12 UNK        -0.5000 
     70 CA         -3.0495  -21.2395  -48.4847 C.3       12 UNK         0.1400 
     71 CB         -4.0511  -20.1732  -48.0218 C.3       12 UNK        -0.1800 
     72 C          -3.5197  -22.6366  -48.0435 C.2       12 UNK         0.5000 
     73 O          -4.0920  -23.3641  -48.8548 O.2       12 UNK        -0.5000 
     74 N          -3.2445  -22.9950  -46.7808 N.am      13 UNK        -0.5000 
     75 CA         -3.5343  -24.3088  -46.2069 C.3       13 UNK         0.1400 
     76 CB         -3.3255  -24.2706  -44.6859 C.3       13 UNK        -0.1800 
     77 C          -2.7036  -25.4343  -46.8488 C.2       13 UNK         0.5000 
     78 O          -3.2563  -26.4932  -47.1444 O.2       13 UNK        -0.5000 
     79 N          -1.4102  -25.1787  -47.0933 N.am      14 UNK        -0.5000 
     80 CA         -0.4904  -26.0913  -47.7781 C.3       14 UNK         0.1400 
     81 CB          0.9445  -25.5525  -47.6760 C.3       14 UNK        -0.1800 
     82 C          -0.8778  -26.3350  -49.2484 C.2       14 UNK         0.5000 
     83 O          -0.7881  -27.4683  -49.7217 O.2       14 UNK        -0.5000 
     84 N          -1.3416  -25.2782  -49.9291 N.am      15 UNK        -0.5000 
     85 CA         -1.9061  -25.3369  -51.2792 C.3       15 UNK         0.1400 
     86 CB         -1.9028  -23.9203  -51.8759 C.3       15 UNK        -0.1800 
     87 C          -3.3313  -25.9281  -51.3192 C.2       15 UNK         0.5000 
     88 O          -3.8332  -26.2138  -52.4063 O.2       15 UNK        -0.5000 
     89 N          -3.9765  -26.0521  -50.1487 N.am      16 UNK        -0.5000 
     90 CA         -5.3546  -26.4981  -49.9070 C.3       16 UNK         0.1400 
     91 CB         -5.4921  -27.9990  -50.2336 C.3       16 UNK        -0.1800 
     92 C          -6.4205  -25.6391  -50.6237 C.2       16 UNK         0.5000 
     93 O          -7.5286  -26.1189  -50.8688 O.2       16 UNK        -0.5000 
     94 N          -6.0484  -24.3993  -50.9807 N.am      17 UNK        -0.5000 
     95 CA         -6.7667  -23.4559  -51.8448 C.3       17 UNK         0.1400 
     96 CB         -8.0047  -22.8979  -51.1156 C.3       17 UNK        -0.1800 
     97 C          -7.1086  -24.0183  -53.2471 C.2       17 UNK         0.5000 
     98 O          -8.0386  -23.5242  -53.8885 O.2       17 UNK        -0.5000 
     99 N          -6.3671  -25.0400  -53.7068 N.am      18 UNK        -0.5000 
    100 CA        -6.6057  -25.7581  -54.9599 C.3       18 UNK         0.1400 
    101 CB        -5.6533  -26.9592  -55.0495 C.3       18 UNK        -0.1800 
    102 C         -6.4432  -24.8392  -56.1807 C.2       18 UNK         0.5000 
    103 O         -5.4312  -24.1463  -56.2829 O.2       18 UNK        -0.5000 
    104 N         -7.4575  -24.8233  -57.0568 N.am      19 UNK        -0.5000 
    105 CA        -7.5886  -23.9353  -58.2211 C.3       19 UNK         0.1400 
    106 CB        -6.5320  -24.2764  -59.2934 C.3       19 UNK        -0.1800 
    107 C         -7.6013  -22.4354  -57.8408 C.2       19 UNK         0.5000 
    108 O         -7.1236  -21.5996  -58.6099 O.2       19 UNK        -0.5000 
    109 N         -8.1488  -22.1335  -56.6525 N.am      20 UNK        -0.5000 
    110 CA        -8.2373  -20.8158  -56.0167 C.3       20 UNK         0.1400 
    111 CB        -9.1189  -19.8534  -56.8409 C.3       20 UNK        -0.1800 
    112 C         -6.8588  -20.2233  -55.6547 C.2       20 UNK         0.5000 
    113 O         -6.6646  -19.0089  -55.7477 O.2       20 UNK        -0.5000 
    114 N         -5.9246  -21.0862  -55.2278 N.am      21 UNK        -0.5000 
    115 CA        -4.5944  -20.7295  -54.7270 C.3       21 UNK         0.1400 
    116 CB        -3.6960  -21.9782  -54.7368 C.3       21 UNK        -0.1800 
    117 C         -4.6576  -20.0693  -53.3334 C.2       21 UNK         0.5000 
    118 O         -4.2290  -20.6630  -52.3418 O.2       21 UNK        -0.5000 
    119 N         -5.1996  -18.8472  -53.2959 N.am      22 UNK        -0.5000 
    120 CA        -5.4158  -18.0230  -52.0996 C.3       22 UNK         0.1400 
    121 C         -6.5231  -18.5817  -51.1515 C.2       22 UNK         0.5000 
    122 N         -6.6391  -18.0636  -49.9361 N.am      22 UNK        -0.7600 
    123 O         -7.3142  -19.4474  -51.5192 O.2       22 UNK        -0.5000 
    124 C124       -4.0753  -17.6922  -51.3835 C.3       23 UNK        -0.0398 
    125 S125       -4.0309  -16.0182  -50.6616 S.3       23 UNK        -0.2404 
    126 C126       -2.8796  -16.2482  -49.2700 C.3       23 UNK        -0.0205 
    127 H127        2.6841  -11.2666  -44.5605 H         1 UNK         0.0600 
    128 H128        4.2082  -10.5768  -43.9928 H         1 UNK         0.0600 
    129 H129        3.2822   -9.7580  -45.2561 H         1 UNK         0.0600 
    130 H130        3.0106  -13.0261  -45.8709 H         1 UNK         0.3000 
    131 H131        4.7404  -12.9524  -48.1627 H         1 UNK         0.0600 
    132 H132        3.8554  -15.2551  -48.5967 H         1 UNK         0.0800 
    133 H133        3.0636  -15.2569  -47.0393 H         1 UNK         0.0800 
    134 H134        1.3883  -13.7455  -50.8897 H         1 UNK         0.0800 
    135 H135        2.7414  -14.8054  -50.5985 H         1 UNK         0.0800 
    136 H136       -0.8505  -14.4474  -49.5071 H         1 UNK         0.1150 
    137 H137       -1.7180  -18.6107  -50.0196 H         1 UNK         0.1150 
    138 H138        2.2045  -17.1265  -50.8799 H         1 UNK         0.1150 
    139 H139       -0.1600  -20.0904  -50.9470 H         1 UNK         0.0800 
    140 H140        1.0424  -19.3738  -51.9853 H         1 UNK         0.0800 
    141 H141        0.6784  -19.0741  -48.1665 H         1 UNK         0.0800 
    142 H142        2.2230  -19.6439  -47.6319 H         1 UNK         0.0800 
    143 H143        1.4171  -22.0140  -47.7473 H         1 UNK         0.0600 
    144 H144        0.7088  -20.0858  -45.8151 H         1 UNK         0.3000 
    145 H145       -0.6788  -22.3220  -43.3833 H         1 UNK         0.0600 
    146 H146        1.0970  -21.2332  -42.0497 H         1 UNK         0.0600 
    147 H147        1.8101  -22.3913  -43.1621 H         1 UNK         0.0600 
    148 H148        1.8981  -20.6697  -43.5149 H         1 UNK         0.0600 
    149 H149       -0.3123  -19.5160  -43.2993 H         1 UNK         0.3000 
    150 H150       -3.5173  -18.6139  -44.6947 H         1 UNK         0.0600 
    151 H151       -3.7593  -19.1060  -42.2530 H         1 UNK         0.0600 
    152 H152       -3.5267  -17.3882  -42.5443 H         1 UNK         0.0600 
    153 H153       -2.1928  -18.3667  -41.9402 H         1 UNK         0.0600 
    154 H154       -1.3790  -16.9689  -43.8339 H         1 UNK         0.3000 
    155 H155        0.3350  -16.6890  -46.9756 H         1 UNK         0.0600 
    156 H156       -0.0012  -14.3117  -46.2976 H         1 UNK         0.0600 
    157 H157       -1.2803  -14.7888  -45.1850 H         1 UNK         0.0600 
    158 H158       -1.4897  -15.0040  -46.9120 H         1 UNK         0.0600 
    159 H159        0.8932  -15.7004  -44.3460 H         1 UNK         0.3000 
    160 H160        2.9489  -18.3899  -43.2458 H         1 UNK         0.0600 
    161 H161        3.6745  -15.5885  -44.2341 H         1 UNK         0.0600 
    162 H162        4.3919  -17.0886  -44.8003 H         1 UNK         0.0600 
    163 H163        4.6239  -16.5996  -43.1282 H         1 UNK         0.0600 
    164 H164        2.2879  -15.7937  -42.1753 H         1 UNK         0.3000 
    165 H165       -0.5126  -16.9458  -40.2542 H         1 UNK         0.0600 
    166 H166        2.3163  -16.0422  -39.4851 H         1 UNK         0.0600 
    167 H167        0.8957  -16.0236  -38.4422 H         1 UNK         0.0600 
    168 H168        1.5654  -17.5543  -38.9853 H         1 UNK         0.0600 
    169 H169        0.6117  -14.3813  -40.3102 H         1 UNK         0.3000 
    170 H170       -1.1713  -13.0075  -43.0527 H         1 UNK         0.0600 
    171 H171       -2.8417  -13.1655  -41.2359 H         1 UNK         0.0600 
    172 H172       -1.6260  -12.7582  -40.0349 H         1 UNK         0.0600 
    173 H173       -2.0967  -11.5748  -41.2541 H         1 UNK         0.0600 
    174 H174        0.6968  -11.9236  -42.7958 H         1 UNK         0.3000 
    175 H175        2.3838  -10.8423  -42.1141 H         1 UNK         0.0600 
    176 H176        3.2872   -9.4091  -40.3259 H         1 UNK         0.0600 
    177 H177        1.5416   -9.5212  -40.1664 H         1 UNK         0.0600 
    178 H178        2.5789  -10.4429  -39.0848 H         1 UNK         0.0600 
    179 H179        4.3256  -11.7256  -40.2628 H         1 UNK         0.3000 
    180 H180        6.1413  -12.8481  -41.2299 H         1 UNK         0.0600 
    181 H181        4.6644  -15.5190  -40.7740 H         1 UNK         0.0600 
    182 H182        5.0350  -14.3294  -39.5314 H         1 UNK         0.0600 
    183 H183        6.3386  -15.1997  -40.3259 H         1 UNK         0.0600 
    184 H184        5.1454  -14.6093  -43.3556 H         1 UNK         0.3000 
    185 H185        8.0490  -14.0660  -45.2913 H         1 UNK         0.0600 
    186 H186        7.6260  -16.4601  -45.9144 H         1 UNK         0.0600 
    187 H187        8.4360  -16.3533  -44.3638 H         1 UNK         0.0600 
    188 H188        6.7177  -16.7018  -44.4250 H         1 UNK         0.0600 
    189 H189        5.3203  -13.7285  -44.9680 H         1 UNK         0.3000 
    190 H190       -1.6357  -20.1178  -47.3626 H         1 UNK         0.3000 
    191 H191       -3.0182  -21.2263  -49.5765 H         1 UNK         0.0600 
    192 H192       -3.7600  -19.1867  -48.3707 H         1 UNK         0.0600 
    193 H193       -5.0478  -20.3760  -48.4160 H         1 UNK         0.0600 
    194 H194       -4.1260  -20.1316  -46.9349 H         1 UNK         0.0600 
    195 H195       -2.8214  -22.3112  -46.1602 H         1 UNK         0.3000 
    196 H196       -4.5875  -24.5273  -46.3958 H         1 UNK         0.0600 
    197 H197       -3.5629  -25.2348  -44.2348 H         1 UNK         0.0600 
    198 H198       -3.9696  -23.5254  -44.2189 H         1 UNK         0.0600 
    199 H199       -2.2948  -24.0310  -44.4250 H         1 UNK         0.0600 
    200 H200       -1.0129  -24.3042  -46.7583 H         1 UNK         0.3000 
    201 H201       -0.5291  -27.0526  -47.2618 H         1 UNK         0.0600 
    202 H202        1.2569  -25.4597  -46.6358 H         1 UNK         0.0600 
    203 H203        1.0408  -24.5718  -48.1425 H         1 UNK         0.0600 
    204 H204        1.6502  -26.2223  -48.1689 H         1 UNK         0.0600 
    205 H205       -1.3128  -24.3626  -49.4891 H         1 UNK         0.3000 
    206 H206       -1.2685  -25.9713  -51.8980 H         1 UNK         0.0600 
    207 H207       -2.2555  -23.9313  -52.9075 H         1 UNK         0.0600 
    208 H208       -2.5483  -23.2434  -51.3143 H         1 UNK         0.0600 
    209 H209       -0.8989  -23.4953  -51.8813 H         1 UNK         0.0600 
    210 H210       -3.4806  -25.7540  -49.3191 H         1 UNK         0.3000 
    211 H211       -5.5323  -26.3704  -48.8385 H         1 UNK         0.0600 
    212 H212       -5.3905  -28.1908  -51.3023 H         1 UNK         0.0600 
    213 H213       -6.4648  -28.3819  -49.9230 H         1 UNK         0.0600 
    214 H214       -4.7340  -28.5849  -49.7136 H         1 UNK         0.0600 
    215 H215       -5.1428  -24.0864  -50.6495 H         1 UNK         0.3000 
    216 H216       -6.0838  -22.6234  -52.0150 H         1 UNK         0.0600 
    217 H217       -7.7338  -22.4804  -50.1458 H         1 UNK         0.0600 
    218 H218       -8.7605  -23.6667  -50.9537 H         1 UNK         0.0600 
    219 H219       -8.4696  -22.0958  -51.6902 H         1 UNK         0.0600 
    220 H220       -5.5887  -25.3718  -53.1472 H         1 UNK         0.3000 
    221 H221       -7.6295  -26.1365  -54.9314 H         1 UNK         0.0600 
    222 H222       -4.6097  -26.6424  -55.0707 H         1 UNK         0.0600 
    223 H223       -5.7816  -27.6292  -54.1990 H         1 UNK         0.0600 
    224 H224       -5.8394  -27.5394  -55.9541 H         1 UNK         0.0600 
    225 H225       -8.2511  -25.4247  -56.8819 H         1 UNK         0.3000 
    226 H226       -8.5692  -24.1416  -58.6523 H         1 UNK         0.0600 
    227 H227       -6.5499  -25.3377  -59.5411 H         1 UNK         0.0600 
    228 H228       -6.7198  -23.7264  -60.2163 H         1 UNK         0.0600 
    229 H229       -5.5232  -24.0254  -58.9644 H         1 UNK         0.0600 
    230 H230       -8.4662  -22.9015  -56.0737 H         1 UNK         0.3000 
    231 H231       -8.7441  -20.9796  -55.0645 H         1 UNK         0.0600 
    232 H232      -10.0857  -20.3019  -57.0696 H         1 UNK         0.0600 
    233 H233       -8.6467  -19.5731  -57.7828 H         1 UNK         0.0600 
    234 H234       -9.3126  -18.9332  -56.2886 H         1 UNK         0.0600 
    235 H235       -6.1512  -22.0714  -55.2266 H         1 UNK         0.3000 
    236 H236       -4.1508  -20.0026  -55.4106 H         1 UNK         0.0600 
    237 H237       -2.7081  -21.7555  -54.3314 H         1 UNK         0.0600 
    238 H238       -4.1225  -22.7871  -54.1423 H         1 UNK         0.0600 
    239 H239       -3.5486  -22.3469  -55.7517 H         1 UNK         0.0600 
    240 H240       -5.6131  -18.4998  -54.1556 H         1 UNK         0.3000 
    241 H241       -5.8296  -17.0953  -52.4961 H         1 UNK         0.0600 
    242 H242       -6.0325  -17.3189  -49.6291 H         1 UNK         0.3800 
    243 H243       -7.3665  -18.4019  -49.3262 H         1 UNK         0.3800 
    244 H244       -3.8620  -18.4441  -50.6243 H         1 UNK         0.0800 
    245 H245       -3.2445  -17.7392  -52.0892 H         1 UNK         0.0800 
    246 H246       -2.9214  -15.3484  -48.6565 H         1 UNK         0.0800 
    247 H247       -3.2182  -17.0586  -48.6271 H         1 UNK         0.0800 
@<TRIPOS>BOND
     1    1    2 1    
     2    1  127 1    
     3    1  128 1    
     4    1  129 1    
     5    2    3 2    
     6    2    4 am   BACKBONE|DICT|INTERRES
     7    4    5 1    
     8    4  130 1    
     9    5    6 1    
    10    5   65 1    
    11    5  131 1    
    12    6    7 1    
    13    6  132 1    
    14    6  133 1    
    15    7    8 1    
    16    8    9 1    
    17    8  134 1    
    18    8  135 1    
    19    9   10 ar   
    20    9   14 ar   
    21   10   11 ar   
    22   10  136 1    
    23   11   12 ar   
    24   11  126 1    
    25   12   13 ar   
    26   12  137 1    
    27   13   14 ar   
    28   13   15 1    
    29   14  138 1    
    30   15   16 1    
    31   15  139 1    
    32   15  140 1    
    33   16   17 1    
    34   17   18 1    
    35   17  141 1    
    36   17  142 1    
    37   18   19 1    
    38   18   67 1    
    39   18  143 1    
    40   19   20 am   BACKBONE|DICT|INTERRES
    41   19  144 1    
    42   20   21 2    
    43   20   22 1    
    44   22   23 1    
    45   22   24 1    
    46   22  145 1    
    47   23  146 1    
    48   23  147 1    
    49   23  148 1    
    50   24   25 am   BACKBONE|DICT|INTERRES
    51   24  149 1    
    52   25   26 2    
    53   25   27 1    
    54   27   28 1    
    55   27   29 1    
    56   27  150 1    
    57   28  151 1    
    58   28  152 1    
    59   28  153 1    
    60   29   30 am   BACKBONE|DICT|INTERRES
    61   29  154 1    
    62   30   31 2    
    63   30   32 1    
    64   32   33 1    
    65   32   34 1    
    66   32  155 1    
    67   33  156 1    
    68   33  157 1    
    69   33  158 1    
    70   34   35 am   BACKBONE|DICT|INTERRES
    71   34  159 1    
    72   35   36 2    
    73   35   37 1    
    74   37   38 1    
    75   37   39 1    
    76   37  160 1    
    77   38  161 1    
    78   38  162 1    
    79   38  163 1    
    80   39   40 am   BACKBONE|DICT|INTERRES
    81   39  164 1    
    82   40   41 2    
    83   40   42 1    
    84   42   43 1    
    85   42   44 1    
    86   42  165 1    
    87   43  166 1    
    88   43  167 1    
    89   43  168 1    
    90   44   45 am   BACKBONE|DICT|INTERRES
    91   44  169 1    
    92   45   46 2    
    93   45   47 1    
    94   47   48 1    
    95   47   49 1    
    96   47  170 1    
    97   48  171 1    
    98   48  172 1    
    99   48  173 1    
   100   49   50 am   BACKBONE|DICT|INTERRES
   101   49  174 1    
   102   50   51 2    
   103   50   52 1    
   104   52   53 1    
   105   52   54 1    
   106   52  175 1    
   107   53  176 1    
   108   53  177 1    
   109   53  178 1    
   110   54   55 am   BACKBONE|DICT|INTERRES
   111   54  179 1    
   112   55   56 2    
   113   55   57 1    
   114   57   58 1    
   115   57   59 1    
   116   57  180 1    
   117   58  181 1    
   118   58  182 1    
   119   58  183 1    
   120   59   60 am   BACKBONE|DICT|INTERRES
   121   59  184 1    
   122   60   61 2    
   123   60   62 1    
   124   62   63 1    
   125   62   64 1    
   126   62  185 1    
   127   63  186 1    
   128   63  187 1    
   129   63  188 1    
   130   64   65 am   BACKBONE|DICT|INTERRES
   131   64  189 1    
   132   65   66 2    
   133   67   68 2    
   134   67   69 am   BACKBONE|DICT|INTERRES
   135   69   70 1    
   136   69  190 1    
   137   70   71 1    
   138   70   72 1    
   139   70  191 1    
   140   71  192 1    
   141   71  193 1    
   142   71  194 1    
   143   72   73 2    
   144   72   74 am   BACKBONE|DICT|INTERRES
   145   74   75 1    
   146   74  195 1    
   147   75   76 1    
   148   75   77 1    
   149   75  196 1    
   150   76  197 1    
   151   76  198 1    
   152   76  199 1    
   153   77   78 2    
   154   77   79 am   BACKBONE|DICT|INTERRES
   155   79   80 1    
   156   79  200 1    
   157   80   81 1    
   158   80   82 1    
   159   80  201 1    
   160   81  202 1    
   161   81  203 1    
   162   81  204 1    
   163   82   83 2    
   164   82   84 am   BACKBONE|DICT|INTERRES
   165   84   85 1    
   166   84  205 1    
   167   85   86 1    
   168   85   87 1    
   169   85  206 1    
   170   86  207 1    
   171   86  208 1    
   172   86  209 1    
   173   87   88 2    
   174   87   89 am   BACKBONE|DICT|INTERRES
   175   89   90 1    
   176   89  210 1    
   177   90   91 1    
   178   90   92 1    
   179   90  211 1    
   180   91  212 1    
   181   91  213 1    
   182   91  214 1    
   183   92   93 2    
   184   92   94 am   BACKBONE|DICT|INTERRES
   185   94   95 1    
   186   94  215 1    
   187   95   96 1    
   188   95   97 1    
   189   95  216 1    
   190   96  217 1    
   191   96  218 1    
   192   96  219 1    
   193   97   98 2    
   194   97   99 am   BACKBONE|DICT|INTERRES
   195   99  100 1    
   196   99  220 1    
   197  100  101 1    
   198  100  102 1    
   199  100  221 1    
   200  101  222 1    
   201  101  223 1    
   202  101  224 1    
   203  102  103 2    
   204  102  104 am   BACKBONE|DICT|INTERRES
   205  104  105 1    
   206  104  225 1    
   207  105  106 1    
   208  105  107 1    
   209  105  226 1    
   210  106  227 1    
   211  106  228 1    
   212  106  229 1    
   213  107  108 2    
   214  107  109 am   BACKBONE|DICT|INTERRES
   215  109  110 1    
   216  109  230 1    
   217  110  111 1    
   218  110  112 1    
   219  110  231 1    
   220  111  232 1    
   221  111  233 1    
   222  111  234 1    
   223  112  113 2    
   224  112  114 am   BACKBONE|DICT|INTERRES
   225  114  115 1    
   226  114  235 1    
   227  115  116 1    
   228  115  117 1    
   229  115  236 1    
   230  116  237 1    
   231  116  238 1    
   232  116  239 1    
   233  117  118 2    
   234  117  119 am   BACKBONE|DICT|INTERRES
   235  119  120 1    
   236  119  240 1    
   237  120  121 1    
   238  120  124 1    
   239  120  241 1    
   240  121  122 am   BACKBONE|DICT|INTERRES
   241  121  123 2    
   242  122  242 1    
   243  122  243 1    
   244  124  125 1    
   245  124  244 1    
   246  124  245 1    
   247  125  126 1    
   248  126  246 1    
   249  126  247 1    
@<TRIPOS>SUBSTRUCTURE
     1 UNK         1 GROUP             0       ****    0 ROOT    
