@<TRIPOS>MOLECULE
3R540
247   249    1
SMALL
USER_CHARGES


@<TRIPOS>ATOM
      1 CA          0.7888  -16.9612  -51.9190 C.3       0 UNK        -0.1800 
      2 C           0.6424  -16.5362  -50.4685 C.2       0 UNK         0.5000 
      3 O           1.2393  -15.5422  -50.0614 O.2       0 UNK        -0.5000 
      4 N          -0.1371  -17.2958  -49.6877 N.am      1 UNK        -0.5000 
      5 CA         -0.3731  -17.0595  -48.2599 C.3       1 UNK         0.1400 
      6 C6         -1.1254  -18.2533  -47.6235 C.3       23 UNK        -0.0398 
      7 S7         -1.3836  -18.1403  -45.8189 S.3       23 UNK        -0.2404 
      8 C8         -3.1192  -17.5817  -45.7215 C.3       23 UNK        -0.0205 
      9 C9         -4.1148  -18.5835  -46.2900 C.ar      23 UNK        -0.0193 
     10 C10        -5.1023  -18.1729  -47.1894 C.ar      23 UNK        -0.1150 
     11 C11        -6.0561  -19.0835  -47.6534 C.ar      23 UNK        -0.0193 
     12 C12        -6.0069  -20.4134  -47.2234 C.ar      23 UNK        -0.1150 
     13 C13        -5.0165  -20.8441  -46.3344 C.ar      23 UNK        -0.0193 
     14 C14        -4.0769  -19.9156  -45.8770 C.ar      23 UNK        -0.1150 
     15 C15        -4.9727  -22.3110  -45.9050 C.3       23 UNK        -0.0205 
     16 S16        -4.7045  -22.5704  -44.1111 S.3       23 UNK        -0.2404 
     17 C17        -2.9124  -22.3616  -43.7679 C.3       23 UNK        -0.0398 
     18 CA         -1.9175  -22.6320  -44.9284 C.3       11 UNK         0.1400 
     19 N          -0.6359  -21.9439  -44.7396 N.am      11 UNK        -0.5000 
     20 C           0.3643  -21.9237  -45.6343 C.2       10 UNK         0.5000 
     21 O           0.2813  -22.4235  -46.7559 O.2       10 UNK        -0.5000 
     22 CA          1.7020  -21.3112  -45.1820 C.3       10 UNK         0.1400 
     23 CB          1.7512  -19.7962  -45.4200 C.3       10 UNK        -0.1800 
     24 N           1.9752  -21.5960  -43.7748 N.am      10 UNK        -0.5000 
     25 C           2.3713  -22.7905  -43.3138 C.2       9 UNK         0.5000 
     26 O           2.6171  -23.7557  -44.0367 O.2       9 UNK        -0.5000 
     27 CA          2.4687  -22.9387  -41.7840 C.3       9 UNK         0.1400 
     28 CB          3.8296  -22.4384  -41.2771 C.3       9 UNK        -0.1800 
     29 N           1.3985  -22.2284  -41.0799 N.am      9 UNK        -0.5000 
     30 C           0.0997  -22.5530  -41.1513 C.2       8 UNK         0.5000 
     31 O          -0.3290  -23.5100  -41.7942 O.2       8 UNK        -0.5000 
     32 CA         -0.8925  -21.6255  -40.4254 C.3       8 UNK         0.1400 
     33 CB         -1.0953  -22.0851  -38.9744 C.3       8 UNK        -0.1800 
     34 N          -0.4874  -20.2172  -40.4377 N.am      8 UNK        -0.5000 
     35 C          -0.3609  -19.4662  -41.5395 C.2       7 UNK         0.5000 
     36 O          -0.5504  -19.8881  -42.6825 O.2       7 UNK        -0.5000 
     37 CA          0.1346  -18.0320  -41.3227 C.3       7 UNK         0.1400 
     38 CB          1.6704  -17.9971  -41.3912 C.3       7 UNK        -0.1800 
     39 N          -0.3904  -17.1381  -42.3520 N.am      7 UNK        -0.5000 
     40 C          -1.0896  -16.0200  -42.1162 C.2       6 UNK         0.5000 
     41 O          -1.4946  -15.6913  -40.9991 O.2       6 UNK        -0.5000 
     42 CA         -1.3292  -15.0927  -43.3320 C.3       6 UNK         0.1400 
     43 CB         -1.8419  -13.6928  -42.9370 C.3       6 UNK        -0.1800 
     44 N          -0.1524  -14.9684  -44.2011 N.am      6 UNK        -0.5000 
     45 C           1.0910  -14.6134  -43.8349 C.2       5 UNK         0.5000 
     46 O           1.4140  -14.2781  -42.6949 O.2       5 UNK        -0.5000 
     47 CA          2.1554  -14.6314  -44.9370 C.3       5 UNK         0.1400 
     48 CB          2.3887  -16.0593  -45.4604 C.3       5 UNK        -0.1800 
     49 N           1.7495  -13.7467  -46.0283 N.am      5 UNK        -0.5000 
     50 C           2.4564  -12.6848  -46.4381 C.2       4 UNK         0.5000 
     51 O           3.5688  -12.3898  -45.9980 O.2       4 UNK        -0.5000 
     52 CA          1.8235  -11.7807  -47.5117 C.3       4 UNK         0.1400 
     53 CB          2.2665  -12.2107  -48.9166 C.3       4 UNK        -0.1800 
     54 N           0.3632  -11.7392  -47.4626 N.am      4 UNK        -0.5000 
     55 C          -0.3636  -11.1467  -46.5086 C.2       3 UNK         0.5000 
     56 O           0.1307  -10.5964  -45.5242 O.2       3 UNK        -0.5000 
     57 CA         -1.8985  -11.1548  -46.6702 C.3       3 UNK         0.1400 
     58 CB         -2.3751   -9.9208  -47.4596 C.3       3 UNK        -0.1800 
     59 N          -2.4659  -12.3925  -47.2244 N.am      3 UNK        -0.5000 
     60 C          -2.3193  -12.9247  -48.4460 C.2       2 UNK         0.5000 
     61 O          -1.6425  -12.4288  -49.3485 O.2       2 UNK        -0.5000 
     62 CA         -3.0201  -14.2760  -48.6755 C.3       2 UNK         0.1400 
     63 CB         -3.9403  -14.2205  -49.9058 C.3       2 UNK        -0.1800 
     64 N          -2.0848  -15.3935  -48.8242 N.am      2 UNK        -0.5000 
     65 C          -1.0959  -15.7243  -47.9794 C.2       1 UNK         0.5000 
     66 O          -0.7686  -15.0617  -46.9918 O.2       1 UNK        -0.5000 
     67 C          -1.7229  -24.1452  -45.1554 C.2       11 UNK         0.5000 
     68 O          -2.2485  -24.6863  -46.1288 O.2       11 UNK        -0.5000 
     69 N          -0.9082  -24.7744  -44.2949 N.am      12 UNK        -0.5000 
     70 CA         -0.5108  -26.1833  -44.3638 C.3       12 UNK         0.1400 
     71 CB          0.2911  -26.5406  -43.1036 C.3       12 UNK        -0.1800 
     72 C           0.2861  -26.5470  -45.6326 C.2       12 UNK         0.5000 
     73 O           0.2449  -27.7000  -46.0613 O.2       12 UNK        -0.5000 
     74 N           0.9476  -25.5547  -46.2427 N.am      13 UNK        -0.5000 
     75 CA          1.6212  -25.6450  -47.5392 C.3       13 UNK         0.1400 
     76 CB          2.8188  -24.6777  -47.5471 C.3       13 UNK        -0.1800 
     77 C           0.6592  -25.3858  -48.7216 C.2       13 UNK         0.5000 
     78 O           1.1072  -24.9420  -49.7793 O.2       13 UNK        -0.5000 
     79 N          -0.6421  -25.6475  -48.5247 N.am      14 UNK        -0.5000 
     80 CA         -1.7498  -25.4789  -49.4697 C.3       14 UNK         0.1400 
     81 CB         -1.5953  -26.4317  -50.6744 C.3       14 UNK        -0.1800 
     82 C          -1.9416  -24.0084  -49.8837 C.2       14 UNK         0.5000 
     83 O          -2.0421  -23.7106  -51.0732 O.2       14 UNK        -0.5000 
     84 N          -1.9466  -23.1113  -48.8871 N.am      15 UNK        -0.5000 
     85 CA         -2.0064  -21.6493  -49.0306 C.3       15 UNK         0.1400 
     86 CB         -3.3700  -21.2104  -49.6004 C.3       15 UNK        -0.1800 
     87 C          -0.8092  -21.0937  -49.8355 C.2       15 UNK         0.5000 
     88 O          -0.9683  -20.1746  -50.6426 O.2       15 UNK        -0.5000 
     89 N           0.3691  -21.6782  -49.5775 N.am      16 UNK        -0.5000 
     90 CA          1.6388  -21.5059  -50.2824 C.3       16 UNK         0.1400 
     91 CB          2.1968  -20.0850  -50.0789 C.3       16 UNK        -0.1800 
     92 C           1.5181  -21.9149  -51.7643 C.2       16 UNK         0.5000 
     93 O           1.6200  -21.0737  -52.6585 O.2       16 UNK        -0.5000 
     94 N           1.2774  -23.2157  -51.9806 N.am      17 UNK        -0.5000 
     95 CA          1.1835  -23.9054  -53.2725 C.3       17 UNK         0.1400 
     96 CB          2.5674  -23.9548  -53.9528 C.3       17 UNK        -0.1800 
     97 C           0.0795  -23.3484  -54.1967 C.2       17 UNK         0.5000 
     98 O           0.2737  -23.2607  -55.4106 O.2       17 UNK        -0.5000 
     99 N          -1.0598  -22.9791  -53.5950 N.am      18 UNK        -0.5000 
    100 CA        -2.2707  -22.4313  -54.2128 C.3       18 UNK         0.1400 
    101 CB        -2.9510  -23.4923  -55.1023 C.3       18 UNK        -0.1800 
    102 C         -2.0679  -21.0848  -54.9416 C.2       18 UNK         0.5000 
    103 O         -2.8908  -20.7230  -55.7840 O.2       18 UNK        -0.5000 
    104 N         -0.9969  -20.3518  -54.6037 N.am      19 UNK        -0.5000 
    105 CA        -0.6876  -19.0386  -55.1748 C.3       19 UNK         0.1400 
    106 CB         0.8270  -18.7955  -55.0857 C.3       19 UNK        -0.1800 
    107 C         -1.4852  -17.8916  -54.5202 C.2       19 UNK         0.5000 
    108 O         -1.4841  -16.7793  -55.0500 O.2       19 UNK        -0.5000 
    109 N         -2.1423  -18.1695  -53.3843 N.am      20 UNK        -0.5000 
    110 CA        -3.0448  -17.2595  -52.6805 C.3       20 UNK         0.1400 
    111 CB        -3.4617  -17.9155  -51.3551 C.3       20 UNK        -0.1800 
    112 C         -4.2992  -16.9118  -53.5045 C.2       20 UNK         0.5000 
    113 O         -4.7092  -17.6873  -54.3716 O.2       20 UNK        -0.5000 
    114 N         -4.9263  -15.7764  -53.1671 N.am      21 UNK        -0.5000 
    115 CA        -6.1481  -15.2568  -53.7944 C.3       21 UNK         0.1400 
    116 CB        -6.4828  -13.8948  -53.1668 C.3       21 UNK        -0.1800 
    117 C         -7.3652  -16.2026  -53.7086 C.2       21 UNK         0.5000 
    118 O         -8.2533  -16.1254  -54.5583 O.2       21 UNK        -0.5000 
    119 N         -7.3715  -17.0855  -52.7028 N.am      22 UNK        -0.5000 
    120 CA        -8.3266  -18.1914  -52.5500 C.3       22 UNK         0.1400 
    121 C         -8.0994  -19.3974  -53.5125 C.2       22 UNK         0.5000 
    122 N         -7.0140  -19.4621  -54.2754 N.am      22 UNK        -0.7600 
    123 O         -8.9412  -20.2890  -53.5823 O.2       22 UNK        -0.5000 
    124 C124       -8.4407  -18.6408  -51.0706 C.3       23 UNK        -0.0398 
    125 S125       -6.8504  -19.1238  -50.3067 S.3       23 UNK        -0.2404 
    126 C126       -7.1662  -18.6287  -48.5867 C.3       23 UNK        -0.0205 
    127 H127        0.3229  -16.2281  -52.5771 H         1 UNK         0.0600 
    128 H128        0.3213  -17.9299  -52.0914 H         1 UNK         0.0600 
    129 H129        1.8427  -17.0430  -52.1846 H         1 UNK         0.0600 
    130 H130       -0.5474  -18.1373  -50.0783 H         1 UNK         0.3000 
    131 H131        0.6103  -16.9976  -47.7938 H         1 UNK         0.0600 
    132 H132       -2.0802  -18.4177  -48.1247 H         1 UNK         0.0800 
    133 H133       -0.5423  -19.1584  -47.7857 H         1 UNK         0.0800 
    134 H134       -3.2193  -16.6123  -46.2098 H         1 UNK         0.0800 
    135 H135       -3.3703  -17.4235  -44.6724 H         1 UNK         0.0800 
    136 H136       -5.1446  -17.1415  -47.5100 H         1 UNK         0.1150 
    137 H137       -6.7442  -21.1142  -47.5892 H         1 UNK         0.1150 
    138 H138       -3.3055  -20.2080  -45.1876 H         1 UNK         0.1150 
    139 H139       -5.9356  -22.7704  -46.1332 H         1 UNK         0.0800 
    140 H140       -4.2556  -22.8634  -46.5096 H         1 UNK         0.0800 
    141 H141       -2.6757  -22.9883  -42.9074 H         1 UNK         0.0800 
    142 H142       -2.7840  -21.3431  -43.4008 H         1 UNK         0.0800 
    143 H143       -2.3113  -22.2090  -45.8491 H         1 UNK         0.0600 
    144 H144       -0.5137  -21.4322  -43.8712 H         1 UNK         0.3000 
    145 H145        2.4885  -21.7655  -45.7883 H         1 UNK         0.0600 
    146 H146        1.0600  -19.2632  -44.7686 H         1 UNK         0.0600 
    147 H147        2.7503  -19.4036  -45.2314 H         1 UNK         0.0600 
    148 H148        1.4973  -19.5510  -46.4515 H         1 UNK         0.0600 
    149 H149        1.7496  -20.8698  -43.1118 H         1 UNK         0.3000 
    150 H150        2.3842  -24.0015  -41.5470 H         1 UNK         0.0600 
    151 H151        4.6472  -22.9627  -41.7736 H         1 UNK         0.0600 
    152 H152        3.9384  -22.6099  -40.2060 H         1 UNK         0.0600 
    153 H153        3.9628  -21.3718  -41.4622 H         1 UNK         0.0600 
    154 H154        1.6665  -21.4305  -40.5234 H         1 UNK         0.3000 
    155 H155       -1.8516  -21.6994  -40.9411 H         1 UNK         0.0600 
    156 H156       -1.4194  -23.1262  -38.9366 H         1 UNK         0.0600 
    157 H157       -1.8606  -21.4904  -38.4753 H         1 UNK         0.0600 
    158 H158       -0.1756  -22.0063  -38.3934 H         1 UNK         0.0600 
    159 H159       -0.2968  -19.8003  -39.5377 H         1 UNK         0.3000 
    160 H160       -0.1788  -17.7063  -40.3288 H         1 UNK         0.0600 
    161 H161        2.0461  -16.9879  -41.2200 H         1 UNK         0.0600 
    162 H162        2.0396  -18.3275  -42.3632 H         1 UNK         0.0600 
    163 H163        2.1155  -18.6413  -40.6320 H         1 UNK         0.0600 
    164 H164       -0.1768  -17.3923  -43.3064 H         1 UNK         0.3000 
    165 H165       -2.1059  -15.5654  -43.9312 H         1 UNK         0.0600 
    166 H166       -1.1288  -13.1666  -42.3017 H         1 UNK         0.0600 
    167 H167       -2.0214  -13.0770  -43.8183 H         1 UNK         0.0600 
    168 H168       -2.7832  -13.7591  -42.3904 H         1 UNK         0.0600 
    169 H169       -0.3200  -15.1845  -45.1805 H         1 UNK         0.3000 
    170 H170        3.0907  -14.2889  -44.4896 H         1 UNK         0.0600 
    171 H171        1.4660  -16.5294  -45.7948 H         1 UNK         0.0600 
    172 H172        3.0924  -16.0667  -46.2929 H         1 UNK         0.0600 
    173 H173        2.8042  -16.6928  -44.6759 H         1 UNK         0.0600 
    174 H174        0.8350  -13.9142  -46.4343 H         1 UNK         0.3000 
    175 H175        2.1915  -10.7668  -47.3405 H         1 UNK         0.0600 
    176 H176        1.8969  -13.2055  -49.1614 H         1 UNK         0.0600 
    177 H177        1.8985  -11.5204  -49.6758 H         1 UNK         0.0600 
    178 H178        3.3541  -12.2341  -48.9961 H         1 UNK         0.0600 
    179 H179       -0.1398  -12.1390  -48.2501 H         1 UNK         0.3000 
    180 H180       -2.3108  -11.0735  -45.6632 H         1 UNK         0.0600 
    181 H181       -1.9869   -9.9125  -48.4784 H         1 UNK         0.0600 
    182 H182       -2.0422   -9.0001  -46.9788 H         1 UNK         0.0600 
    183 H183       -3.4631   -9.8834  -47.5142 H         1 UNK         0.0600 
    184 H184       -3.0022  -12.9286  -46.5571 H         1 UNK         0.3000 
    185 H185       -3.6443  -14.4930  -47.8064 H         1 UNK         0.0600 
    186 H186       -4.5582  -15.1149  -49.9770 H         1 UNK         0.0600 
    187 H187       -4.6188  -13.3681  -49.8482 H         1 UNK         0.0600 
    188 H188       -3.3691  -14.1216  -50.8295 H         1 UNK         0.0600 
    189 H189       -2.2272  -15.9863  -49.6258 H         1 UNK         0.3000 
    190 H190       -0.5505  -24.2526  -43.4978 H         1 UNK         0.3000 
    191 H191       -1.4235  -26.7825  -44.3700 H         1 UNK         0.0600 
    192 H192        1.2040  -25.9490  -43.0281 H         1 UNK         0.0600 
    193 H193       -0.2949  -26.3673  -42.2008 H         1 UNK         0.0600 
    194 H194        0.5796  -27.5924  -43.1069 H         1 UNK         0.0600 
    195 H195        0.9217  -24.6362  -45.8213 H         1 UNK         0.3000 
    196 H196        2.0131  -26.6559  -47.6665 H         1 UNK         0.0600 
    197 H197        3.4742  -24.8543  -46.6939 H         1 UNK         0.0600 
    198 H198        2.4995  -23.6367  -47.5126 H         1 UNK         0.0600 
    199 H199        3.4204  -24.8050  -48.4478 H         1 UNK         0.0600 
    200 H200       -0.9171  -25.9470  -47.5990 H         1 UNK         0.3000 
    201 H201       -2.6565  -25.7665  -48.9355 H         1 UNK         0.0600 
    202 H202       -2.4755  -26.3922  -51.3171 H         1 UNK         0.0600 
    203 H203       -1.4790  -27.4648  -50.3472 H         1 UNK         0.0600 
    204 H204       -0.7325  -26.1757  -51.2899 H         1 UNK         0.0600 
    205 H205       -1.8172  -23.4630  -47.9461 H         1 UNK         0.3000 
    206 H206       -1.9243  -21.2382  -48.0243 H         1 UNK         0.0600 
    207 H207       -4.1920  -21.7187  -49.0979 H         1 UNK         0.0600 
    208 H208       -3.4539  -21.4191  -50.6674 H         1 UNK         0.0600 
    209 H209       -3.5215  -20.1405  -49.4596 H         1 UNK         0.0600 
    210 H210        0.3764  -22.3695  -48.8358 H         1 UNK         0.3000 
    211 H211        2.3422  -22.1999  -49.8196 H         1 UNK         0.0600 
    212 H212        2.2511  -19.8263  -49.0215 H         1 UNK         0.0600 
    213 H213        3.2029  -20.0016  -50.4907 H         1 UNK         0.0600 
    214 H214        1.5822  -19.3397  -50.5769 H         1 UNK         0.0600 
    215 H215        1.1783  -23.8211  -51.1654 H         1 UNK         0.3000 
    216 H216        0.8931  -24.9318  -53.0438 H         1 UNK         0.0600 
    217 H217        2.5430  -24.5776  -54.8477 H         1 UNK         0.0600 
    218 H218        2.9050  -22.9623  -54.2532 H         1 UNK         0.0600 
    219 H219        3.3190  -24.3776  -53.2862 H         1 UNK         0.0600 
    220 H220       -1.1426  -23.1354  -52.5922 H         1 UNK         0.3000 
    221 H221       -2.9489  -22.2172  -53.3855 H         1 UNK         0.0600 
    222 H222       -2.3594  -23.7155  -55.9905 H         1 UNK         0.0600 
    223 H223       -3.1031  -24.4236  -54.5564 H         1 UNK         0.0600 
    224 H224       -3.9313  -23.1533  -55.4391 H         1 UNK         0.0600 
    225 H225       -0.3481  -20.7152  -53.9155 H         1 UNK         0.3000 
    226 H226       -0.9550  -19.0438  -56.2335 H         1 UNK         0.0600 
    227 H227        1.3768  -19.5473  -55.6523 H         1 UNK         0.0600 
    228 H228        1.0952  -17.8204  -55.4940 H         1 UNK         0.0600 
    229 H229        1.1852  -18.8321  -54.0583 H         1 UNK         0.0600 
    230 H230       -2.0808  -19.1104  -53.0238 H         1 UNK         0.3000 
    231 H231       -2.5003  -16.3372  -52.4680 H         1 UNK         0.0600 
    232 H232       -4.1590  -17.2927  -50.7955 H         1 UNK         0.0600 
    233 H233       -2.6031  -18.0941  -50.7121 H         1 UNK         0.0600 
    234 H234       -3.9532  -18.8738  -51.5275 H         1 UNK         0.0600 
    235 H235       -4.5306  -15.1994  -52.4410 H         1 UNK         0.3000 
    236 H236       -5.9330  -15.1034  -54.8538 H         1 UNK         0.0600 
    237 H237       -5.6680  -13.1838  -53.3058 H         1 UNK         0.0600 
    238 H238       -7.3720  -13.4603  -53.6255 H         1 UNK         0.0600 
    239 H239       -6.6747  -13.9817  -52.0965 H         1 UNK         0.0600 
    240 H240       -6.5972  -17.0874  -52.0563 H         1 UNK         0.3000 
    241 H241       -9.3078  -17.8004  -52.8259 H         1 UNK         0.0600 
    242 H242       -6.2938  -18.7459  -54.2440 H         1 UNK         0.3800 
    243 H243       -6.8971  -20.2479  -54.8942 H         1 UNK         0.3800 
    244 H244       -8.8702  -17.8213  -50.4928 H         1 UNK         0.0800 
    245 H245       -9.1444  -19.4685  -50.9670 H         1 UNK         0.0800 
    246 H246       -8.1128  -19.0578  -48.2545 H         1 UNK         0.0800 
    247 H247       -7.2849  -17.5451  -48.5395 H         1 UNK         0.0800 
@<TRIPOS>BOND
     1    1    2 1    
     2    1  127 1    
     3    1  128 1    
     4    1  129 1    
     5    2    3 2    
     6    2    4 am   BACKBONE|DICT|INTERRES
     7    4    5 1    
     8    4  130 1    
     9    5    6 1    
    10    5   65 1    
    11    5  131 1    
    12    6    7 1    
    13    6  132 1    
    14    6  133 1    
    15    7    8 1    
    16    8    9 1    
    17    8  134 1    
    18    8  135 1    
    19    9   10 ar   
    20    9   14 ar   
    21   10   11 ar   
    22   10  136 1    
    23   11   12 ar   
    24   11  126 1    
    25   12   13 ar   
    26   12  137 1    
    27   13   14 ar   
    28   13   15 1    
    29   14  138 1    
    30   15   16 1    
    31   15  139 1    
    32   15  140 1    
    33   16   17 1    
    34   17   18 1    
    35   17  141 1    
    36   17  142 1    
    37   18   19 1    
    38   18   67 1    
    39   18  143 1    
    40   19   20 am   BACKBONE|DICT|INTERRES
    41   19  144 1    
    42   20   21 2    
    43   20   22 1    
    44   22   23 1    
    45   22   24 1    
    46   22  145 1    
    47   23  146 1    
    48   23  147 1    
    49   23  148 1    
    50   24   25 am   BACKBONE|DICT|INTERRES
    51   24  149 1    
    52   25   26 2    
    53   25   27 1    
    54   27   28 1    
    55   27   29 1    
    56   27  150 1    
    57   28  151 1    
    58   28  152 1    
    59   28  153 1    
    60   29   30 am   BACKBONE|DICT|INTERRES
    61   29  154 1    
    62   30   31 2    
    63   30   32 1    
    64   32   33 1    
    65   32   34 1    
    66   32  155 1    
    67   33  156 1    
    68   33  157 1    
    69   33  158 1    
    70   34   35 am   BACKBONE|DICT|INTERRES
    71   34  159 1    
    72   35   36 2    
    73   35   37 1    
    74   37   38 1    
    75   37   39 1    
    76   37  160 1    
    77   38  161 1    
    78   38  162 1    
    79   38  163 1    
    80   39   40 am   BACKBONE|DICT|INTERRES
    81   39  164 1    
    82   40   41 2    
    83   40   42 1    
    84   42   43 1    
    85   42   44 1    
    86   42  165 1    
    87   43  166 1    
    88   43  167 1    
    89   43  168 1    
    90   44   45 am   BACKBONE|DICT|INTERRES
    91   44  169 1    
    92   45   46 2    
    93   45   47 1    
    94   47   48 1    
    95   47   49 1    
    96   47  170 1    
    97   48  171 1    
    98   48  172 1    
    99   48  173 1    
   100   49   50 am   BACKBONE|DICT|INTERRES
   101   49  174 1    
   102   50   51 2    
   103   50   52 1    
   104   52   53 1    
   105   52   54 1    
   106   52  175 1    
   107   53  176 1    
   108   53  177 1    
   109   53  178 1    
   110   54   55 am   BACKBONE|DICT|INTERRES
   111   54  179 1    
   112   55   56 2    
   113   55   57 1    
   114   57   58 1    
   115   57   59 1    
   116   57  180 1    
   117   58  181 1    
   118   58  182 1    
   119   58  183 1    
   120   59   60 am   BACKBONE|DICT|INTERRES
   121   59  184 1    
   122   60   61 2    
   123   60   62 1    
   124   62   63 1    
   125   62   64 1    
   126   62  185 1    
   127   63  186 1    
   128   63  187 1    
   129   63  188 1    
   130   64   65 am   BACKBONE|DICT|INTERRES
   131   64  189 1    
   132   65   66 2    
   133   67   68 2    
   134   67   69 am   BACKBONE|DICT|INTERRES
   135   69   70 1    
   136   69  190 1    
   137   70   71 1    
   138   70   72 1    
   139   70  191 1    
   140   71  192 1    
   141   71  193 1    
   142   71  194 1    
   143   72   73 2    
   144   72   74 am   BACKBONE|DICT|INTERRES
   145   74   75 1    
   146   74  195 1    
   147   75   76 1    
   148   75   77 1    
   149   75  196 1    
   150   76  197 1    
   151   76  198 1    
   152   76  199 1    
   153   77   78 2    
   154   77   79 am   BACKBONE|DICT|INTERRES
   155   79   80 1    
   156   79  200 1    
   157   80   81 1    
   158   80   82 1    
   159   80  201 1    
   160   81  202 1    
   161   81  203 1    
   162   81  204 1    
   163   82   83 2    
   164   82   84 am   BACKBONE|DICT|INTERRES
   165   84   85 1    
   166   84  205 1    
   167   85   86 1    
   168   85   87 1    
   169   85  206 1    
   170   86  207 1    
   171   86  208 1    
   172   86  209 1    
   173   87   88 2    
   174   87   89 am   BACKBONE|DICT|INTERRES
   175   89   90 1    
   176   89  210 1    
   177   90   91 1    
   178   90   92 1    
   179   90  211 1    
   180   91  212 1    
   181   91  213 1    
   182   91  214 1    
   183   92   93 2    
   184   92   94 am   BACKBONE|DICT|INTERRES
   185   94   95 1    
   186   94  215 1    
   187   95   96 1    
   188   95   97 1    
   189   95  216 1    
   190   96  217 1    
   191   96  218 1    
   192   96  219 1    
   193   97   98 2    
   194   97   99 am   BACKBONE|DICT|INTERRES
   195   99  100 1    
   196   99  220 1    
   197  100  101 1    
   198  100  102 1    
   199  100  221 1    
   200  101  222 1    
   201  101  223 1    
   202  101  224 1    
   203  102  103 2    
   204  102  104 am   BACKBONE|DICT|INTERRES
   205  104  105 1    
   206  104  225 1    
   207  105  106 1    
   208  105  107 1    
   209  105  226 1    
   210  106  227 1    
   211  106  228 1    
   212  106  229 1    
   213  107  108 2    
   214  107  109 am   BACKBONE|DICT|INTERRES
   215  109  110 1    
   216  109  230 1    
   217  110  111 1    
   218  110  112 1    
   219  110  231 1    
   220  111  232 1    
   221  111  233 1    
   222  111  234 1    
   223  112  113 2    
   224  112  114 am   BACKBONE|DICT|INTERRES
   225  114  115 1    
   226  114  235 1    
   227  115  116 1    
   228  115  117 1    
   229  115  236 1    
   230  116  237 1    
   231  116  238 1    
   232  116  239 1    
   233  117  118 2    
   234  117  119 am   BACKBONE|DICT|INTERRES
   235  119  120 1    
   236  119  240 1    
   237  120  121 1    
   238  120  124 1    
   239  120  241 1    
   240  121  122 am   BACKBONE|DICT|INTERRES
   241  121  123 2    
   242  122  242 1    
   243  122  243 1    
   244  124  125 1    
   245  124  244 1    
   246  124  245 1    
   247  125  126 1    
   248  126  246 1    
   249  126  247 1    
@<TRIPOS>SUBSTRUCTURE
     1 UNK         1 GROUP             0       ****    0 ROOT    
