@<TRIPOS>MOLECULE
3R540
247   249    1
SMALL
USER_CHARGES


@<TRIPOS>ATOM
      1 CA         -2.3235  -10.7474  -48.5409 C.3       0 UNK        -0.1800 
      2 C          -3.6330  -11.5085  -48.7432 C.2       0 UNK         0.5000 
      3 O          -4.6283  -10.9005  -49.1323 O.2       0 UNK        -0.5000 
      4 N          -3.6878  -12.8278  -48.5122 N.am      1 UNK        -0.5000 
      5 CA         -2.6284  -13.6754  -47.9555 C.3       1 UNK         0.1400 
      6 C6         -2.9127  -15.1710  -48.2395 C.3       23 UNK        -0.0398 
      7 S7         -1.3986  -16.1841  -48.3030 S.3       23 UNK        -0.2404 
      8 C8         -0.8308  -15.8998  -50.0199 C.3       23 UNK        -0.0205 
      9 C9         -0.0585  -17.0758  -50.6161 C.ar      23 UNK        -0.0193 
     10 C10        -0.2215  -17.3987  -51.9673 C.ar      23 UNK        -0.1150 
     11 C11         0.4633  -18.4798  -52.5325 C.ar      23 UNK        -0.0193 
     12 C12         1.3041  -19.2564  -51.7292 C.ar      23 UNK        -0.1150 
     13 C13         1.4904  -18.9378  -50.3826 C.ar      23 UNK        -0.0193 
     14 C14         0.8232  -17.8357  -49.8415 C.ar      23 UNK        -0.1150 
     15 C15         2.3922  -19.7945  -49.5034 C.3       23 UNK        -0.0205 
     16 S16         1.6135  -21.3828  -49.0596 S.3       23 UNK        -0.2404 
     17 C17        -0.0034  -20.8193  -48.4390 C.3       23 UNK        -0.0398 
     18 CA         -0.6695  -21.8218  -47.4734 C.3       11 UNK         0.1400 
     19 N          -0.0038  -21.8888  -46.1662 N.am      11 UNK        -0.5000 
     20 C          -0.3149  -22.7724  -45.2059 C.2       10 UNK         0.5000 
     21 O          -1.1645  -23.6514  -45.3407 O.2       10 UNK        -0.5000 
     22 CA          0.3914  -22.6227  -43.8472 C.3       10 UNK         0.1400 
     23 CB          1.8136  -23.2000  -43.8950 C.3       10 UNK        -0.1800 
     24 N           0.4221  -21.2366  -43.3805 N.am      10 UNK        -0.5000 
     25 C          -0.6675  -20.5155  -43.0763 C.2       9 UNK         0.5000 
     26 O          -1.8118  -20.9669  -43.1011 O.2       9 UNK        -0.5000 
     27 CA         -0.4539  -19.0277  -42.7405 C.3       9 UNK         0.1400 
     28 CB         -0.0259  -18.8512  -41.2770 C.3       9 UNK        -0.1800 
     29 N           0.5244  -18.3901  -43.6194 N.am      9 UNK        -0.5000 
     30 C           0.3925  -18.2781  -44.9490 C.2       8 UNK         0.5000 
     31 O          -0.5914  -18.6680  -45.5769 O.2       8 UNK        -0.5000 
     32 CA          1.6036  -17.7221  -45.7152 C.3       8 UNK         0.1400 
     33 CB          1.6468  -16.1895  -45.6848 C.3       8 UNK        -0.1800 
     34 N           2.8640  -18.2635  -45.2114 N.am      8 UNK        -0.5000 
     35 C           3.2381  -19.5415  -45.3596 C.2       7 UNK         0.5000 
     36 O           2.5657  -20.3844  -45.9514 O.2       7 UNK        -0.5000 
     37 CA          4.5656  -19.9512  -44.6994 C.3       7 UNK         0.1400 
     38 CB          5.7575  -19.5481  -45.5804 C.3       7 UNK        -0.1800 
     39 N           4.7244  -19.3713  -43.3649 N.am      7 UNK        -0.5000 
     40 C           3.9631  -19.6950  -42.3102 C.2       6 UNK         0.5000 
     41 O           3.0688  -20.5387  -42.3462 O.2       6 UNK        -0.5000 
     42 CA          4.2164  -18.9171  -41.0068 C.3       6 UNK         0.1400 
     43 CB          5.3451  -19.5726  -40.1973 C.3       6 UNK        -0.1800 
     44 N           4.5273  -17.5003  -41.2170 N.am      6 UNK        -0.5000 
     45 C           3.6976  -16.6150  -41.7833 C.2       5 UNK         0.5000 
     46 O           2.6041  -16.9096  -42.2702 O.2       5 UNK        -0.5000 
     47 CA          4.1723  -15.1565  -41.8329 C.3       5 UNK         0.1400 
     48 CB          4.5022  -14.7325  -43.2724 C.3       5 UNK        -0.1800 
     49 N           3.1227  -14.2926  -41.3017 N.am      5 UNK        -0.5000 
     50 C           2.9587  -14.0176  -40.0015 C.2       4 UNK         0.5000 
     51 O           3.7318  -14.3921  -39.1186 O.2       4 UNK        -0.5000 
     52 CA          1.7218  -13.1842  -39.6221 C.3       4 UNK         0.1400 
     53 CB          2.0360  -11.6828  -39.7139 C.3       4 UNK        -0.1800 
     54 N           0.5557  -13.4814  -40.4564 N.am      4 UNK        -0.5000 
     55 C          -0.1997  -14.5852  -40.3441 C.2       3 UNK         0.5000 
     56 O           0.0245  -15.4788  -39.5276 O.2       3 UNK        -0.5000 
     57 CA         -1.4228  -14.7066  -41.2752 C.3       3 UNK         0.1400 
     58 CB         -2.7197  -14.4598  -40.4878 C.3       3 UNK        -0.1800 
     59 N          -1.3591  -13.7538  -42.3877 N.am      3 UNK        -0.5000 
     60 C          -1.0718  -14.0859  -43.6507 C.2       2 UNK         0.5000 
     61 O          -0.9273  -15.2438  -44.0417 O.2       2 UNK        -0.5000 
     62 CA         -0.8522  -12.9124  -44.6225 C.3       2 UNK         0.1400 
     63 CB          0.6180  -12.4631  -44.5864 C.3       2 UNK        -0.1800 
     64 N          -1.2054  -13.2490  -46.0014 N.am      2 UNK        -0.5000 
     65 C          -2.4588  -13.3919  -46.4473 C.2       1 UNK         0.5000 
     66 O          -3.4584  -13.2703  -45.7344 O.2       1 UNK        -0.5000 
     67 C          -2.1722  -21.4984  -47.3551 C.2       11 UNK         0.5000 
     68 O          -2.9659  -22.0613  -48.1099 O.2       11 UNK        -0.5000 
     69 N          -2.5423  -20.6117  -46.4224 N.am      12 UNK        -0.5000 
     70 CA         -3.9309  -20.2765  -46.1146 C.3       12 UNK         0.1400 
     71 CB         -3.9790  -19.0262  -45.2237 C.3       12 UNK        -0.1800 
     72 C          -4.6838  -21.4567  -45.4738 C.2       12 UNK         0.5000 
     73 O          -5.7955  -21.7649  -45.9029 O.2       12 UNK        -0.5000 
     74 N          -4.0530  -22.1216  -44.4948 N.am      13 UNK        -0.5000 
     75 CA         -4.5868  -23.2952  -43.7978 C.3       13 UNK         0.1400 
     76 CB         -3.6844  -23.6371  -42.6027 C.3       13 UNK        -0.1800 
     77 C          -4.7591  -24.5205  -44.7149 C.2       13 UNK         0.5000 
     78 O          -5.7671  -25.2203  -44.6122 O.2       13 UNK        -0.5000 
     79 N          -3.7903  -24.7400  -45.6141 N.am      14 UNK        -0.5000 
     80 CA         -3.8156  -25.7897  -46.6361 C.3       14 UNK         0.1400 
     81 CB         -2.3872  -25.9975  -47.1652 C.3       14 UNK        -0.1800 
     82 C          -4.7709  -25.4843  -47.8075 C.2       14 UNK         0.5000 
     83 O          -5.0367  -26.3785  -48.6110 O.2       14 UNK        -0.5000 
     84 N          -5.2345  -24.2289  -47.9019 N.am      15 UNK        -0.5000 
     85 CA         -6.0567  -23.6449  -48.9663 C.3       15 UNK         0.1400 
     86 CB         -7.4190  -24.3579  -49.0873 C.3       15 UNK        -0.1800 
     87 C          -5.3243  -23.5277  -50.3195 C.2       15 UNK         0.5000 
     88 O          -5.9693  -23.2995  -51.3414 O.2       15 UNK        -0.5000 
     89 N          -3.9880  -23.6196  -50.3054 N.am      16 UNK        -0.5000 
     90 CA         -3.1097  -23.4218  -51.4587 C.3       16 UNK         0.1400 
     91 CB         -1.6836  -23.8501  -51.0819 C.3       16 UNK        -0.1800 
     92 C          -3.1239  -21.9646  -51.9510 C.2       16 UNK         0.5000 
     93 O          -3.0563  -21.7250  -53.1575 O.2       16 UNK        -0.5000 
     94 N          -3.2586  -21.0219  -51.0074 N.am      17 UNK        -0.5000 
     95 CA         -3.4369  -19.5983  -51.2877 C.3       17 UNK         0.1400 
     96 CB         -3.2852  -18.8008  -49.9850 C.3       17 UNK        -0.1800 
     97 C          -4.7977  -19.3040  -51.9466 C.2       17 UNK         0.5000 
     98 O          -4.8613  -18.5062  -52.8812 O.2       17 UNK        -0.5000 
     99 N          -5.8528  -19.9767  -51.4637 N.am      18 UNK        -0.5000 
    100 CA        -7.2229  -19.8608  -51.9682 C.3       18 UNK         0.1400 
    101 CB        -8.1959  -20.4661  -50.9447 C.3       18 UNK        -0.1800 
    102 C         -7.3988  -20.5183  -53.3489 C.2       18 UNK         0.5000 
    103 O         -8.0753  -19.9559  -54.2103 O.2       18 UNK        -0.5000 
    104 N         -6.7586  -21.6795  -53.5436 N.am      19 UNK        -0.5000 
    105 CA        -6.7027  -22.4123  -54.8106 C.3       19 UNK         0.1400 
    106 CB        -6.2015  -23.8387  -54.5345 C.3       19 UNK        -0.1800 
    107 C         -5.8145  -21.7360  -55.8743 C.2       19 UNK         0.5000 
    108 O         -5.9068  -22.0992  -57.0475 O.2       19 UNK        -0.5000 
    109 N         -4.9732  -20.7834  -55.4444 N.am      20 UNK        -0.5000 
    110 CA        -3.9862  -20.0391  -56.2268 C.3       20 UNK         0.1400 
    111 CB        -4.6682  -19.1474  -57.2851 C.3       20 UNK        -0.1800 
    112 C         -2.9046  -20.9678  -56.8103 C.2       20 UNK         0.5000 
    113 O         -2.6180  -20.9237  -58.0089 O.2       20 UNK        -0.5000 
    114 N         -2.3026  -21.7837  -55.9314 N.am      21 UNK        -0.5000 
    115 CA        -1.2460  -22.7579  -56.2393 C.3       21 UNK         0.1400 
    116 CB        -0.9046  -23.5332  -54.9580 C.3       21 UNK        -0.1800 
    117 C          0.0326  -22.1468  -56.8535 C.2       21 UNK         0.5000 
    118 O          0.8104  -22.8643  -57.4836 O.2       21 UNK        -0.5000 
    119 N          0.2071  -20.8327  -56.6764 N.am      22 UNK        -0.5000 
    120 CA         1.2206  -19.9966  -57.3324 C.3       22 UNK         0.1400 
    121 C          1.0100  -19.8225  -58.8675 C.2       22 UNK         0.5000 
    122 N         -0.1598  -20.1157  -59.4258 N.am      22 UNK        -0.7600 
    123 O          1.9323  -19.4137  -59.5675 O.2       22 UNK        -0.5000 
    124 C124        1.3194  -18.6088  -56.6490 C.3       23 UNK        -0.0398 
    125 S125        1.8679  -18.6896  -54.9102 S.3       23 UNK        -0.2404 
    126 C126        0.2883  -18.8139  -54.0064 C.3       23 UNK        -0.0205 
    127 H127       -1.5047  -11.2150  -49.0870 H         1 UNK         0.0600 
    128 H128       -2.4184   -9.7254  -48.9082 H         1 UNK         0.0600 
    129 H129       -2.0620  -10.6948  -47.4845 H         1 UNK         0.0600 
    130 H130       -4.5787  -13.2878  -48.6305 H         1 UNK         0.3000 
    131 H131       -1.7017  -13.4109  -48.4673 H         1 UNK         0.0600 
    132 H132       -3.5882  -15.5966  -47.4946 H         1 UNK         0.0800 
    133 H133       -3.4301  -15.2878  -49.1926 H         1 UNK         0.0800 
    134 H134       -0.1959  -15.0134  -50.0414 H         1 UNK         0.0800 
    135 H135       -1.6924  -15.6787  -50.6509 H         1 UNK         0.0800 
    136 H136       -0.8845  -16.8057  -52.5816 H         1 UNK         0.1150 
    137 H137        1.8197  -20.1060  -52.1548 H         1 UNK         0.1150 
    138 H138        0.9711  -17.5798  -48.8054 H         1 UNK         0.1150 
    139 H139        2.6583  -19.2618  -48.5895 H         1 UNK         0.0800 
    140 H140        3.3298  -19.9916  -50.0248 H         1 UNK         0.0800 
    141 H141       -0.6257  -20.6530  -49.3207 H         1 UNK         0.0800 
    142 H142        0.1070  -19.8498  -47.9515 H         1 UNK         0.0800 
    143 H143       -0.6018  -22.8169  -47.9178 H         1 UNK         0.0600 
    144 H144        0.7460  -21.2236  -46.0018 H         1 UNK         0.3000 
    145 H145       -0.1771  -23.2017  -43.1165 H         1 UNK         0.0600 
    146 H146        2.2814  -23.1751  -42.9108 H         1 UNK         0.0600 
    147 H147        1.8007  -24.2403  -44.2222 H         1 UNK         0.0600 
    148 H148        2.4537  -22.6485  -44.5829 H         1 UNK         0.0600 
    149 H149        1.3380  -20.8112  -43.2782 H         1 UNK         0.3000 
    150 H150       -1.4056  -18.5115  -42.8819 H         1 UNK         0.0600 
    151 H151        0.9172  -19.3561  -41.0691 H         1 UNK         0.0600 
    152 H152       -0.7754  -19.2612  -40.5992 H         1 UNK         0.0600 
    153 H153        0.0992  -17.7979  -41.0277 H         1 UNK         0.0600 
    154 H154        1.3511  -17.9980  -43.1762 H         1 UNK         0.3000 
    155 H155        1.5034  -18.0361  -46.7529 H         1 UNK         0.0600 
    156 H156        1.6909  -15.8131  -44.6632 H         1 UNK         0.0600 
    157 H157        0.7529  -15.7704  -46.1471 H         1 UNK         0.0600 
    158 H158        2.5075  -15.8023  -46.2298 H         1 UNK         0.0600 
    159 H159        3.4388  -17.6463  -44.6583 H         1 UNK         0.3000 
    160 H160        4.5669  -21.0389  -44.6009 H         1 UNK         0.0600 
    161 H161        5.8292  -18.4658  -45.6947 H         1 UNK         0.0600 
    162 H162        5.6665  -19.9785  -46.5787 H         1 UNK         0.0600 
    163 H163        6.6974  -19.9045  -45.1585 H         1 UNK         0.0600 
    164 H164        5.4383  -18.6674  -43.2489 H         1 UNK         0.3000 
    165 H165        3.3012  -18.9678  -40.4133 H         1 UNK         0.0600 
    166 H166        5.4669  -19.0900  -39.2274 H         1 UNK         0.0600 
    167 H167        6.3003  -19.5211  -40.7212 H         1 UNK         0.0600 
    168 H168        5.1300  -20.6255  -40.0095 H         1 UNK         0.0600 
    169 H169        5.4084  -17.1759  -40.8449 H         1 UNK         0.3000 
    170 H170        5.0783  -15.0489  -41.2324 H         1 UNK         0.0600 
    171 H171        5.2578  -15.3857  -43.7105 H         1 UNK         0.0600 
    172 H172        3.6252  -14.7632  -43.9177 H         1 UNK         0.0600 
    173 H173        4.8967  -13.7166  -43.2993 H         1 UNK         0.0600 
    174 H174        2.4065  -14.0036  -41.9499 H         1 UNK         0.3000 
    175 H175        1.4723  -13.4144  -38.5839 H         1 UNK         0.0600 
    176 H176        2.2768  -11.3815  -40.7342 H         1 UNK         0.0600 
    177 H177        1.1916  -11.0818  -39.3760 H         1 UNK         0.0600 
    178 H178        2.8893  -11.4239  -39.0854 H         1 UNK         0.0600 
    179 H179        0.3074  -12.7907  -41.1464 H         1 UNK         0.3000 
    180 H180       -1.4438  -15.7336  -41.6464 H         1 UNK         0.0600 
    181 H181       -2.7520  -13.4540  -40.0672 H         1 UNK         0.0600 
    182 H182       -2.8164  -15.1653  -39.6615 H         1 UNK         0.0600 
    183 H183       -3.5954  -14.5857  -41.1248 H         1 UNK         0.0600 
    184 H184       -1.5121  -12.7825  -42.1570 H         1 UNK         0.3000 
    185 H185       -1.4772  -12.0747  -44.3053 H         1 UNK         0.0600 
    186 H186        0.9156  -12.1657  -43.5803 H         1 UNK         0.0600 
    187 H187        1.2915  -13.2596  -44.9051 H         1 UNK         0.0600 
    188 H188        0.7837  -11.6045  -45.2375 H         1 UNK         0.0600 
    189 H189       -0.4345  -13.4102  -46.6323 H         1 UNK         0.3000 
    190 H190       -1.8241  -20.1174  -45.8993 H         1 UNK         0.3000 
    191 H191       -4.4345  -20.0357  -47.0525 H         1 UNK         0.0600 
    192 H192       -5.0090  -18.7373  -45.0118 H         1 UNK         0.0600 
    193 H193       -3.4953  -18.1786  -45.7105 H         1 UNK         0.0600 
    194 H194       -3.4801  -19.1893  -44.2686 H         1 UNK         0.0600 
    195 H195       -3.1522  -21.7768  -44.1716 H         1 UNK         0.3000 
    196 H196       -5.5735  -23.0309  -43.4120 H         1 UNK         0.0600 
    197 H197       -2.6683  -23.8725  -42.9208 H         1 UNK         0.0600 
    198 H198       -3.6299  -22.8054  -41.9000 H         1 UNK         0.0600 
    199 H199       -4.0672  -24.5000  -42.0564 H         1 UNK         0.0600 
    200 H200       -2.9529  -24.1622  -45.5823 H         1 UNK         0.3000 
    201 H201       -4.1493  -26.7200  -46.1720 H         1 UNK         0.0600 
    202 H202       -2.0014  -25.0957  -47.6428 H         1 UNK         0.0600 
    203 H203       -2.3526  -26.8004  -47.9026 H         1 UNK         0.0600 
    204 H204       -1.7039  -26.2679  -46.3599 H         1 UNK         0.0600 
    205 H205       -4.9433  -23.5759  -47.1860 H         1 UNK         0.3000 
    206 H206       -6.2552  -22.6197  -48.6510 H         1 UNK         0.0600 
    207 H207       -7.9144  -24.4273  -48.1188 H         1 UNK         0.0600 
    208 H208       -8.0883  -23.8135  -49.7540 H         1 UNK         0.0600 
    209 H209       -7.3170  -25.3669  -49.4870 H         1 UNK         0.0600 
    210 H210       -3.5392  -23.6942  -49.4018 H         1 UNK         0.3000 
    211 H211       -3.4620  -24.0581  -52.2729 H         1 UNK         0.0600 
    212 H212       -1.0070  -23.7517  -51.9310 H         1 UNK         0.0600 
    213 H213       -1.6560  -24.8925  -50.7642 H         1 UNK         0.0600 
    214 H214       -1.2803  -23.2420  -50.2718 H         1 UNK         0.0600 
    215 H215       -3.2951  -21.3154  -50.0378 H         1 UNK         0.3000 
    216 H216       -2.6512  -19.2826  -51.9776 H         1 UNK         0.0600 
    217 H217       -4.0225  -19.0967  -49.2390 H         1 UNK         0.0600 
    218 H218       -3.4139  -17.7337  -50.1676 H         1 UNK         0.0600 
    219 H219       -2.2954  -18.9356  -49.5501 H         1 UNK         0.0600 
    220 H220       -5.7006  -20.6366  -50.7172 H         1 UNK         0.3000 
    221 H221       -7.4585  -18.7994  -52.0723 H         1 UNK         0.0600 
    222 H222       -8.1136  -19.9681  -49.9785 H         1 UNK         0.0600 
    223 H223       -8.0127  -21.5296  -50.7912 H         1 UNK         0.0600 
    224 H224       -9.2285  -20.3576  -51.2788 H         1 UNK         0.0600 
    225 H225       -6.2972  -22.1220  -52.7523 H         1 UNK         0.3000 
    226 H226       -7.7142  -22.4750  -55.2168 H         1 UNK         0.0600 
    227 H227       -5.1914  -23.8344  -54.1231 H         1 UNK         0.0600 
    228 H228       -6.8499  -24.3550  -53.8263 H         1 UNK         0.0600 
    229 H229       -6.1817  -24.4328  -55.4489 H         1 UNK         0.0600 
    230 H230       -4.9650  -20.5959  -54.4514 H         1 UNK         0.3000 
    231 H231       -3.4770  -19.3788  -55.5231 H         1 UNK         0.0600 
    232 H232       -5.1633  -19.7351  -58.0585 H         1 UNK         0.0600 
    233 H233       -3.9385  -18.5064  -57.7811 H         1 UNK         0.0600 
    234 H234       -5.4144  -18.4971  -56.8285 H         1 UNK         0.0600 
    235 H235       -2.6089  -21.7536  -54.9604 H         1 UNK         0.3000 
    236 H236       -1.6515  -23.4603  -56.9699 H         1 UNK         0.0600 
    237 H237       -1.7839  -24.0348  -54.5534 H         1 UNK         0.0600 
    238 H238       -0.1529  -24.2998  -55.1501 H         1 UNK         0.0600 
    239 H239       -0.5100  -22.8707  -54.1866 H         1 UNK         0.0600 
    240 H240       -0.4956  -20.3414  -56.1485 H         1 UNK         0.3000 
    241 H241        2.1823  -20.4995  -57.2140 H         1 UNK         0.0600 
    242 H242       -0.2725  -19.9991  -60.4203 H         1 UNK         0.3800 
    243 H243       -0.9455  -20.4451  -58.8724 H         1 UNK         0.3800 
    244 H244        0.3689  -18.0764  -56.7124 H         1 UNK         0.0800 
    245 H245        2.0446  -17.9828  -57.1723 H         1 UNK         0.0800 
    246 H246       -0.4470  -18.1488  -54.4615 H         1 UNK         0.0800 
    247 H247       -0.1065  -19.8268  -54.0908 H         1 UNK         0.0800 
@<TRIPOS>BOND
     1    1    2 1    
     2    1  127 1    
     3    1  128 1    
     4    1  129 1    
     5    2    3 2    
     6    2    4 am   BACKBONE|DICT|INTERRES
     7    4    5 1    
     8    4  130 1    
     9    5    6 1    
    10    5   65 1    
    11    5  131 1    
    12    6    7 1    
    13    6  132 1    
    14    6  133 1    
    15    7    8 1    
    16    8    9 1    
    17    8  134 1    
    18    8  135 1    
    19    9   10 ar   
    20    9   14 ar   
    21   10   11 ar   
    22   10  136 1    
    23   11   12 ar   
    24   11  126 1    
    25   12   13 ar   
    26   12  137 1    
    27   13   14 ar   
    28   13   15 1    
    29   14  138 1    
    30   15   16 1    
    31   15  139 1    
    32   15  140 1    
    33   16   17 1    
    34   17   18 1    
    35   17  141 1    
    36   17  142 1    
    37   18   19 1    
    38   18   67 1    
    39   18  143 1    
    40   19   20 am   BACKBONE|DICT|INTERRES
    41   19  144 1    
    42   20   21 2    
    43   20   22 1    
    44   22   23 1    
    45   22   24 1    
    46   22  145 1    
    47   23  146 1    
    48   23  147 1    
    49   23  148 1    
    50   24   25 am   BACKBONE|DICT|INTERRES
    51   24  149 1    
    52   25   26 2    
    53   25   27 1    
    54   27   28 1    
    55   27   29 1    
    56   27  150 1    
    57   28  151 1    
    58   28  152 1    
    59   28  153 1    
    60   29   30 am   BACKBONE|DICT|INTERRES
    61   29  154 1    
    62   30   31 2    
    63   30   32 1    
    64   32   33 1    
    65   32   34 1    
    66   32  155 1    
    67   33  156 1    
    68   33  157 1    
    69   33  158 1    
    70   34   35 am   BACKBONE|DICT|INTERRES
    71   34  159 1    
    72   35   36 2    
    73   35   37 1    
    74   37   38 1    
    75   37   39 1    
    76   37  160 1    
    77   38  161 1    
    78   38  162 1    
    79   38  163 1    
    80   39   40 am   BACKBONE|DICT|INTERRES
    81   39  164 1    
    82   40   41 2    
    83   40   42 1    
    84   42   43 1    
    85   42   44 1    
    86   42  165 1    
    87   43  166 1    
    88   43  167 1    
    89   43  168 1    
    90   44   45 am   BACKBONE|DICT|INTERRES
    91   44  169 1    
    92   45   46 2    
    93   45   47 1    
    94   47   48 1    
    95   47   49 1    
    96   47  170 1    
    97   48  171 1    
    98   48  172 1    
    99   48  173 1    
   100   49   50 am   BACKBONE|DICT|INTERRES
   101   49  174 1    
   102   50   51 2    
   103   50   52 1    
   104   52   53 1    
   105   52   54 1    
   106   52  175 1    
   107   53  176 1    
   108   53  177 1    
   109   53  178 1    
   110   54   55 am   BACKBONE|DICT|INTERRES
   111   54  179 1    
   112   55   56 2    
   113   55   57 1    
   114   57   58 1    
   115   57   59 1    
   116   57  180 1    
   117   58  181 1    
   118   58  182 1    
   119   58  183 1    
   120   59   60 am   BACKBONE|DICT|INTERRES
   121   59  184 1    
   122   60   61 2    
   123   60   62 1    
   124   62   63 1    
   125   62   64 1    
   126   62  185 1    
   127   63  186 1    
   128   63  187 1    
   129   63  188 1    
   130   64   65 am   BACKBONE|DICT|INTERRES
   131   64  189 1    
   132   65   66 2    
   133   67   68 2    
   134   67   69 am   BACKBONE|DICT|INTERRES
   135   69   70 1    
   136   69  190 1    
   137   70   71 1    
   138   70   72 1    
   139   70  191 1    
   140   71  192 1    
   141   71  193 1    
   142   71  194 1    
   143   72   73 2    
   144   72   74 am   BACKBONE|DICT|INTERRES
   145   74   75 1    
   146   74  195 1    
   147   75   76 1    
   148   75   77 1    
   149   75  196 1    
   150   76  197 1    
   151   76  198 1    
   152   76  199 1    
   153   77   78 2    
   154   77   79 am   BACKBONE|DICT|INTERRES
   155   79   80 1    
   156   79  200 1    
   157   80   81 1    
   158   80   82 1    
   159   80  201 1    
   160   81  202 1    
   161   81  203 1    
   162   81  204 1    
   163   82   83 2    
   164   82   84 am   BACKBONE|DICT|INTERRES
   165   84   85 1    
   166   84  205 1    
   167   85   86 1    
   168   85   87 1    
   169   85  206 1    
   170   86  207 1    
   171   86  208 1    
   172   86  209 1    
   173   87   88 2    
   174   87   89 am   BACKBONE|DICT|INTERRES
   175   89   90 1    
   176   89  210 1    
   177   90   91 1    
   178   90   92 1    
   179   90  211 1    
   180   91  212 1    
   181   91  213 1    
   182   91  214 1    
   183   92   93 2    
   184   92   94 am   BACKBONE|DICT|INTERRES
   185   94   95 1    
   186   94  215 1    
   187   95   96 1    
   188   95   97 1    
   189   95  216 1    
   190   96  217 1    
   191   96  218 1    
   192   96  219 1    
   193   97   98 2    
   194   97   99 am   BACKBONE|DICT|INTERRES
   195   99  100 1    
   196   99  220 1    
   197  100  101 1    
   198  100  102 1    
   199  100  221 1    
   200  101  222 1    
   201  101  223 1    
   202  101  224 1    
   203  102  103 2    
   204  102  104 am   BACKBONE|DICT|INTERRES
   205  104  105 1    
   206  104  225 1    
   207  105  106 1    
   208  105  107 1    
   209  105  226 1    
   210  106  227 1    
   211  106  228 1    
   212  106  229 1    
   213  107  108 2    
   214  107  109 am   BACKBONE|DICT|INTERRES
   215  109  110 1    
   216  109  230 1    
   217  110  111 1    
   218  110  112 1    
   219  110  231 1    
   220  111  232 1    
   221  111  233 1    
   222  111  234 1    
   223  112  113 2    
   224  112  114 am   BACKBONE|DICT|INTERRES
   225  114  115 1    
   226  114  235 1    
   227  115  116 1    
   228  115  117 1    
   229  115  236 1    
   230  116  237 1    
   231  116  238 1    
   232  116  239 1    
   233  117  118 2    
   234  117  119 am   BACKBONE|DICT|INTERRES
   235  119  120 1    
   236  119  240 1    
   237  120  121 1    
   238  120  124 1    
   239  120  241 1    
   240  121  122 am   BACKBONE|DICT|INTERRES
   241  121  123 2    
   242  122  242 1    
   243  122  243 1    
   244  124  125 1    
   245  124  244 1    
   246  124  245 1    
   247  125  126 1    
   248  126  246 1    
   249  126  247 1    
@<TRIPOS>SUBSTRUCTURE
     1 UNK         1 GROUP             0       ****    0 ROOT    
