@<TRIPOS>MOLECULE
3R540
247   249    1
SMALL
USER_CHARGES


@<TRIPOS>ATOM
      1 CA         -4.0695  -13.2316  -43.6675 C.3       0 UNK        -0.1800 
      2 C          -3.2660  -12.3233  -44.5871 C.2       0 UNK         0.5000 
      3 O          -2.6821  -11.3443  -44.1232 O.2       0 UNK        -0.5000 
      4 N          -3.2337  -12.6494  -45.8866 N.am      1 UNK        -0.5000 
      5 CA         -2.6040  -11.8634  -46.9597 C.3       1 UNK         0.1400 
      6 C6         -2.8508  -12.4806  -48.3590 C.3       23 UNK        -0.0398 
      7 S7         -4.6041  -12.8413  -48.7359 S.3       23 UNK        -0.2404 
      8 C8         -4.6925  -14.6640  -48.6091 C.3       23 UNK        -0.0205 
      9 C9         -3.6336  -15.3734  -49.4447 C.ar      23 UNK        -0.0193 
     10 C10        -3.6206  -15.2366  -50.8358 C.ar      23 UNK        -0.1150 
     11 C11        -2.6142  -15.8349  -51.5998 C.ar      23 UNK        -0.0193 
     12 C12        -1.6270  -16.5935  -50.9633 C.ar      23 UNK        -0.1150 
     13 C13        -1.6377  -16.7504  -49.5736 C.ar      23 UNK        -0.0193 
     14 C14        -2.6445  -16.1402  -48.8202 C.ar      23 UNK        -0.1150 
     15 C15        -0.5413  -17.5489  -48.8849 C.3       23 UNK        -0.0205 
     16 S16        -0.8097  -19.3417  -49.0249 S.3       23 UNK        -0.2404 
     17 C17        -2.2707  -19.6029  -47.9630 C.3       23 UNK        -0.0398 
     18 CA         -2.2435  -21.0079  -47.3199 C.3       11 UNK         0.1400 
     19 N          -1.1468  -21.1733  -46.3598 N.am      11 UNK        -0.5000 
     20 C          -0.7440  -22.3520  -45.8625 C.2       10 UNK         0.5000 
     21 O          -1.2262  -23.4339  -46.1933 O.2       10 UNK        -0.5000 
     22 CA          0.3634  -22.3156  -44.7965 C.3       10 UNK         0.1400 
     23 CB          1.7521  -22.2032  -45.4448 C.3       10 UNK        -0.1800 
     24 N           0.1609  -21.2144  -43.8557 N.am      10 UNK        -0.5000 
     25 C          -0.7360  -21.2338  -42.8588 C.2       9 UNK         0.5000 
     26 O          -1.4213  -22.2160  -42.5754 O.2       9 UNK        -0.5000 
     27 CA         -0.9161  -19.9336  -42.0514 C.3       9 UNK         0.1400 
     28 CB         -0.0015  -19.9305  -40.8173 C.3       9 UNK        -0.1800 
     29 N          -0.6637  -18.7282  -42.8422 N.am      9 UNK        -0.5000 
     30 C          -1.4452  -18.3033  -43.8454 C.2       8 UNK         0.5000 
     31 O          -2.4742  -18.8741  -44.1995 O.2       8 UNK        -0.5000 
     32 CA         -0.9664  -17.0649  -44.6250 C.3       8 UNK         0.1400 
     33 CB         -1.4856  -15.7844  -43.9598 C.3       8 UNK        -0.1800 
     34 N           0.4911  -17.0012  -44.7684 N.am      8 UNK        -0.5000 
     35 C           1.2306  -17.9463  -45.3696 C.2       7 UNK         0.5000 
     36 O           0.7469  -18.9419  -45.9067 O.2       7 UNK        -0.5000 
     37 CA          2.7581  -17.7915  -45.3088 C.3       7 UNK         0.1400 
     38 CB          3.3032  -17.1474  -46.5900 C.3       7 UNK        -0.1800 
     39 N           3.1909  -17.0123  -44.1499 N.am      7 UNK        -0.5000 
     40 C           3.2363  -17.4761  -42.8934 C.2       6 UNK         0.5000 
     41 O           2.8796  -18.6141  -42.5865 O.2       6 UNK        -0.5000 
     42 CA          3.7191  -16.5044  -41.7937 C.3       6 UNK         0.1400 
     43 CB          4.6282  -17.1942  -40.7566 C.3       6 UNK        -0.1800 
     44 N           4.3361  -15.2778  -42.3137 N.am      6 UNK        -0.5000 
     45 C           5.4775  -15.1463  -43.0090 C.2       5 UNK         0.5000 
     46 O           6.2505  -16.0753  -43.2429 O.2       5 UNK        -0.5000 
     47 CA          5.7858  -13.7502  -43.5881 C.3       5 UNK         0.1400 
     48 CB          5.7016  -13.7828  -45.1234 C.3       5 UNK        -0.1800 
     49 N           4.8604  -12.7262  -43.0998 N.am      5 UNK        -0.5000 
     50 C           5.0366  -11.9970  -41.9897 C.2       4 UNK         0.5000 
     51 O           6.0444  -12.0536  -41.2847 O.2       4 UNK        -0.5000 
     52 CA          3.8758  -11.0650  -41.5870 C.3       4 UNK         0.1400 
     53 CB          4.0858   -9.6604  -42.1726 C.3       4 UNK        -0.1800 
     54 N           2.5614  -11.5655  -42.0025 N.am      4 UNK        -0.5000 
     55 C           1.9748  -12.6693  -41.5169 C.2       3 UNK         0.5000 
     56 O           2.4758  -13.3832  -40.6492 O.2       3 UNK        -0.5000 
     57 CA          0.6308  -13.0785  -42.1450 C.3       3 UNK         0.1400 
     58 CB         -0.5390  -12.4393  -41.3839 C.3       3 UNK        -0.1800 
     59 N           0.5285  -12.7405  -43.5671 N.am      3 UNK        -0.5000 
     60 C           1.2813  -13.2761  -44.5386 C.2       2 UNK         0.5000 
     61 O           2.1305  -14.1477  -44.3367 O.2       2 UNK        -0.5000 
     62 CA          1.0056  -12.7672  -45.9629 C.3       2 UNK         0.1400 
     63 CB          1.6292  -13.6513  -47.0560 C.3       2 UNK        -0.1800 
     64 N          -0.4345  -12.6859  -46.1848 N.am      2 UNK        -0.5000 
     65 C          -1.0831  -11.6731  -46.7699 C.2       1 UNK         0.5000 
     66 O          -0.5396  -10.6419  -47.1676 O.2       1 UNK        -0.5000 
     67 C          -3.6109  -21.3897  -46.7157 C.2       11 UNK         0.5000 
     68 O          -4.4281  -21.9885  -47.4172 O.2       11 UNK        -0.5000 
     69 N          -3.8203  -21.1203  -45.4188 N.am      12 UNK        -0.5000 
     70 CA         -4.9886  -21.5174  -44.6218 C.3       12 UNK         0.1400 
     71 CB         -5.0301  -20.6639  -43.3417 C.3       12 UNK        -0.1800 
     72 C          -5.0487  -23.0364  -44.3217 C.2       12 UNK         0.5000 
     73 O          -5.2638  -23.4442  -43.1789 O.2       12 UNK        -0.5000 
     74 N          -4.8699  -23.8455  -45.3670 N.am      13 UNK        -0.5000 
     75 CA         -4.8996  -25.3013  -45.3802 C.3       13 UNK         0.1400 
     76 CB         -3.5483  -25.8687  -44.9047 C.3       13 UNK        -0.1800 
     77 C          -5.2738  -25.7343  -46.8052 C.2       13 UNK         0.5000 
     78 O          -4.4683  -26.3554  -47.5008 O.2       13 UNK        -0.5000 
     79 N          -6.4775  -25.3265  -47.2361 N.am      14 UNK        -0.5000 
     80 CA         -7.0700  -25.5681  -48.5584 C.3       14 UNK         0.1400 
     81 CB         -7.4023  -27.0651  -48.7358 C.3       14 UNK        -0.1800 
     82 C          -6.2031  -25.0074  -49.7049 C.2       14 UNK         0.5000 
     83 O          -5.8945  -25.7260  -50.6569 O.2       14 UNK        -0.5000 
     84 N          -5.7854  -23.7399  -49.5605 N.am      15 UNK        -0.5000 
     85 CA         -4.8744  -23.0130  -50.4536 C.3       15 UNK         0.1400 
     86 CB         -5.5347  -22.7605  -51.8253 C.3       15 UNK        -0.1800 
     87 C          -3.4982  -23.7021  -50.5541 C.2       15 UNK         0.5000 
     88 O          -2.9718  -23.8714  -51.6533 O.2       15 UNK        -0.5000 
     89 N          -2.9665  -24.1264  -49.3977 N.am      16 UNK        -0.5000 
     90 CA         -1.7364  -24.9097  -49.2269 C.3       16 UNK         0.1400 
     91 CB         -0.4956  -24.0555  -49.5695 C.3       16 UNK        -0.1800 
     92 C          -1.7861  -26.2376  -50.0120 C.2       16 UNK         0.5000 
     93 O          -0.8607  -26.5482  -50.7618 O.2       16 UNK        -0.5000 
     94 N          -2.9027  -26.9665  -49.8662 N.am      17 UNK        -0.5000 
     95 CA         -3.2799  -28.1611  -50.6314 C.3       17 UNK         0.1400 
     96 CB         -2.3850  -29.3583  -50.2500 C.3       17 UNK        -0.1800 
     97 C          -3.3234  -27.8904  -52.1532 C.2       17 UNK         0.5000 
     98 O          -2.7569  -28.6487  -52.9423 O.2       17 UNK        -0.5000 
     99 N          -3.9842  -26.7833  -52.5185 N.am      18 UNK        -0.5000 
    100 CA        -4.1721  -26.2329  -53.8650 C.3       18 UNK         0.1400 
    101 CB        -4.9889  -27.2039  -54.7427 C.3       18 UNK        -0.1800 
    102 C         -2.8834  -25.7448  -54.5664 C.2       18 UNK         0.5000 
    103 O         -2.9164  -25.5014  -55.7742 O.2       18 UNK        -0.5000 
    104 N         -1.7789  -25.5831  -53.8242 N.am      19 UNK        -0.5000 
    105 CA        -0.5130  -25.0608  -54.3426 C.3       19 UNK         0.1400 
    106 CB         0.6400  -25.4976  -53.4280 C.3       19 UNK        -0.1800 
    107 C         -0.5180  -23.5290  -54.5003 C.2       19 UNK         0.5000 
    108 O          0.1469  -23.0144  -55.4014 O.2       19 UNK        -0.5000 
    109 N         -1.2594  -22.8200  -53.6376 N.am      20 UNK        -0.5000 
    110 CA        -1.3993  -21.3653  -53.6576 C.3       20 UNK         0.1400 
    111 CB        -1.7100  -20.8552  -52.2393 C.3       20 UNK        -0.1800 
    112 C         -2.4670  -20.9519  -54.6852 C.2       20 UNK         0.5000 
    113 O         -3.5928  -20.6135  -54.3182 O.2       20 UNK        -0.5000 
    114 N         -2.0942  -21.0178  -55.9692 N.am      21 UNK        -0.5000 
    115 CA        -2.9348  -20.6244  -57.1024 C.3       21 UNK         0.1400 
    116 CB        -2.3053  -21.1595  -58.3976 C.3       21 UNK        -0.1800 
    117 C         -3.1560  -19.1005  -57.1957 C.2       21 UNK         0.5000 
    118 O         -4.1610  -18.6723  -57.7642 O.2       21 UNK        -0.5000 
    119 N         -2.2168  -18.3207  -56.6394 N.am      22 UNK        -0.5000 
    120 CA        -2.2296  -16.8474  -56.5560 C.3       22 UNK         0.1400 
    121 C         -2.0849  -16.1106  -57.9249 C.2       22 UNK         0.5000 
    122 N         -1.6494  -16.7717  -58.9905 N.am      22 UNK        -0.7600 
    123 O         -2.3361  -14.9122  -58.0214 O.2       22 UNK        -0.5000 
    124 C124       -3.4061  -16.2921  -55.7013 C.3       23 UNK        -0.0398 
    125 S125       -3.4375  -16.9516  -53.9968 S.3       23 UNK        -0.2404 
    126 C126       -2.5731  -15.6236  -53.1053 C.3       23 UNK        -0.0205 
    127 H127       -4.5202  -14.0628  -44.2103 H         1 UNK         0.0600 
    128 H128       -4.8690  -12.6657  -43.1896 H         1 UNK         0.0600 
    129 H129       -3.4304  -13.6424  -42.8868 H         1 UNK         0.0600 
    130 H130       -3.7610  -13.4503  -46.2003 H         1 UNK         0.3000 
    131 H131       -3.0610  -10.8719  -46.9391 H         1 UNK         0.0600 
    132 H132       -2.2518  -13.3823  -48.4830 H         1 UNK         0.0800 
    133 H133       -2.4978  -11.7935  -49.1303 H         1 UNK         0.0800 
    134 H134       -4.6140  -14.9526  -47.5603 H         1 UNK         0.0800 
    135 H135       -5.6795  -14.9907  -48.9393 H         1 UNK         0.0800 
    136 H136       -4.3802  -14.6390  -51.3202 H         1 UNK         0.1150 
    137 H137       -0.8451  -17.0571  -51.5485 H         1 UNK         0.1150 
    138 H138       -2.6465  -16.2471  -47.7449 H         1 UNK         0.1150 
    139 H139        0.4208  -17.3042  -49.3368 H         1 UNK         0.0800 
    140 H140       -0.4578  -17.2698  -47.8349 H         1 UNK         0.0800 
    141 H141       -3.1562  -19.4747  -48.5887 H         1 UNK         0.0800 
    142 H142       -2.3178  -18.8320  -47.1930 H         1 UNK         0.0800 
    143 H143       -2.0708  -21.7224  -48.1258 H         1 UNK         0.0600 
    144 H144       -0.6395  -20.3339  -46.0970 H         1 UNK         0.3000 
    145 H145        0.3289  -23.2577  -44.2449 H         1 UNK         0.0600 
    146 H146        2.5395  -22.1897  -44.6911 H         1 UNK         0.0600 
    147 H147        1.9423  -23.0547  -46.0992 H         1 UNK         0.0600 
    148 H148        1.8511  -21.3019  -46.0494 H         1 UNK         0.0600 
    149 H149        0.6580  -20.3563  -44.0480 H         1 UNK         0.3000 
    150 H150       -1.9517  -19.8999  -41.7062 H         1 UNK         0.0600 
    151 H151       -0.2036  -20.7931  -40.1811 H         1 UNK         0.0600 
    152 H152       -0.1566  -19.0373  -40.2118 H         1 UNK         0.0600 
    153 H153        1.0520  -19.9697  -41.0959 H         1 UNK         0.0600 
    154 H154        0.1867  -18.2236  -42.6396 H         1 UNK         0.3000 
    155 H155       -1.3974  -17.1235  -45.6254 H         1 UNK         0.0600 
    156 H156       -2.5699  -15.8212  -43.8490 H         1 UNK         0.0600 
    157 H157       -1.2529  -14.9057  -44.5571 H         1 UNK         0.0600 
    158 H158       -1.0613  -15.6450  -42.9656 H         1 UNK         0.0600 
    159 H159        0.9692  -16.2105  -44.3577 H         1 UNK         0.3000 
    160 H160        3.1819  -18.7953  -45.2324 H         1 UNK         0.0600 
    161 H161        2.9890  -16.1103  -46.6836 H         1 UNK         0.0600 
    162 H162        2.9574  -17.6806  -47.4768 H         1 UNK         0.0600 
    163 H163        4.3931  -17.1654  -46.6031 H         1 UNK         0.0600 
    164 H164        3.4177  -16.0395  -44.3093 H         1 UNK         0.3000 
    165 H165        2.8179  -16.1810  -41.2712 H         1 UNK         0.0600 
    166 H166        5.5173  -17.6256  -41.2167 H         1 UNK         0.0600 
    167 H167        4.9530  -16.4921  -39.9887 H         1 UNK         0.0600 
    168 H168        4.0999  -18.0036  -40.2514 H         1 UNK         0.0600 
    169 H169        3.7896  -14.4399  -42.1659 H         1 UNK         0.3000 
    170 H170        6.8081  -13.4910  -43.3054 H         1 UNK         0.0600 
    171 H171        6.4102  -14.4998  -45.5402 H         1 UNK         0.0600 
    172 H172        4.7071  -14.0690  -45.4668 H         1 UNK         0.0600 
    173 H173        5.9376  -12.8088  -45.5525 H         1 UNK         0.0600 
    174 H174        3.9936  -12.6288  -43.6088 H         1 UNK         0.3000 
    175 H175        3.8790  -10.9861  -40.4978 H         1 UNK         0.0600 
    176 H176        4.0708   -9.6718  -43.2632 H         1 UNK         0.0600 
    177 H177        3.3125   -8.9714  -41.8325 H         1 UNK         0.0600 
    178 H178        5.0464   -9.2474  -41.8618 H         1 UNK         0.0600 
    179 H179        2.0765  -11.0366  -42.7125 H         1 UNK         0.3000 
    180 H180        0.5485  -14.1626  -42.0489 H         1 UNK         0.0600 
    181 H181       -0.5373  -11.3529  -41.4802 H         1 UNK         0.0600 
    182 H182       -0.4914  -12.6765  -40.3203 H         1 UNK         0.0600 
    183 H183       -1.4957  -12.8060  -41.7537 H         1 UNK         0.0600 
    184 H184       -0.1648  -12.0482  -43.8185 H         1 UNK         0.3000 
    185 H185        1.4560  -11.7747  -46.0248 H         1 UNK         0.0600 
    186 H186        2.7094  -13.7306  -46.9313 H         1 UNK         0.0600 
    187 H187        1.2095  -14.6576  -47.0406 H         1 UNK         0.0600 
    188 H188        1.4503  -13.2333  -48.0466 H         1 UNK         0.0600 
    189 H189       -0.9789  -13.4736  -45.8660 H         1 UNK         0.3000 
    190 H190       -3.1178  -20.5792  -44.9242 H         1 UNK         0.3000 
    191 H191       -5.8833  -21.2805  -45.2008 H         1 UNK         0.0600 
    192 H192       -4.1546  -20.8411  -42.7159 H         1 UNK         0.0600 
    193 H193       -5.0636  -19.6004  -43.5781 H         1 UNK         0.0600 
    194 H194       -5.9150  -20.8876  -42.7448 H         1 UNK         0.0600 
    195 H195       -4.7130  -23.3966  -46.2654 H         1 UNK         0.3000 
    196 H196       -5.6851  -25.6554  -44.7096 H         1 UNK         0.0600 
    197 H197       -3.3164  -25.5446  -43.8902 H         1 UNK         0.0600 
    198 H198       -2.7296  -25.5515  -45.5508 H         1 UNK         0.0600 
    199 H199       -3.5627  -26.9591  -44.9037 H         1 UNK         0.0600 
    200 H200       -7.0482  -24.7909  -46.5965 H         1 UNK         0.3000 
    201 H201       -8.0105  -25.0161  -48.5871 H         1 UNK         0.0600 
    202 H202       -7.9349  -27.2383  -49.6716 H         1 UNK         0.0600 
    203 H203       -8.0403  -27.4252  -47.9289 H         1 UNK         0.0600 
    204 H204       -6.5036  -27.6826  -48.7532 H         1 UNK         0.0600 
    205 H205       -6.0496  -23.2401  -48.7221 H         1 UNK         0.3000 
    206 H206       -4.6930  -22.0371  -50.0029 H         1 UNK         0.0600 
    207 H207       -6.4745  -22.2202  -51.7138 H         1 UNK         0.0600 
    208 H208       -5.7449  -23.6875  -52.3568 H         1 UNK         0.0600 
    209 H209       -4.8907  -22.1577  -52.4656 H         1 UNK         0.0600 
    210 H210       -3.4969  -23.9612  -48.5545 H         1 UNK         0.3000 
    211 H211       -1.6787  -25.1808  -48.1721 H         1 UNK         0.0600 
    212 H212       -0.4479  -23.1575  -48.9557 H         1 UNK         0.0600 
    213 H213        0.4237  -24.6135  -49.3890 H         1 UNK         0.0600 
    214 H214       -0.4896  -23.7445  -50.6142 H         1 UNK         0.0600 
    215 H215       -3.5909  -26.6454  -49.1892 H         1 UNK         0.3000 
    216 H216       -4.3012  -28.4038  -50.3340 H         1 UNK         0.0600 
    217 H217       -2.7320  -30.2730  -50.7316 H         1 UNK         0.0600 
    218 H218       -1.3484  -29.2035  -50.5509 H         1 UNK         0.0600 
    219 H219       -2.3994  -29.5326  -49.1741 H         1 UNK         0.0600 
    220 H220       -4.4473  -26.2570  -51.7811 H         1 UNK         0.3000 
    221 H221       -4.7785  -25.3380  -53.7272 H         1 UNK         0.0600 
    222 H222       -4.4214  -28.1012  -54.9905 H         1 UNK         0.0600 
    223 H223       -5.9054  -27.5131  -54.2401 H         1 UNK         0.0600 
    224 H224       -5.2807  -26.7337  -55.6824 H         1 UNK         0.0600 
    225 H225       -1.8284  -25.7682  -52.8302 H         1 UNK         0.3000 
    226 H226       -0.3362  -25.4959  -55.3285 H         1 UNK         0.0600 
    227 H227        0.6546  -26.5799  -53.2978 H         1 UNK         0.0600 
    228 H228        1.6026  -25.2061  -53.8497 H         1 UNK         0.0600 
    229 H229        0.5655  -25.0412  -52.4409 H         1 UNK         0.0600 
    230 H230       -1.8281  -23.3137  -52.9511 H         1 UNK         0.3000 
    231 H231       -0.4497  -20.9175  -53.9584 H         1 UNK         0.0600 
    232 H232       -1.7197  -19.7647  -52.2136 H         1 UNK         0.0600 
    233 H233       -0.9582  -21.1921  -51.5256 H         1 UNK         0.0600 
    234 H234       -2.6822  -21.1931  -51.8841 H         1 UNK         0.0600 
    235 H235       -1.1737  -21.3830  -56.1817 H         1 UNK         0.3000 
    236 H236       -3.9139  -21.0922  -56.9800 H         1 UNK         0.0600 
    237 H237       -2.2148  -22.2457  -58.3715 H         1 UNK         0.0600 
    238 H238       -2.9179  -20.9063  -59.2640 H         1 UNK         0.0600 
    239 H239       -1.3110  -20.7436  -58.5646 H         1 UNK         0.0600 
    240 H240       -1.4259  -18.7749  -56.2081 H         1 UNK         0.3000 
    241 H241       -1.3123  -16.5893  -56.0259 H         1 UNK         0.0600 
    242 H242       -1.5475  -16.2866  -59.8684 H         1 UNK         0.3800 
    243 H243       -1.4271  -17.7522  -58.9305 H         1 UNK         0.3800 
    244 H244       -3.3650  -15.2032  -55.6484 H         1 UNK         0.0800 
    245 H245       -4.3610  -16.5249  -56.1739 H         1 UNK         0.0800 
    246 H246       -3.0260  -14.6620  -53.3520 H         1 UNK         0.0800 
    247 H247       -1.5382  -15.5731  -53.4472 H         1 UNK         0.0800 
@<TRIPOS>BOND
     1    1    2 1    
     2    1  127 1    
     3    1  128 1    
     4    1  129 1    
     5    2    3 2    
     6    2    4 am   BACKBONE|DICT|INTERRES
     7    4    5 1    
     8    4  130 1    
     9    5    6 1    
    10    5   65 1    
    11    5  131 1    
    12    6    7 1    
    13    6  132 1    
    14    6  133 1    
    15    7    8 1    
    16    8    9 1    
    17    8  134 1    
    18    8  135 1    
    19    9   10 ar   
    20    9   14 ar   
    21   10   11 ar   
    22   10  136 1    
    23   11   12 ar   
    24   11  126 1    
    25   12   13 ar   
    26   12  137 1    
    27   13   14 ar   
    28   13   15 1    
    29   14  138 1    
    30   15   16 1    
    31   15  139 1    
    32   15  140 1    
    33   16   17 1    
    34   17   18 1    
    35   17  141 1    
    36   17  142 1    
    37   18   19 1    
    38   18   67 1    
    39   18  143 1    
    40   19   20 am   BACKBONE|DICT|INTERRES
    41   19  144 1    
    42   20   21 2    
    43   20   22 1    
    44   22   23 1    
    45   22   24 1    
    46   22  145 1    
    47   23  146 1    
    48   23  147 1    
    49   23  148 1    
    50   24   25 am   BACKBONE|DICT|INTERRES
    51   24  149 1    
    52   25   26 2    
    53   25   27 1    
    54   27   28 1    
    55   27   29 1    
    56   27  150 1    
    57   28  151 1    
    58   28  152 1    
    59   28  153 1    
    60   29   30 am   BACKBONE|DICT|INTERRES
    61   29  154 1    
    62   30   31 2    
    63   30   32 1    
    64   32   33 1    
    65   32   34 1    
    66   32  155 1    
    67   33  156 1    
    68   33  157 1    
    69   33  158 1    
    70   34   35 am   BACKBONE|DICT|INTERRES
    71   34  159 1    
    72   35   36 2    
    73   35   37 1    
    74   37   38 1    
    75   37   39 1    
    76   37  160 1    
    77   38  161 1    
    78   38  162 1    
    79   38  163 1    
    80   39   40 am   BACKBONE|DICT|INTERRES
    81   39  164 1    
    82   40   41 2    
    83   40   42 1    
    84   42   43 1    
    85   42   44 1    
    86   42  165 1    
    87   43  166 1    
    88   43  167 1    
    89   43  168 1    
    90   44   45 am   BACKBONE|DICT|INTERRES
    91   44  169 1    
    92   45   46 2    
    93   45   47 1    
    94   47   48 1    
    95   47   49 1    
    96   47  170 1    
    97   48  171 1    
    98   48  172 1    
    99   48  173 1    
   100   49   50 am   BACKBONE|DICT|INTERRES
   101   49  174 1    
   102   50   51 2    
   103   50   52 1    
   104   52   53 1    
   105   52   54 1    
   106   52  175 1    
   107   53  176 1    
   108   53  177 1    
   109   53  178 1    
   110   54   55 am   BACKBONE|DICT|INTERRES
   111   54  179 1    
   112   55   56 2    
   113   55   57 1    
   114   57   58 1    
   115   57   59 1    
   116   57  180 1    
   117   58  181 1    
   118   58  182 1    
   119   58  183 1    
   120   59   60 am   BACKBONE|DICT|INTERRES
   121   59  184 1    
   122   60   61 2    
   123   60   62 1    
   124   62   63 1    
   125   62   64 1    
   126   62  185 1    
   127   63  186 1    
   128   63  187 1    
   129   63  188 1    
   130   64   65 am   BACKBONE|DICT|INTERRES
   131   64  189 1    
   132   65   66 2    
   133   67   68 2    
   134   67   69 am   BACKBONE|DICT|INTERRES
   135   69   70 1    
   136   69  190 1    
   137   70   71 1    
   138   70   72 1    
   139   70  191 1    
   140   71  192 1    
   141   71  193 1    
   142   71  194 1    
   143   72   73 2    
   144   72   74 am   BACKBONE|DICT|INTERRES
   145   74   75 1    
   146   74  195 1    
   147   75   76 1    
   148   75   77 1    
   149   75  196 1    
   150   76  197 1    
   151   76  198 1    
   152   76  199 1    
   153   77   78 2    
   154   77   79 am   BACKBONE|DICT|INTERRES
   155   79   80 1    
   156   79  200 1    
   157   80   81 1    
   158   80   82 1    
   159   80  201 1    
   160   81  202 1    
   161   81  203 1    
   162   81  204 1    
   163   82   83 2    
   164   82   84 am   BACKBONE|DICT|INTERRES
   165   84   85 1    
   166   84  205 1    
   167   85   86 1    
   168   85   87 1    
   169   85  206 1    
   170   86  207 1    
   171   86  208 1    
   172   86  209 1    
   173   87   88 2    
   174   87   89 am   BACKBONE|DICT|INTERRES
   175   89   90 1    
   176   89  210 1    
   177   90   91 1    
   178   90   92 1    
   179   90  211 1    
   180   91  212 1    
   181   91  213 1    
   182   91  214 1    
   183   92   93 2    
   184   92   94 am   BACKBONE|DICT|INTERRES
   185   94   95 1    
   186   94  215 1    
   187   95   96 1    
   188   95   97 1    
   189   95  216 1    
   190   96  217 1    
   191   96  218 1    
   192   96  219 1    
   193   97   98 2    
   194   97   99 am   BACKBONE|DICT|INTERRES
   195   99  100 1    
   196   99  220 1    
   197  100  101 1    
   198  100  102 1    
   199  100  221 1    
   200  101  222 1    
   201  101  223 1    
   202  101  224 1    
   203  102  103 2    
   204  102  104 am   BACKBONE|DICT|INTERRES
   205  104  105 1    
   206  104  225 1    
   207  105  106 1    
   208  105  107 1    
   209  105  226 1    
   210  106  227 1    
   211  106  228 1    
   212  106  229 1    
   213  107  108 2    
   214  107  109 am   BACKBONE|DICT|INTERRES
   215  109  110 1    
   216  109  230 1    
   217  110  111 1    
   218  110  112 1    
   219  110  231 1    
   220  111  232 1    
   221  111  233 1    
   222  111  234 1    
   223  112  113 2    
   224  112  114 am   BACKBONE|DICT|INTERRES
   225  114  115 1    
   226  114  235 1    
   227  115  116 1    
   228  115  117 1    
   229  115  236 1    
   230  116  237 1    
   231  116  238 1    
   232  116  239 1    
   233  117  118 2    
   234  117  119 am   BACKBONE|DICT|INTERRES
   235  119  120 1    
   236  119  240 1    
   237  120  121 1    
   238  120  124 1    
   239  120  241 1    
   240  121  122 am   BACKBONE|DICT|INTERRES
   241  121  123 2    
   242  122  242 1    
   243  122  243 1    
   244  124  125 1    
   245  124  244 1    
   246  124  245 1    
   247  125  126 1    
   248  126  246 1    
   249  126  247 1    
@<TRIPOS>SUBSTRUCTURE
     1 UNK         1 GROUP             0       ****    0 ROOT    
