@<TRIPOS>MOLECULE
3R540
247   249    1
SMALL
USER_CHARGES


@<TRIPOS>ATOM
      1 CA         -5.0671  -16.5713  -44.9228 C.3       0 UNK        -0.1800 
      2 C          -3.8588  -15.8746  -45.5276 C.2       0 UNK         0.5000 
      3 O          -3.9819  -14.7505  -46.0154 O.2       0 UNK        -0.5000 
      4 N          -2.6968  -16.5374  -45.4984 N.am      1 UNK        -0.5000 
      5 CA         -1.4167  -16.0042  -45.9669 C.3       1 UNK         0.1400 
      6 C6         -0.3451  -17.1174  -46.0501 C.3       23 UNK        -0.0398 
      7 S7          0.8487  -16.8420  -47.3958 S.3       23 UNK        -0.2404 
      8 C8          0.3432  -18.1275  -48.5787 C.3       23 UNK        -0.0205 
      9 C9         -0.9550  -17.7727  -49.2889 C.ar      23 UNK        -0.0193 
     10 C10        -0.9181  -17.0112  -50.4587 C.ar      23 UNK        -0.1150 
     11 C11        -2.0924  -16.7337  -51.1657 C.ar      23 UNK        -0.0193 
     12 C12        -3.3099  -17.2086  -50.6714 C.ar      23 UNK        -0.1150 
     13 C13        -3.3741  -17.9533  -49.4903 C.ar      23 UNK        -0.0193 
     14 C14        -2.1844  -18.2320  -48.8040 C.ar      23 UNK        -0.1150 
     15 C15        -4.7532  -18.4286  -49.0251 C.3       23 UNK        -0.0205 
     16 S16        -4.8504  -19.1517  -47.3509 S.3       23 UNK        -0.2404 
     17 C17        -4.3317  -20.8713  -47.6552 C.3       23 UNK        -0.0398 
     18 CA         -3.3868  -21.4146  -46.5544 C.3       11 UNK         0.1400 
     19 N          -3.9486  -21.3544  -45.1920 N.am      11 UNK        -0.5000 
     20 C          -5.0534  -21.9466  -44.7089 C.2       10 UNK         0.5000 
     21 O          -5.7914  -22.6564  -45.3924 O.2       10 UNK        -0.5000 
     22 CA         -5.3581  -21.7921  -43.2046 C.3       10 UNK         0.1400 
     23 CB         -5.2068  -23.1488  -42.4962 C.3       10 UNK        -0.1800 
     24 N          -4.4765  -20.8291  -42.5439 N.am      10 UNK        -0.5000 
     25 C          -4.7536  -19.5313  -42.3642 C.2       9 UNK         0.5000 
     26 O          -5.8323  -19.0161  -42.6564 O.2       9 UNK        -0.5000 
     27 CA         -3.6288  -18.6545  -41.7723 C.3       9 UNK         0.1400 
     28 CB         -3.8560  -18.4296  -40.2700 C.3       9 UNK        -0.1800 
     29 N          -2.2788  -19.1948  -41.9740 N.am      9 UNK        -0.5000 
     30 C          -1.6954  -19.3711  -43.1651 C.2       8 UNK         0.5000 
     31 O          -2.2425  -19.0955  -44.2342 O.2       8 UNK        -0.5000 
     32 CA         -0.2782  -19.9709  -43.1658 C.3       8 UNK         0.1400 
     33 CB         -0.0618  -20.8895  -44.3824 C.3       8 UNK        -0.1800 
     34 N           0.7378  -18.9242  -43.1858 N.am      8 UNK        -0.5000 
     35 C           1.0391  -18.0909  -42.1811 C.2       7 UNK         0.5000 
     36 O           0.5039  -18.1498  -41.0731 O.2       7 UNK        -0.5000 
     37 CA          2.1014  -17.0009  -42.4595 C.3       7 UNK         0.1400 
     38 CB          3.0672  -16.8169  -41.2707 C.3       7 UNK        -0.1800 
     39 N           2.8494  -17.1715  -43.7159 N.am      7 UNK        -0.5000 
     40 C           3.6865  -18.1724  -44.0372 C.2       6 UNK         0.5000 
     41 O           3.9359  -19.1200  -43.2923 O.2       6 UNK        -0.5000 
     42 CA          4.3290  -18.1447  -45.4378 C.3       6 UNK         0.1400 
     43 CB          3.6614  -19.1853  -46.3504 C.3       6 UNK        -0.1800 
     44 N           4.2731  -16.8336  -46.0882 N.am      6 UNK        -0.5000 
     45 C           5.1040  -15.8211  -45.8072 C.2       5 UNK         0.5000 
     46 O           5.9814  -15.8918  -44.9441 O.2       5 UNK        -0.5000 
     47 CA          4.9572  -14.5237  -46.6272 C.3       5 UNK         0.1400 
     48 CB          3.7301  -14.4940  -47.5609 C.3       5 UNK        -0.1800 
     49 N           4.8765  -13.3943  -45.7082 N.am      5 UNK        -0.5000 
     50 C           5.8786  -12.5567  -45.4088 C.2       4 UNK         0.5000 
     51 O           6.9861  -12.5948  -45.9472 O.2       4 UNK        -0.5000 
     52 CA          5.6030  -11.4783  -44.3392 C.3       4 UNK         0.1400 
     53 CB          5.4670  -10.0947  -44.9949 C.3       4 UNK        -0.1800 
     54 N           4.3953  -11.7414  -43.5553 N.am      4 UNK        -0.5000 
     55 C           4.2999  -12.6345  -42.5606 C.2       3 UNK         0.5000 
     56 O           5.2535  -13.2755  -42.1199 O.2       3 UNK        -0.5000 
     57 CA          2.8900  -12.8668  -41.9806 C.3       3 UNK         0.1400 
     58 CB          2.6763  -12.0130  -40.7219 C.3       3 UNK        -0.1800 
     59 N           1.8125  -12.5915  -42.9378 N.am      3 UNK        -0.5000 
     60 C           1.5946  -13.2891  -44.0598 C.2       2 UNK         0.5000 
     61 O           2.2892  -14.2439  -44.4186 O.2       2 UNK        -0.5000 
     62 CA          0.4507  -12.7951  -44.9621 C.3       2 UNK         0.1400 
     63 CB          0.9911  -11.7969  -45.9978 C.3       2 UNK        -0.1800 
     64 N          -0.1986  -13.9003  -45.6641 N.am      2 UNK        -0.5000 
     65 C          -0.9266  -14.8506  -45.0664 C.2       1 UNK         0.5000 
     66 O          -1.1781  -14.8622  -43.8578 O.2       1 UNK        -0.5000 
     67 C          -2.8460  -22.8082  -46.9496 C.2       11 UNK         0.5000 
     68 O          -1.8074  -22.8916  -47.6070 O.2       11 UNK        -0.5000 
     69 N          -3.5335  -23.8790  -46.5343 N.am      12 UNK        -0.5000 
     70 CA         -3.2272  -25.2820  -46.8185 C.3       12 UNK         0.1400 
     71 CB         -4.3439  -26.1627  -46.2407 C.3       12 UNK        -0.1800 
     72 C          -1.8529  -25.7402  -46.3002 C.2       12 UNK         0.5000 
     73 O          -1.2266  -26.5903  -46.9313 O.2       12 UNK        -0.5000 
     74 N          -1.3763  -25.1289  -45.2063 N.am      13 UNK        -0.5000 
     75 CA         -0.0407  -25.3515  -44.6425 C.3       13 UNK         0.1400 
     76 CB          0.0415  -24.6858  -43.2603 C.3       13 UNK        -0.1800 
     77 C           1.1040  -24.8653  -45.5582 C.2       13 UNK         0.5000 
     78 O           2.2182  -25.3780  -45.4525 O.2       13 UNK        -0.5000 
     79 N           0.8036  -23.9150  -46.4546 N.am      14 UNK        -0.5000 
     80 CA          1.6992  -23.4302  -47.5067 C.3       14 UNK         0.1400 
     81 CB          1.5619  -21.9000  -47.5864 C.3       14 UNK        -0.1800 
     82 C           1.3824  -24.0714  -48.8748 C.2       14 UNK         0.5000 
     83 O           2.0184  -23.7100  -49.8650 O.2       14 UNK        -0.5000 
     84 N           0.3843  -24.9714  -48.9181 N.am      15 UNK        -0.5000 
     85 CA         -0.2339  -25.5793  -50.1047 C.3       15 UNK         0.1400 
     86 CB          0.7734  -26.4678  -50.8629 C.3       15 UNK        -0.1800 
     87 C          -0.9359  -24.5529  -51.0236 C.2       15 UNK         0.5000 
     88 O          -1.1613  -24.8322  -52.2018 O.2       15 UNK        -0.5000 
     89 N          -1.2857  -23.3866  -50.4661 N.am      16 UNK        -0.5000 
     90 CA         -1.8151  -22.2305  -51.1872 C.3       16 UNK         0.1400 
     91 CB         -1.2122  -20.9646  -50.5640 C.3       16 UNK        -0.1800 
     92 C          -3.3538  -22.1745  -51.1891 C.2       16 UNK         0.5000 
     93 O          -3.9245  -21.2414  -51.7488 O.2       16 UNK        -0.5000 
     94 N          -4.0087  -23.1656  -50.5687 N.am      17 UNK        -0.5000 
     95 CA         -5.4669  -23.3151  -50.5463 C.3       17 UNK         0.1400 
     96 CB         -5.8512  -24.2357  -49.3767 C.3       17 UNK        -0.1800 
     97 C          -6.0493  -23.8567  -51.8700 C.2       17 UNK         0.5000 
     98 O          -7.2682  -23.8358  -52.0435 O.2       17 UNK        -0.5000 
     99 N          -5.1829  -24.3555  -52.7642 N.am      18 UNK        -0.5000 
    100 CA        -5.5388  -25.0032  -54.0289 C.3       18 UNK         0.1400 
    101 CB        -4.2741  -25.6411  -54.6246 C.3       18 UNK        -0.1800 
    102 C         -6.2089  -24.0768  -55.0636 C.2       18 UNK         0.5000 
    103 O         -6.9622  -24.5667  -55.9064 O.2       18 UNK        -0.5000 
    104 N         -5.9308  -22.7706  -54.9917 N.am      19 UNK        -0.5000 
    105 CA        -6.4815  -21.7389  -55.8651 C.3       19 UNK         0.1400 
    106 CB        -5.7573  -21.7504  -57.2246 C.3       19 UNK        -0.1800 
    107 C         -6.3133  -20.3784  -55.1815 C.2       19 UNK         0.5000 
    108 O         -5.3895  -20.2139  -54.3821 O.2       19 UNK        -0.5000 
    109 N         -7.1699  -19.4132  -55.5404 N.am      20 UNK        -0.5000 
    110 CA        -7.1521  -18.0434  -55.0125 C.3       20 UNK         0.1400 
    111 CB        -8.3792  -17.2837  -55.5386 C.3       20 UNK        -0.1800 
    112 C         -5.8583  -17.2693  -55.3363 C.2       20 UNK         0.5000 
    113 O         -5.4419  -16.4212  -54.5473 O.2       20 UNK        -0.5000 
    114 N         -5.2159  -17.6118  -56.4609 N.am      21 UNK        -0.5000 
    115 CA        -3.9245  -17.0868  -56.9097 C.3       21 UNK         0.1400 
    116 CB        -3.8674  -17.1804  -58.4455 C.3       21 UNK        -0.1800 
    117 C         -2.7298  -17.7932  -56.2265 C.2       21 UNK         0.5000 
    118 O         -1.7386  -18.1043  -56.8895 O.2       21 UNK        -0.5000 
    119 N         -2.8492  -18.0331  -54.9148 N.am      22 UNK        -0.5000 
    120 CA        -1.8622  -18.6939  -54.0450 C.3       22 UNK         0.1400 
    121 C         -1.6299  -20.1927  -54.4093 C.2       22 UNK         0.5000 
    122 N         -2.6683  -20.9361  -54.7669 N.am      22 UNK        -0.7600 
    123 O         -0.5100  -20.6956  -54.3685 O.2       22 UNK        -0.5000 
    124 C124       -0.5261  -17.9021  -53.9132 C.3       23 UNK        -0.0398 
    125 S125       -0.6122  -16.1158  -53.5082 S.3       23 UNK        -0.2404 
    126 C126       -2.0885  -15.9070  -52.4496 C.3       23 UNK        -0.0205 
    127 H127       -5.3492  -16.0962  -43.9835 H         1 UNK         0.0600 
    128 H128       -4.8590  -17.6226  -44.7280 H         1 UNK         0.0600 
    129 H129       -5.9152  -16.5189  -45.6055 H         1 UNK         0.0600 
    130 H130       -2.6554  -17.4561  -45.0648 H         1 UNK         0.3000 
    131 H131       -1.5973  -15.6091  -46.9695 H         1 UNK         0.0600 
    132 H132        0.2061  -17.2065  -45.1160 H         1 UNK         0.0800 
    133 H133       -0.8110  -18.0903  -46.1997 H         1 UNK         0.0800 
    134 H134        1.1383  -18.2551  -49.3148 H         1 UNK         0.0800 
    135 H135        0.2525  -19.0883  -48.0706 H         1 UNK         0.0800 
    136 H136        0.0321  -16.6464  -50.8216 H         1 UNK         0.1150 
    137 H137       -4.2221  -16.9930  -51.2108 H         1 UNK         0.1150 
    138 H138       -2.2020  -18.8180  -47.8993 H         1 UNK         0.1150 
    139 H139       -5.4315  -17.5744  -49.0446 H         1 UNK         0.0800 
    140 H140       -5.1449  -19.1448  -49.7495 H         1 UNK         0.0800 
    141 H141       -3.8354  -20.9107  -48.6248 H         1 UNK         0.0800 
    142 H142       -5.2277  -21.4862  -47.7452 H         1 UNK         0.0800 
    143 H143       -2.5128  -20.7623  -46.5271 H         1 UNK         0.0600 
    144 H144       -3.4457  -20.7321  -44.5716 H         1 UNK         0.3000 
    145 H145       -6.3983  -21.4731  -43.1120 H         1 UNK         0.0600 
    146 H146       -5.4537  -23.0691  -41.4373 H         1 UNK         0.0600 
    147 H147       -5.8759  -23.8948  -42.9272 H         1 UNK         0.0600 
    148 H148       -4.1899  -23.5355  -42.5755 H         1 UNK         0.0600 
    149 H149       -3.5779  -21.1716  -42.2380 H         1 UNK         0.3000 
    150 H150       -3.6759  -17.6852  -42.2733 H         1 UNK         0.0600 
    151 H151       -3.7965  -19.3637  -39.7100 H         1 UNK         0.0600 
    152 H152       -4.8397  -17.9965  -40.0833 H         1 UNK         0.0600 
    153 H153       -3.1167  -17.7424  -39.8580 H         1 UNK         0.0600 
    154 H154       -1.7417  -19.3888  -41.1397 H         1 UNK         0.3000 
    155 H155       -0.1512  -20.5695  -42.2614 H         1 UNK         0.0600 
    156 H156       -0.0773  -20.3337  -45.3206 H         1 UNK         0.0600 
    157 H157       -0.8399  -21.6505  -44.4449 H         1 UNK         0.0600 
    158 H158        0.8955  -21.4071  -44.3167 H         1 UNK         0.0600 
    159 H159        1.2512  -18.8161  -44.0461 H         1 UNK         0.3000 
    160 H160        1.5412  -16.0722  -42.5718 H         1 UNK         0.0600 
    161 H161        3.5657  -17.7499  -41.0063 H         1 UNK         0.0600 
    162 H162        2.5348  -16.4702  -40.3844 H         1 UNK         0.0600 
    163 H163        3.8387  -16.0806  -41.4961 H         1 UNK         0.0600 
    164 H164        2.7397  -16.4126  -44.3791 H         1 UNK         0.3000 
    165 H165        5.3769  -18.4294  -45.3206 H         1 UNK         0.0600 
    166 H166        4.0994  -19.1796  -47.3486 H         1 UNK         0.0600 
    167 H167        3.7911  -20.1905  -45.9474 H         1 UNK         0.0600 
    168 H168        2.5908  -19.0104  -46.4511 H         1 UNK         0.0600 
    169 H169        3.5639  -16.7047  -46.7962 H         1 UNK         0.3000 
    170 H170        5.8490  -14.4436  -47.2516 H         1 UNK         0.0600 
    171 H171        3.7700  -15.2948  -48.3003 H         1 UNK         0.0600 
    172 H172        2.7951  -14.5894  -47.0097 H         1 UNK         0.0600 
    173 H173        3.6879  -13.5556  -48.1138 H         1 UNK         0.0600 
    174 H174        4.0285  -13.3519  -45.1568 H         1 UNK         0.3000 
    175 H175        6.4621  -11.4555  -43.6654 H         1 UNK         0.0600 
    176 H176        4.6213  -10.0568  -45.6828 H         1 UNK         0.0600 
    177 H177        5.3274   -9.3149  -44.2461 H         1 UNK         0.0600 
    178 H178        6.3632   -9.8407  -45.5626 H         1 UNK         0.0600 
    179 H179        3.5603  -11.2490  -43.8351 H         1 UNK         0.3000 
    180 H180        2.8216  -13.9169  -41.6940 H         1 UNK         0.0600 
    181 H181        2.7099  -10.9465  -40.9479 H         1 UNK         0.0600 
    182 H182        3.4475  -12.2153  -39.9773 H         1 UNK         0.0600 
    183 H183        1.7141  -12.2289  -40.2572 H         1 UNK         0.0600 
    184 H184        1.2042  -11.8163  -42.7154 H         1 UNK         0.3000 
    185 H185       -0.2979  -12.2935  -44.3452 H         1 UNK         0.0600 
    186 H186        1.4530  -10.9369  -45.5113 H         1 UNK         0.0600 
    187 H187        1.7440  -12.2514  -46.6431 H         1 UNK         0.0600 
    188 H188        0.1913  -11.4164  -46.6334 H         1 UNK         0.0600 
    189 H189        0.0090  -13.9903  -46.6480 H         1 UNK         0.3000 
    190 H190       -4.3994  -23.6961  -46.0331 H         1 UNK         0.3000 
    191 H191       -3.2215  -25.4035  -47.9034 H         1 UNK         0.0600 
    192 H192       -5.3116  -25.9061  -46.6723 H         1 UNK         0.0600 
    193 H193       -4.1628  -27.2169  -46.4548 H         1 UNK         0.0600 
    194 H194       -4.4214  -26.0542  -45.1581 H         1 UNK         0.0600 
    195 H195       -1.9587  -24.4443  -44.7481 H         1 UNK         0.3000 
    196 H196        0.0897  -26.4273  -44.5071 H         1 UNK         0.0600 
    197 H197        1.0161  -24.8584  -42.8017 H         1 UNK         0.0600 
    198 H198       -0.7101  -25.0910  -42.5826 H         1 UNK         0.0600 
    199 H199       -0.1055  -23.6084  -43.3182 H         1 UNK         0.0600 
    200 H200       -0.1456  -23.5642  -46.4980 H         1 UNK         0.3000 
    201 H201        2.7368  -23.6685  -47.2649 H         1 UNK         0.0600 
    202 H202        2.2483  -21.4780  -48.3214 H         1 UNK         0.0600 
    203 H203        1.7934  -21.4391  -46.6280 H         1 UNK         0.0600 
    204 H204        0.5529  -21.5983  -47.8684 H         1 UNK         0.0600 
    205 H205       -0.0405  -25.2414  -48.0397 H         1 UNK         0.3000 
    206 H206       -1.0242  -26.2309  -49.7298 H         1 UNK         0.0600 
    207 H207        1.2543  -27.1792  -50.1915 H         1 UNK         0.0600 
    208 H208        0.2757  -27.0455  -51.6425 H         1 UNK         0.0600 
    209 H209        1.5542  -25.8785  -51.3440 H         1 UNK         0.0600 
    210 H210       -1.1321  -23.2558  -49.4715 H         1 UNK         0.3000 
    211 H211       -1.4966  -22.2751  -52.2300 H         1 UNK         0.0600 
    212 H212       -1.4715  -20.8760  -49.5094 H         1 UNK         0.0600 
    213 H213       -1.5684  -20.0682  -51.0721 H         1 UNK         0.0600 
    214 H214       -0.1248  -20.9676  -50.6406 H         1 UNK         0.0600 
    215 H215       -3.4641  -23.8937  -50.1322 H         1 UNK         0.3000 
    216 H216       -5.9176  -22.3358  -50.3709 H         1 UNK         0.0600 
    217 H217       -6.9308  -24.3857  -49.3325 H         1 UNK         0.0600 
    218 H218       -5.5533  -23.8073  -48.4215 H         1 UNK         0.0600 
    219 H219       -5.3879  -25.2188  -49.4667 H         1 UNK         0.0600 
    220 H220       -4.2002  -24.3302  -52.5360 H         1 UNK         0.3000 
    221 H221       -6.2485  -25.8017  -53.8028 H         1 UNK         0.0600 
    222 H222       -3.5109  -24.8926  -54.8418 H         1 UNK         0.0600 
    223 H223       -3.8409  -26.3727  -53.9422 H         1 UNK         0.0600 
    224 H224       -4.4990  -26.1613  -55.5567 H         1 UNK         0.0600 
    225 H225       -5.3475  -22.4208  -54.2413 H         1 UNK         0.3000 
    226 H226       -7.5476  -21.9247  -56.0116 H         1 UNK         0.0600 
    227 H227       -5.8875  -22.7031  -57.7379 H         1 UNK         0.0600 
    228 H228       -6.1471  -20.9747  -57.8846 H         1 UNK         0.0600 
    229 H229       -4.6864  -21.5770  -57.1098 H         1 UNK         0.0600 
    230 H230       -7.8929  -19.6241  -56.2134 H         1 UNK         0.3000 
    231 H231       -7.2292  -18.1060  -53.9249 H         1 UNK         0.0600 
    232 H232       -8.3729  -17.2130  -56.6270 H         1 UNK         0.0600 
    233 H233       -8.4081  -16.2672  -55.1438 H         1 UNK         0.0600 
    234 H234       -9.3057  -17.7733  -55.2381 H         1 UNK         0.0600 
    235 H235       -5.6178  -18.3449  -57.0258 H         1 UNK         0.3000 
    236 H236       -3.8613  -16.0304  -56.6406 H         1 UNK         0.0600 
    237 H237       -4.7044  -16.6535  -58.9040 H         1 UNK         0.0600 
    238 H238       -2.9532  -16.7296  -58.8337 H         1 UNK         0.0600 
    239 H239       -3.8952  -18.2163  -58.7858 H         1 UNK         0.0600 
    240 H240       -3.7115  -17.7512  -54.4679 H         1 UNK         0.3000 
    241 H241       -2.3186  -18.7300  -53.0569 H         1 UNK         0.0600 
    242 H242       -2.5191  -21.8969  -55.0239 H         1 UNK         0.3800 
    243 H243       -3.6127  -20.5647  -54.6926 H         1 UNK         0.3800 
    244 H244        0.0910  -18.3667  -53.1424 H         1 UNK         0.0800 
    245 H245        0.0475  -17.9902  -54.8371 H         1 UNK         0.0800 
    246 H246       -2.9819  -16.1101  -53.0401 H         1 UNK         0.0800 
    247 H247       -2.1535  -14.8555  -52.1684 H         1 UNK         0.0800 
@<TRIPOS>BOND
     1    1    2 1    
     2    1  127 1    
     3    1  128 1    
     4    1  129 1    
     5    2    3 2    
     6    2    4 am   BACKBONE|DICT|INTERRES
     7    4    5 1    
     8    4  130 1    
     9    5    6 1    
    10    5   65 1    
    11    5  131 1    
    12    6    7 1    
    13    6  132 1    
    14    6  133 1    
    15    7    8 1    
    16    8    9 1    
    17    8  134 1    
    18    8  135 1    
    19    9   10 ar   
    20    9   14 ar   
    21   10   11 ar   
    22   10  136 1    
    23   11   12 ar   
    24   11  126 1    
    25   12   13 ar   
    26   12  137 1    
    27   13   14 ar   
    28   13   15 1    
    29   14  138 1    
    30   15   16 1    
    31   15  139 1    
    32   15  140 1    
    33   16   17 1    
    34   17   18 1    
    35   17  141 1    
    36   17  142 1    
    37   18   19 1    
    38   18   67 1    
    39   18  143 1    
    40   19   20 am   BACKBONE|DICT|INTERRES
    41   19  144 1    
    42   20   21 2    
    43   20   22 1    
    44   22   23 1    
    45   22   24 1    
    46   22  145 1    
    47   23  146 1    
    48   23  147 1    
    49   23  148 1    
    50   24   25 am   BACKBONE|DICT|INTERRES
    51   24  149 1    
    52   25   26 2    
    53   25   27 1    
    54   27   28 1    
    55   27   29 1    
    56   27  150 1    
    57   28  151 1    
    58   28  152 1    
    59   28  153 1    
    60   29   30 am   BACKBONE|DICT|INTERRES
    61   29  154 1    
    62   30   31 2    
    63   30   32 1    
    64   32   33 1    
    65   32   34 1    
    66   32  155 1    
    67   33  156 1    
    68   33  157 1    
    69   33  158 1    
    70   34   35 am   BACKBONE|DICT|INTERRES
    71   34  159 1    
    72   35   36 2    
    73   35   37 1    
    74   37   38 1    
    75   37   39 1    
    76   37  160 1    
    77   38  161 1    
    78   38  162 1    
    79   38  163 1    
    80   39   40 am   BACKBONE|DICT|INTERRES
    81   39  164 1    
    82   40   41 2    
    83   40   42 1    
    84   42   43 1    
    85   42   44 1    
    86   42  165 1    
    87   43  166 1    
    88   43  167 1    
    89   43  168 1    
    90   44   45 am   BACKBONE|DICT|INTERRES
    91   44  169 1    
    92   45   46 2    
    93   45   47 1    
    94   47   48 1    
    95   47   49 1    
    96   47  170 1    
    97   48  171 1    
    98   48  172 1    
    99   48  173 1    
   100   49   50 am   BACKBONE|DICT|INTERRES
   101   49  174 1    
   102   50   51 2    
   103   50   52 1    
   104   52   53 1    
   105   52   54 1    
   106   52  175 1    
   107   53  176 1    
   108   53  177 1    
   109   53  178 1    
   110   54   55 am   BACKBONE|DICT|INTERRES
   111   54  179 1    
   112   55   56 2    
   113   55   57 1    
   114   57   58 1    
   115   57   59 1    
   116   57  180 1    
   117   58  181 1    
   118   58  182 1    
   119   58  183 1    
   120   59   60 am   BACKBONE|DICT|INTERRES
   121   59  184 1    
   122   60   61 2    
   123   60   62 1    
   124   62   63 1    
   125   62   64 1    
   126   62  185 1    
   127   63  186 1    
   128   63  187 1    
   129   63  188 1    
   130   64   65 am   BACKBONE|DICT|INTERRES
   131   64  189 1    
   132   65   66 2    
   133   67   68 2    
   134   67   69 am   BACKBONE|DICT|INTERRES
   135   69   70 1    
   136   69  190 1    
   137   70   71 1    
   138   70   72 1    
   139   70  191 1    
   140   71  192 1    
   141   71  193 1    
   142   71  194 1    
   143   72   73 2    
   144   72   74 am   BACKBONE|DICT|INTERRES
   145   74   75 1    
   146   74  195 1    
   147   75   76 1    
   148   75   77 1    
   149   75  196 1    
   150   76  197 1    
   151   76  198 1    
   152   76  199 1    
   153   77   78 2    
   154   77   79 am   BACKBONE|DICT|INTERRES
   155   79   80 1    
   156   79  200 1    
   157   80   81 1    
   158   80   82 1    
   159   80  201 1    
   160   81  202 1    
   161   81  203 1    
   162   81  204 1    
   163   82   83 2    
   164   82   84 am   BACKBONE|DICT|INTERRES
   165   84   85 1    
   166   84  205 1    
   167   85   86 1    
   168   85   87 1    
   169   85  206 1    
   170   86  207 1    
   171   86  208 1    
   172   86  209 1    
   173   87   88 2    
   174   87   89 am   BACKBONE|DICT|INTERRES
   175   89   90 1    
   176   89  210 1    
   177   90   91 1    
   178   90   92 1    
   179   90  211 1    
   180   91  212 1    
   181   91  213 1    
   182   91  214 1    
   183   92   93 2    
   184   92   94 am   BACKBONE|DICT|INTERRES
   185   94   95 1    
   186   94  215 1    
   187   95   96 1    
   188   95   97 1    
   189   95  216 1    
   190   96  217 1    
   191   96  218 1    
   192   96  219 1    
   193   97   98 2    
   194   97   99 am   BACKBONE|DICT|INTERRES
   195   99  100 1    
   196   99  220 1    
   197  100  101 1    
   198  100  102 1    
   199  100  221 1    
   200  101  222 1    
   201  101  223 1    
   202  101  224 1    
   203  102  103 2    
   204  102  104 am   BACKBONE|DICT|INTERRES
   205  104  105 1    
   206  104  225 1    
   207  105  106 1    
   208  105  107 1    
   209  105  226 1    
   210  106  227 1    
   211  106  228 1    
   212  106  229 1    
   213  107  108 2    
   214  107  109 am   BACKBONE|DICT|INTERRES
   215  109  110 1    
   216  109  230 1    
   217  110  111 1    
   218  110  112 1    
   219  110  231 1    
   220  111  232 1    
   221  111  233 1    
   222  111  234 1    
   223  112  113 2    
   224  112  114 am   BACKBONE|DICT|INTERRES
   225  114  115 1    
   226  114  235 1    
   227  115  116 1    
   228  115  117 1    
   229  115  236 1    
   230  116  237 1    
   231  116  238 1    
   232  116  239 1    
   233  117  118 2    
   234  117  119 am   BACKBONE|DICT|INTERRES
   235  119  120 1    
   236  119  240 1    
   237  120  121 1    
   238  120  124 1    
   239  120  241 1    
   240  121  122 am   BACKBONE|DICT|INTERRES
   241  121  123 2    
   242  122  242 1    
   243  122  243 1    
   244  124  125 1    
   245  124  244 1    
   246  124  245 1    
   247  125  126 1    
   248  126  246 1    
   249  126  247 1    
@<TRIPOS>SUBSTRUCTURE
     1 UNK         1 GROUP             0       ****    0 ROOT    
