@<TRIPOS>MOLECULE
3R540
247   249    1
SMALL
USER_CHARGES


@<TRIPOS>ATOM
      1 CA          3.5534  -15.0998  -45.5171 C.3       0 UNK        -0.1800 
      2 C           3.2809  -15.3318  -46.9958 C.2       0 UNK         0.5000 
      3 O           2.2624  -15.9292  -47.3459 O.2       0 UNK        -0.5000 
      4 N           4.1890  -14.8683  -47.8655 N.am      1 UNK        -0.5000 
      5 CA          4.0715  -14.9921  -49.3187 C.3       1 UNK         0.1400 
      6 C6          5.4308  -14.7785  -50.0357 C.3       23 UNK        -0.0398 
      7 S7          5.3989  -15.0370  -51.8489 S.3       23 UNK        -0.2404 
      8 C8          5.6415  -16.8396  -52.0135 C.3       23 UNK        -0.0205 
      9 C9          4.4446  -17.6066  -51.4746 C.ar      23 UNK        -0.0193 
     10 C10         3.2108  -17.5228  -52.1249 C.ar      23 UNK        -0.1150 
     11 C11         2.0725  -18.1118  -51.5696 C.ar      23 UNK        -0.0193 
     12 C12         2.1766  -18.7880  -50.3488 C.ar      23 UNK        -0.1150 
     13 C13         3.4126  -18.9025  -49.7010 C.ar      23 UNK        -0.0193 
     14 C14         4.5477  -18.3308  -50.2837 C.ar      23 UNK        -0.1150 
     15 C15         3.5249  -19.5837  -48.3431 C.3       23 UNK        -0.0205 
     16 S16         3.3863  -21.3944  -48.4667 S.3       23 UNK        -0.2404 
     17 C17         1.5852  -21.6228  -48.2931 C.3       23 UNK        -0.0398 
     18 CA          1.2104  -22.8939  -47.4982 C.3       11 UNK         0.1400 
     19 N           1.8545  -22.9807  -46.1853 N.am      11 UNK        -0.5000 
     20 C           2.0052  -24.1292  -45.5102 C.2       10 UNK         0.5000 
     21 O           1.6694  -25.2274  -45.9538 O.2       10 UNK        -0.5000 
     22 CA          2.5802  -24.0353  -44.0840 C.3       10 UNK         0.1400 
     23 CB          4.1129  -24.1243  -44.1141 C.3       10 UNK        -0.1800 
     24 N           2.1823  -22.8160  -43.3777 N.am      10 UNK        -0.5000 
     25 C           0.9200  -22.4699  -43.0913 C.2       9 UNK         0.5000 
     26 O          -0.0510  -23.1753  -43.3636 O.2       9 UNK        -0.5000 
     27 CA          0.6976  -21.1022  -42.4152 C.3       9 UNK         0.1400 
     28 CB          1.8836  -20.6646  -41.5303 C.3       9 UNK        -0.1800 
     29 N           0.3603  -20.0219  -43.3492 N.am      9 UNK        -0.5000 
     30 C           1.0176  -19.6452  -44.4588 C.2       8 UNK         0.5000 
     31 O           1.9086  -20.3034  -44.9964 O.2       8 UNK        -0.5000 
     32 CA          0.6443  -18.2746  -45.0564 C.3       8 UNK         0.1400 
     33 CB         -0.4463  -18.4089  -46.1284 C.3       8 UNK        -0.1800 
     34 N           0.2181  -17.2970  -44.0526 N.am      8 UNK        -0.5000 
     35 C           0.9972  -16.7930  -43.0836 C.2       7 UNK         0.5000 
     36 O           2.1822  -17.0899  -42.9320 O.2       7 UNK        -0.5000 
     37 CA          0.3410  -15.8028  -42.1075 C.3       7 UNK         0.1400 
     38 CB          0.3117  -14.3872  -42.7001 C.3       7 UNK        -0.1800 
     39 N          -1.0248  -16.2049  -41.7788 N.am      7 UNK        -0.5000 
     40 C          -1.3766  -16.8897  -40.6835 C.2       6 UNK         0.5000 
     41 O          -0.5849  -17.2282  -39.8030 O.2       6 UNK        -0.5000 
     42 CA         -2.8666  -17.2627  -40.5395 C.3       6 UNK         0.1400 
     43 CB         -3.6031  -16.2090  -39.6982 C.3       6 UNK        -0.1800 
     44 N          -3.5663  -17.4232  -41.8165 N.am      6 UNK        -0.5000 
     45 C          -3.2997  -18.3810  -42.7137 C.2       5 UNK         0.5000 
     46 O          -2.4202  -19.2303  -42.5676 O.2       5 UNK        -0.5000 
     47 CA         -4.1205  -18.3551  -44.0181 C.3       5 UNK         0.1400 
     48 CB         -5.4502  -19.1013  -43.8358 C.3       5 UNK        -0.1800 
     49 N          -4.3862  -17.0263  -44.5819 N.am      5 UNK        -0.5000 
     50 C          -3.4778  -16.0682  -44.8103 C.2       4 UNK         0.5000 
     51 O          -2.3115  -16.1193  -44.4137 O.2       4 UNK        -0.5000 
     52 CA         -3.9703  -14.8365  -45.5933 C.3       4 UNK         0.1400 
     53 CB         -4.7826  -13.9102  -44.6754 C.3       4 UNK        -0.1800 
     54 N          -2.8654  -14.0696  -46.1703 N.am      4 UNK        -0.5000 
     55 C          -2.0304  -14.5073  -47.1214 C.2       3 UNK         0.5000 
     56 O          -2.1627  -15.5861  -47.7106 O.2       3 UNK        -0.5000 
     57 CA         -0.8567  -13.5674  -47.4489 C.3       3 UNK         0.1400 
     58 CB          0.1188  -13.4883  -46.2650 C.3       3 UNK        -0.1800 
     59 N          -0.1196  -14.0396  -48.6171 N.am      3 UNK        -0.5000 
     60 C          -0.1635  -13.4808  -49.8330 C.2       2 UNK         0.5000 
     61 O          -0.8236  -12.4745  -50.0994 O.2       2 UNK        -0.5000 
     62 CA          0.6652  -14.1749  -50.9357 C.3       2 UNK         0.1400 
     63 CB          0.9260  -13.2774  -52.1626 C.3       2 UNK        -0.1800 
     64 N           1.9183  -14.7479  -50.4358 N.am      2 UNK        -0.5000 
     65 C           2.9337  -14.0980  -49.8465 C.2       1 UNK         0.5000 
     66 O           2.9889  -12.8776  -49.6799 O.2       1 UNK        -0.5000 
     67 C          -0.3191  -23.0073  -47.3611 C.2       11 UNK         0.5000 
     68 O          -0.9583  -23.5861  -48.2347 O.2       11 UNK        -0.5000 
     69 N          -0.8887  -22.4995  -46.2582 N.am      12 UNK        -0.5000 
     70 CA         -2.3181  -22.6032  -45.9547 C.3       12 UNK         0.1400 
     71 CB         -2.6698  -21.6875  -44.7773 C.3       12 UNK        -0.1800 
     72 C          -2.7422  -24.0525  -45.6678 C.2       12 UNK         0.5000 
     73 O          -3.7922  -24.4821  -46.1435 O.2       12 UNK        -0.5000 
     74 N          -1.8798  -24.8012  -44.9665 N.am      13 UNK        -0.5000 
     75 CA         -2.0118  -26.2419  -44.7333 C.3       13 UNK         0.1400 
     76 CB         -0.9199  -26.6923  -43.7515 C.3       13 UNK        -0.1800 
     77 C          -1.9593  -27.0775  -46.0308 C.2       13 UNK         0.5000 
     78 O          -2.5698  -28.1449  -46.0904 O.2       13 UNK        -0.5000 
     79 N          -1.2659  -26.5591  -47.0533 N.am      14 UNK        -0.5000 
     80 CA         -1.2001  -27.1123  -48.4071 C.3       14 UNK         0.1400 
     81 CB          0.1841  -26.7935  -48.9983 C.3       14 UNK        -0.1800 
     82 C          -2.3289  -26.5933  -49.3273 C.2       14 UNK         0.5000 
     83 O          -2.3420  -26.9474  -50.5069 O.2       14 UNK        -0.5000 
     84 N          -3.2443  -25.7706  -48.7887 N.am      15 UNK        -0.5000 
     85 CA         -4.3667  -25.1094  -49.4644 C.3       15 UNK         0.1400 
     86 CB         -5.3933  -26.1413  -49.9770 C.3       15 UNK        -0.1800 
     87 C          -3.9138  -24.1058  -50.5464 C.2       15 UNK         0.5000 
     88 O          -4.5260  -24.0249  -51.6119 O.2       15 UNK        -0.5000 
     89 N          -2.8475  -23.3561  -50.2458 N.am      16 UNK        -0.5000 
     90 CA         -2.2083  -22.3831  -51.1250 C.3       16 UNK         0.1400 
     91 CB         -0.9390  -23.0098  -51.7316 C.3       16 UNK        -0.1800 
     92 C          -1.9263  -21.0656  -50.3778 C.2       16 UNK         0.5000 
     93 O          -0.8645  -20.4724  -50.5558 O.2       16 UNK        -0.5000 
     94 N          -2.8895  -20.6048  -49.5706 N.am      17 UNK        -0.5000 
     95 CA         -2.9293  -19.2310  -49.0563 C.3       17 UNK         0.1400 
     96 CB         -3.7365  -19.2173  -47.7487 C.3       17 UNK        -0.1800 
     97 C          -3.5799  -18.2975  -50.0959 C.2       17 UNK         0.5000 
     98 O          -4.1608  -18.7829  -51.0715 O.2       17 UNK        -0.5000 
     99 N          -3.5507  -16.9777  -49.8546 N.am      18 UNK        -0.5000 
    100 CA        -4.2380  -15.9795  -50.6902 C.3       18 UNK         0.1400 
    101 CB        -3.9019  -14.5643  -50.2071 C.3       18 UNK        -0.1800 
    102 C         -5.7676  -16.1643  -50.7413 C.2       18 UNK         0.5000 
    103 O         -6.3833  -15.8456  -51.7579 O.2       18 UNK        -0.5000 
    104 N         -6.3408  -16.7459  -49.6777 N.am      19 UNK        -0.5000 
    105 CA        -7.7410  -17.1720  -49.5932 C.3       19 UNK         0.1400 
    106 CB        -8.0277  -17.6303  -48.1547 C.3       19 UNK        -0.1800 
    107 C         -8.1116  -18.2854  -50.5985 C.2       19 UNK         0.5000 
    108 O         -9.2851  -18.4200  -50.9454 O.2       19 UNK        -0.5000 
    109 N         -7.1063  -19.0413  -51.0593 N.am      20 UNK        -0.5000 
    110 CA        -7.2022  -20.0665  -52.0975 C.3       20 UNK         0.1400 
    111 CB        -6.5654  -21.3580  -51.5555 C.3       20 UNK        -0.1800 
    112 C         -6.5119  -19.6084  -53.4007 C.2       20 UNK         0.5000 
    113 O         -6.2295  -20.4441  -54.2609 O.2       20 UNK        -0.5000 
    114 N         -6.2092  -18.3036  -53.5137 N.am      21 UNK        -0.5000 
    115 CA        -5.5094  -17.6352  -54.6189 C.3       21 UNK         0.1400 
    116 CB        -6.4038  -17.6046  -55.8753 C.3       21 UNK        -0.1800 
    117 C         -4.1013  -18.2059  -54.9048 C.2       21 UNK         0.5000 
    118 O         -3.6333  -18.1430  -56.0429 O.2       21 UNK        -0.5000 
    119 N         -3.4575  -18.7667  -53.8714 N.am      22 UNK        -0.5000 
    120 CA        -2.2033  -19.5312  -53.9514 C.3       22 UNK         0.1400 
    121 C         -2.3270  -20.8924  -54.7113 C.2       22 UNK         0.5000 
    122 N         -3.5227  -21.4355  -54.9139 N.am      22 UNK        -0.7600 
    123 O         -1.3295  -21.4881  -55.1062 O.2       22 UNK        -0.5000 
    124 C124       -0.9979  -18.6580  -54.4043 C.3       23 UNK        -0.0398 
    125 S125        0.5832  -19.1685  -53.6429 S.3       23 UNK        -0.2404 
    126 C126        0.7327  -17.9749  -52.2786 C.3       23 UNK        -0.0205 
    127 H127        2.7108  -14.5893  -45.0527 H         1 UNK         0.0600 
    128 H128        4.4464  -14.4953  -45.3582 H         1 UNK         0.0600 
    129 H129        3.6941  -16.0550  -45.0117 H         1 UNK         0.0600 
    130 H130        4.9890  -14.3542  -47.5256 H         1 UNK         0.3000 
    131 H131        3.7683  -16.0193  -49.4911 H         1 UNK         0.0600 
    132 H132        6.1816  -15.4448  -49.6088 H         1 UNK         0.0800 
    133 H133        5.7919  -13.7655  -49.8511 H         1 UNK         0.0800 
    134 H134        5.7789  -17.0854  -53.0674 H         1 UNK         0.0800 
    135 H135        6.5613  -17.1337  -51.5054 H         1 UNK         0.0800 
    136 H136        3.1302  -16.9668  -53.0488 H         1 UNK         0.1150 
    137 H137        1.2945  -19.2197  -49.8995 H         1 UNK         0.1150 
    138 H138        5.4997  -18.3911  -49.7752 H         1 UNK         0.1150 
    139 H139        4.4880  -19.3512  -47.8864 H         1 UNK         0.0800 
    140 H140        2.7757  -19.1788  -47.6612 H         1 UNK         0.0800 
    141 H141        1.1616  -21.6691  -49.2976 H         1 UNK         0.0800 
    142 H142        1.1522  -20.7432  -47.8189 H         1 UNK         0.0800 
    143 H143        1.5419  -23.7490  -48.0917 H         1 UNK         0.0600 
    144 H144        2.1291  -22.1035  -45.7512 H         1 UNK         0.3000 
    145 H145        2.1972  -24.8871  -43.5180 H         1 UNK         0.0600 
    146 H146        4.5276  -24.1411  -43.1060 H         1 UNK         0.0600 
    147 H147        4.5540  -23.2804  -44.6461 H         1 UNK         0.0600 
    148 H148        4.4410  -25.0362  -44.6149 H         1 UNK         0.0600 
    149 H149        2.9174  -22.1591  -43.1603 H         1 UNK         0.3000 
    150 H150       -0.1697  -21.2235  -41.7644 H         1 UNK         0.0600 
    151 H151        2.1638  -21.4498  -40.8268 H         1 UNK         0.0600 
    152 H152        1.6211  -19.7846  -40.9422 H         1 UNK         0.0600 
    153 H153        2.7661  -20.4102  -42.1184 H         1 UNK         0.0600 
    154 H154       -0.4277  -19.4522  -43.0585 H         1 UNK         0.3000 
    155 H155        1.5423  -17.8835  -45.5387 H         1 UNK         0.0600 
    156 H156       -0.2050  -19.1843  -46.8539 H         1 UNK         0.0600 
    157 H157       -0.5602  -17.4761  -46.6801 H         1 UNK         0.0600 
    158 H158       -1.4115  -18.6542  -45.6905 H         1 UNK         0.0600 
    159 H159       -0.7348  -16.9501  -44.1373 H         1 UNK         0.3000 
    160 H160        0.9541  -15.7728  -41.2042 H         1 UNK         0.0600 
    161 H161       -0.3639  -14.3303  -43.5524 H         1 UNK         0.0600 
    162 H162        1.3019  -14.0759  -43.0345 H         1 UNK         0.0600 
    163 H163       -0.0264  -13.6610  -41.9609 H         1 UNK         0.0600 
    164 H164       -1.7268  -16.0237  -42.4875 H         1 UNK         0.3000 
    165 H165       -2.9142  -18.2167  -40.0101 H         1 UNK         0.0600 
    166 H166       -4.6368  -16.5023  -39.5143 H         1 UNK         0.0600 
    167 H167       -3.1252  -16.0813  -38.7259 H         1 UNK         0.0600 
    168 H168       -3.6112  -15.2357  -40.1905 H         1 UNK         0.0600 
    169 H169       -4.2905  -16.7529  -42.0284 H         1 UNK         0.3000 
    170 H170       -3.5415  -18.8910  -44.7670 H         1 UNK         0.0600 
    171 H171       -6.1242  -18.5634  -43.1681 H         1 UNK         0.0600 
    172 H172       -5.2908  -20.0927  -43.4095 H         1 UNK         0.0600 
    173 H173       -5.9597  -19.2385  -44.7899 H         1 UNK         0.0600 
    174 H174       -5.3310  -16.8731  -44.9027 H         1 UNK         0.3000 
    175 H175       -4.6086  -15.1796  -46.4102 H         1 UNK         0.0600 
    176 H176       -4.1823  -13.5433  -43.8416 H         1 UNK         0.0600 
    177 H177       -5.1603  -13.0460  -45.2223 H         1 UNK         0.0600 
    178 H178       -5.6465  -14.4266  -44.2552 H         1 UNK         0.0600 
    179 H179       -2.6680  -13.1850  -45.7273 H         1 UNK         0.3000 
    180 H180       -1.2601  -12.5694  -47.6310 H         1 UNK         0.0600 
    181 H181        1.0309  -12.9559  -46.5358 H         1 UNK         0.0600 
    182 H182        0.4003  -14.4815  -45.9123 H         1 UNK         0.0600 
    183 H183       -0.3275  -12.9515  -45.4281 H         1 UNK         0.0600 
    184 H184        0.4293  -14.8785  -48.4782 H         1 UNK         0.3000 
    185 H185        0.0583  -15.0167  -51.2711 H         1 UNK         0.0600 
    186 H186        1.4991  -13.8077  -52.9232 H         1 UNK         0.0600 
    187 H187       -0.0108  -12.9630  -52.6241 H         1 UNK         0.0600 
    188 H188        1.4774  -12.3756  -51.8950 H         1 UNK         0.0600 
    189 H189        1.9836  -15.7548  -50.4936 H         1 UNK         0.3000 
    190 H190       -0.2975  -22.1122  -45.5374 H         1 UNK         0.3000 
    191 H191       -2.8687  -22.2583  -46.8323 H         1 UNK         0.0600 
    192 H192       -2.2086  -20.7099  -44.8939 H         1 UNK         0.0600 
    193 H193       -2.3391  -22.0916  -43.8209 H         1 UNK         0.0600 
    194 H194       -3.7482  -21.5445  -44.7111 H         1 UNK         0.0600 
    195 H195       -1.0731  -24.3416  -44.5534 H         1 UNK         0.3000 
    196 H196       -2.9843  -26.4161  -44.2683 H         1 UNK         0.0600 
    197 H197       -0.9829  -26.1427  -42.8120 H         1 UNK         0.0600 
    198 H198        0.0783  -26.5388  -44.1620 H         1 UNK         0.0600 
    199 H199       -1.0190  -27.7527  -43.5164 H         1 UNK         0.0600 
    200 H200       -0.7885  -25.6797  -46.9111 H         1 UNK         0.3000 
    201 H201       -1.2998  -28.1983  -48.3560 H         1 UNK         0.0600 
    202 H202        0.9835  -27.1421  -48.3440 H         1 UNK         0.0600 
    203 H203        0.3215  -25.7237  -49.1533 H         1 UNK         0.0600 
    204 H204        0.3195  -27.2821  -49.9638 H         1 UNK         0.0600 
    205 H205       -3.1466  -25.5334  -47.8086 H         1 UNK         0.3000 
    206 H206       -4.8664  -24.5129  -48.7001 H         1 UNK         0.0600 
    207 H207       -4.9944  -26.7410  -50.7955 H         1 UNK         0.0600 
    208 H208       -5.7004  -26.8201  -49.1814 H         1 UNK         0.0600 
    209 H209       -6.2926  -25.6463  -50.3451 H         1 UNK         0.0600 
    210 H210       -2.3552  -23.5189  -49.3685 H         1 UNK         0.3000 
    211 H211       -2.8824  -22.1231  -51.9431 H         1 UNK         0.0600 
    212 H212       -0.2157  -23.2749  -50.9597 H         1 UNK         0.0600 
    213 H213       -0.4495  -22.3215  -52.4220 H         1 UNK         0.0600 
    214 H214       -1.1775  -23.9141  -52.2916 H         1 UNK         0.0600 
    215 H215       -3.7458  -21.1339  -49.5055 H         1 UNK         0.3000 
    216 H216       -1.9180  -18.8730  -48.8519 H         1 UNK         0.0600 
    217 H217       -3.7521  -18.2208  -47.3058 H         1 UNK         0.0600 
    218 H218       -3.2940  -19.8862  -47.0134 H         1 UNK         0.0600 
    219 H219       -4.7705  -19.5280  -47.9046 H         1 UNK         0.0600 
    220 H220       -3.0486  -16.6174  -49.0450 H         1 UNK         0.3000 
    221 H221       -3.8619  -16.0882  -51.7098 H         1 UNK         0.0600 
    222 H222       -4.2552  -14.3900  -49.1903 H         1 UNK         0.0600 
    223 H223       -2.8284  -14.3928  -50.2280 H         1 UNK         0.0600 
    224 H224       -4.3614  -13.8107  -50.8480 H         1 UNK         0.0600 
    225 H225       -5.7545  -16.9674  -48.8876 H         1 UNK         0.3000 
    226 H226       -8.3705  -16.3073  -49.8135 H         1 UNK         0.0600 
    227 H227       -7.8431  -16.8281  -47.4400 H         1 UNK         0.0600 
    228 H228       -9.0701  -17.9308  -48.0407 H         1 UNK         0.0600 
    229 H229       -7.4080  -18.4825  -47.8723 H         1 UNK         0.0600 
    230 H230       -6.1621  -18.8386  -50.7514 H         1 UNK         0.3000 
    231 H231       -8.2462  -20.2722  -52.3404 H         1 UNK         0.0600 
    232 H232       -6.6760  -22.1800  -52.2639 H         1 UNK         0.0600 
    233 H233       -7.0363  -21.6710  -50.6237 H         1 UNK         0.0600 
    234 H234       -5.4988  -21.2316  -51.3666 H         1 UNK         0.0600 
    235 H235       -6.4752  -17.6896  -52.7530 H         1 UNK         0.3000 
    236 H236       -5.3541  -16.6037  -54.3002 H         1 UNK         0.0600 
    237 H237       -6.5539  -18.6026  -56.2884 H         1 UNK         0.0600 
    238 H238       -7.3837  -17.1835  -55.6507 H         1 UNK         0.0600 
    239 H239       -5.9607  -16.9890  -56.6589 H         1 UNK         0.0600 
    240 H240       -3.9078  -18.7703  -52.9602 H         1 UNK         0.3000 
    241 H241       -2.0179  -19.8150  -52.9184 H         1 UNK         0.0600 
    242 H242       -3.5813  -22.3171  -55.3972 H         1 UNK         0.3800 
    243 H243       -4.3790  -20.9734  -54.6236 H         1 UNK         0.3800 
    244 H244       -0.8917  -18.6791  -55.4901 H         1 UNK         0.0800 
    245 H245       -1.1728  -17.6117  -54.1510 H         1 UNK         0.0800 
    246 H246        0.6349  -16.9631  -52.6740 H         1 UNK         0.0800 
    247 H247       -0.0909  -18.1172  -51.5775 H         1 UNK         0.0800 
@<TRIPOS>BOND
     1    1    2 1    
     2    1  127 1    
     3    1  128 1    
     4    1  129 1    
     5    2    3 2    
     6    2    4 am   BACKBONE|DICT|INTERRES
     7    4    5 1    
     8    4  130 1    
     9    5    6 1    
    10    5   65 1    
    11    5  131 1    
    12    6    7 1    
    13    6  132 1    
    14    6  133 1    
    15    7    8 1    
    16    8    9 1    
    17    8  134 1    
    18    8  135 1    
    19    9   10 ar   
    20    9   14 ar   
    21   10   11 ar   
    22   10  136 1    
    23   11   12 ar   
    24   11  126 1    
    25   12   13 ar   
    26   12  137 1    
    27   13   14 ar   
    28   13   15 1    
    29   14  138 1    
    30   15   16 1    
    31   15  139 1    
    32   15  140 1    
    33   16   17 1    
    34   17   18 1    
    35   17  141 1    
    36   17  142 1    
    37   18   19 1    
    38   18   67 1    
    39   18  143 1    
    40   19   20 am   BACKBONE|DICT|INTERRES
    41   19  144 1    
    42   20   21 2    
    43   20   22 1    
    44   22   23 1    
    45   22   24 1    
    46   22  145 1    
    47   23  146 1    
    48   23  147 1    
    49   23  148 1    
    50   24   25 am   BACKBONE|DICT|INTERRES
    51   24  149 1    
    52   25   26 2    
    53   25   27 1    
    54   27   28 1    
    55   27   29 1    
    56   27  150 1    
    57   28  151 1    
    58   28  152 1    
    59   28  153 1    
    60   29   30 am   BACKBONE|DICT|INTERRES
    61   29  154 1    
    62   30   31 2    
    63   30   32 1    
    64   32   33 1    
    65   32   34 1    
    66   32  155 1    
    67   33  156 1    
    68   33  157 1    
    69   33  158 1    
    70   34   35 am   BACKBONE|DICT|INTERRES
    71   34  159 1    
    72   35   36 2    
    73   35   37 1    
    74   37   38 1    
    75   37   39 1    
    76   37  160 1    
    77   38  161 1    
    78   38  162 1    
    79   38  163 1    
    80   39   40 am   BACKBONE|DICT|INTERRES
    81   39  164 1    
    82   40   41 2    
    83   40   42 1    
    84   42   43 1    
    85   42   44 1    
    86   42  165 1    
    87   43  166 1    
    88   43  167 1    
    89   43  168 1    
    90   44   45 am   BACKBONE|DICT|INTERRES
    91   44  169 1    
    92   45   46 2    
    93   45   47 1    
    94   47   48 1    
    95   47   49 1    
    96   47  170 1    
    97   48  171 1    
    98   48  172 1    
    99   48  173 1    
   100   49   50 am   BACKBONE|DICT|INTERRES
   101   49  174 1    
   102   50   51 2    
   103   50   52 1    
   104   52   53 1    
   105   52   54 1    
   106   52  175 1    
   107   53  176 1    
   108   53  177 1    
   109   53  178 1    
   110   54   55 am   BACKBONE|DICT|INTERRES
   111   54  179 1    
   112   55   56 2    
   113   55   57 1    
   114   57   58 1    
   115   57   59 1    
   116   57  180 1    
   117   58  181 1    
   118   58  182 1    
   119   58  183 1    
   120   59   60 am   BACKBONE|DICT|INTERRES
   121   59  184 1    
   122   60   61 2    
   123   60   62 1    
   124   62   63 1    
   125   62   64 1    
   126   62  185 1    
   127   63  186 1    
   128   63  187 1    
   129   63  188 1    
   130   64   65 am   BACKBONE|DICT|INTERRES
   131   64  189 1    
   132   65   66 2    
   133   67   68 2    
   134   67   69 am   BACKBONE|DICT|INTERRES
   135   69   70 1    
   136   69  190 1    
   137   70   71 1    
   138   70   72 1    
   139   70  191 1    
   140   71  192 1    
   141   71  193 1    
   142   71  194 1    
   143   72   73 2    
   144   72   74 am   BACKBONE|DICT|INTERRES
   145   74   75 1    
   146   74  195 1    
   147   75   76 1    
   148   75   77 1    
   149   75  196 1    
   150   76  197 1    
   151   76  198 1    
   152   76  199 1    
   153   77   78 2    
   154   77   79 am   BACKBONE|DICT|INTERRES
   155   79   80 1    
   156   79  200 1    
   157   80   81 1    
   158   80   82 1    
   159   80  201 1    
   160   81  202 1    
   161   81  203 1    
   162   81  204 1    
   163   82   83 2    
   164   82   84 am   BACKBONE|DICT|INTERRES
   165   84   85 1    
   166   84  205 1    
   167   85   86 1    
   168   85   87 1    
   169   85  206 1    
   170   86  207 1    
   171   86  208 1    
   172   86  209 1    
   173   87   88 2    
   174   87   89 am   BACKBONE|DICT|INTERRES
   175   89   90 1    
   176   89  210 1    
   177   90   91 1    
   178   90   92 1    
   179   90  211 1    
   180   91  212 1    
   181   91  213 1    
   182   91  214 1    
   183   92   93 2    
   184   92   94 am   BACKBONE|DICT|INTERRES
   185   94   95 1    
   186   94  215 1    
   187   95   96 1    
   188   95   97 1    
   189   95  216 1    
   190   96  217 1    
   191   96  218 1    
   192   96  219 1    
   193   97   98 2    
   194   97   99 am   BACKBONE|DICT|INTERRES
   195   99  100 1    
   196   99  220 1    
   197  100  101 1    
   198  100  102 1    
   199  100  221 1    
   200  101  222 1    
   201  101  223 1    
   202  101  224 1    
   203  102  103 2    
   204  102  104 am   BACKBONE|DICT|INTERRES
   205  104  105 1    
   206  104  225 1    
   207  105  106 1    
   208  105  107 1    
   209  105  226 1    
   210  106  227 1    
   211  106  228 1    
   212  106  229 1    
   213  107  108 2    
   214  107  109 am   BACKBONE|DICT|INTERRES
   215  109  110 1    
   216  109  230 1    
   217  110  111 1    
   218  110  112 1    
   219  110  231 1    
   220  111  232 1    
   221  111  233 1    
   222  111  234 1    
   223  112  113 2    
   224  112  114 am   BACKBONE|DICT|INTERRES
   225  114  115 1    
   226  114  235 1    
   227  115  116 1    
   228  115  117 1    
   229  115  236 1    
   230  116  237 1    
   231  116  238 1    
   232  116  239 1    
   233  117  118 2    
   234  117  119 am   BACKBONE|DICT|INTERRES
   235  119  120 1    
   236  119  240 1    
   237  120  121 1    
   238  120  124 1    
   239  120  241 1    
   240  121  122 am   BACKBONE|DICT|INTERRES
   241  121  123 2    
   242  122  242 1    
   243  122  243 1    
   244  124  125 1    
   245  124  244 1    
   246  124  245 1    
   247  125  126 1    
   248  126  246 1    
   249  126  247 1    
@<TRIPOS>SUBSTRUCTURE
     1 UNK         1 GROUP             0       ****    0 ROOT    
