@<TRIPOS>MOLECULE
3R540
247   249    1
SMALL
USER_CHARGES


@<TRIPOS>ATOM
      1 CA          5.9717  -18.1081  -43.1058 C.3       0 UNK        -0.1800 
      2 C           7.1265  -17.6665  -44.0037 C.2       0 UNK         0.5000 
      3 O           8.2469  -18.1395  -43.8224 O.2       0 UNK        -0.5000 
      4 N           6.9087  -16.7836  -44.9872 N.am      1 UNK        -0.5000 
      5 CA          5.6568  -16.0745  -45.2719 C.3       1 UNK         0.1400 
      6 C6          5.6110  -15.5428  -46.7257 C.3       23 UNK        -0.0398 
      7 S7          5.6821  -16.8863  -47.9584 S.3       23 UNK        -0.2404 
      8 C8          3.9206  -17.3339  -48.0503 C.3       23 UNK        -0.0205 
      9 C9          3.6744  -18.5752  -48.8950 C.ar      23 UNK        -0.0193 
     10 C10         2.8435  -18.5077  -50.0169 C.ar      23 UNK        -0.1150 
     11 C11         2.5936  -19.6458  -50.7888 C.ar      23 UNK        -0.0193 
     12 C12         3.1867  -20.8606  -50.4333 C.ar      23 UNK        -0.1150 
     13 C13         4.0189  -20.9426  -49.3118 C.ar      23 UNK        -0.0193 
     14 C14         4.2527  -19.7984  -48.5436 C.ar      23 UNK        -0.1150 
     15 C15         4.6948  -22.2565  -48.9457 C.3       23 UNK        -0.0205 
     16 S16         4.0210  -22.9873  -47.4204 S.3       23 UNK        -0.2404 
     17 C17         2.3635  -23.5089  -47.9713 C.3       23 UNK        -0.0398 
     18 CA          1.3242  -23.4536  -46.8268 C.3       11 UNK         0.1400 
     19 N           1.0689  -22.0909  -46.3699 N.am      11 UNK        -0.5000 
     20 C           1.2320  -21.6574  -45.1160 C.2       10 UNK         0.5000 
     21 O           1.6674  -22.3524  -44.1969 O.2       10 UNK        -0.5000 
     22 CA          0.8292  -20.1988  -44.8331 C.3       10 UNK         0.1400 
     23 CB          2.0132  -19.2624  -45.1109 C.3       10 UNK        -0.1800 
     24 N          -0.3437  -19.7463  -45.5901 N.am      10 UNK        -0.5000 
     25 C          -1.5900  -20.2153  -45.4096 C.2       9 UNK         0.5000 
     26 O          -1.8548  -21.1397  -44.6399 O.2       9 UNK        -0.5000 
     27 CA         -2.7395  -19.5455  -46.1911 C.3       9 UNK         0.1400 
     28 CB         -3.9159  -19.1857  -45.2671 C.3       9 UNK        -0.1800 
     29 N          -2.3018  -18.3295  -46.8727 N.am      9 UNK        -0.5000 
     30 C          -2.3168  -18.1266  -48.1971 C.2       8 UNK         0.5000 
     31 O          -2.7474  -18.9478  -49.0051 O.2       8 UNK        -0.5000 
     32 CA         -1.7739  -16.7780  -48.7184 C.3       8 UNK         0.1400 
     33 CB         -2.9164  -15.9126  -49.2690 C.3       8 UNK        -0.1800 
     34 N          -1.0465  -15.9980  -47.7147 N.am      8 UNK        -0.5000 
     35 C           0.1428  -16.3379  -47.1992 C.2       7 UNK         0.5000 
     36 O           0.7545  -17.3546  -47.5181 O.2       7 UNK        -0.5000 
     37 CA          0.7123  -15.4309  -46.0918 C.3       7 UNK         0.1400 
     38 CB          1.5576  -14.3112  -46.7126 C.3       7 UNK        -0.1800 
     39 N          -0.3117  -14.8328  -45.2330 N.am      7 UNK        -0.5000 
     40 C          -1.2575  -15.5031  -44.5543 C.2       6 UNK         0.5000 
     41 O          -1.3208  -16.7318  -44.5135 O.2       6 UNK        -0.5000 
     42 CA         -2.3487  -14.6726  -43.8461 C.3       6 UNK         0.1400 
     43 CB         -2.0484  -14.5781  -42.3427 C.3       6 UNK        -0.1800 
     44 N          -2.5136  -13.3172  -44.3786 N.am      6 UNK        -0.5000 
     45 C          -2.7940  -12.9902  -45.6493 C.2       5 UNK         0.5000 
     46 O          -3.0435  -13.8169  -46.5273 O.2       5 UNK        -0.5000 
     47 CA         -2.7168  -11.4931  -46.0178 C.3       5 UNK         0.1400 
     48 CB         -4.1277  -10.8927  -46.1099 C.3       5 UNK        -0.1800 
     49 N          -1.9077  -10.6723  -45.1048 N.am      5 UNK        -0.5000 
     50 C          -0.6128  -10.8623  -44.8137 C.2       4 UNK         0.5000 
     51 O           0.0602  -11.7977  -45.2568 O.2       4 UNK        -0.5000 
     52 CA          0.0126   -9.8747  -43.8181 C.3       4 UNK         0.1400 
     53 CB         -0.5700  -10.0780  -42.4054 C.3       4 UNK        -0.1800 
     54 N           1.4540  -10.0912  -43.7901 N.am      4 UNK        -0.5000 
     55 C           2.3799   -9.2409  -43.3348 C.2       3 UNK         0.5000 
     56 O           2.1125   -8.1152  -42.9102 O.2       3 UNK        -0.5000 
     57 CA          3.8381   -9.7518  -43.3231 C.3       3 UNK         0.1400 
     58 CB          4.7506   -8.9145  -42.4082 C.3       3 UNK        -0.1800 
     59 N           3.8971  -11.1515  -42.8917 N.am      3 UNK        -0.5000 
     60 C           3.8764  -12.2096  -43.7090 C.2       2 UNK         0.5000 
     61 O           3.8733  -12.1215  -44.9385 O.2       2 UNK        -0.5000 
     62 CA          3.7626  -13.5869  -43.0271 C.3       2 UNK         0.1400 
     63 CB          2.3085  -13.8427  -42.5935 C.3       2 UNK        -0.1800 
     64 N           4.1837  -14.6787  -43.9054 N.am      2 UNK        -0.5000 
     65 C           5.4485  -14.9199  -44.2710 C.2       1 UNK         0.5000 
     66 O           6.4181  -14.2788  -43.8577 O.2       1 UNK        -0.5000 
     67 C          -0.0296  -24.0079  -47.2824 C.2       11 UNK         0.5000 
     68 O          -0.4996  -23.6397  -48.3599 O.2       11 UNK        -0.5000 
     69 N          -0.6451  -24.8594  -46.4513 N.am      12 UNK        -0.5000 
     70 CA         -1.9945  -25.4002  -46.6452 C.3       12 UNK         0.1400 
     71 CB         -2.3637  -26.2881  -45.4483 C.3       12 UNK        -0.1800 
     72 C          -2.1954  -26.1694  -47.9646 C.2       12 UNK         0.5000 
     73 O          -3.2947  -26.1307  -48.5165 O.2       12 UNK        -0.5000 
     74 N          -1.1350  -26.8263  -48.4550 N.am      13 UNK        -0.5000 
     75 CA         -1.1226  -27.5511  -49.7261 C.3       13 UNK         0.1400 
     76 CB          0.1096  -28.4671  -49.7770 C.3       13 UNK        -0.1800 
     77 C          -1.1532  -26.6132  -50.9476 C.2       13 UNK         0.5000 
     78 O          -1.8751  -26.8915  -51.9046 O.2       13 UNK        -0.5000 
     79 N          -0.3922  -25.5105  -50.8849 N.am      14 UNK        -0.5000 
     80 CA         -0.3458  -24.4767  -51.9249 C.3       14 UNK         0.1400 
     81 CB          0.9101  -23.6134  -51.7358 C.3       14 UNK        -0.1800 
     82 C          -1.6047  -23.5947  -51.9034 C.2       14 UNK         0.5000 
     83 O          -2.1035  -23.1976  -52.9569 O.2       14 UNK        -0.5000 
     84 N          -2.1085  -23.3310  -50.6923 N.am      15 UNK        -0.5000 
     85 CA         -3.3462  -22.6058  -50.4401 C.3       15 UNK         0.1400 
     86 CB         -3.3761  -22.1977  -48.9630 C.3       15 UNK        -0.1800 
     87 C          -4.6060  -23.4162  -50.7913 C.2       15 UNK         0.5000 
     88 O          -5.6693  -22.8162  -50.9514 O.2       15 UNK        -0.5000 
     89 N          -4.4796  -24.7495  -50.8571 N.am      16 UNK        -0.5000 
     90 CA         -5.5447  -25.7448  -51.0179 C.3       16 UNK         0.1400 
     91 CB         -6.1552  -25.6699  -52.4314 C.3       16 UNK        -0.1800 
     92 C          -6.5965  -25.6188  -49.8983 C.2       16 UNK         0.5000 
     93 O          -7.7866  -25.4741  -50.1754 O.2       16 UNK        -0.5000 
     94 N          -6.1138  -25.5784  -48.6472 N.am      17 UNK        -0.5000 
     95 CA         -6.8746  -25.2911  -47.4219 C.3       17 UNK         0.1400 
     96 CB         -7.8463  -26.4449  -47.0994 C.3       17 UNK        -0.1800 
     97 C          -7.5684  -23.9076  -47.4566 C.2       17 UNK         0.5000 
     98 O          -8.6680  -23.7470  -46.9257 O.2       17 UNK        -0.5000 
     99 N          -6.8998  -22.9449  -48.1086 N.am      18 UNK        -0.5000 
    100 CA        -7.3152  -21.5660  -48.3883 C.3       18 UNK         0.1400 
    101 CB        -7.6018  -20.7834  -47.0900 C.3       18 UNK        -0.1800 
    102 C         -8.4418  -21.4343  -49.4361 C.2       18 UNK         0.5000 
    103 O         -8.9871  -20.3402  -49.5881 O.2       18 UNK        -0.5000 
    104 N         -8.7542  -22.5125  -50.1721 N.am      19 UNK        -0.5000 
    105 CA        -9.7108  -22.4864  -51.2814 C.3       19 UNK         0.1400 
    106 CB       -10.2268  -23.9055  -51.5616 C.3       19 UNK        -0.1800 
    107 C         -9.1071  -21.8733  -52.5588 C.2       19 UNK         0.5000 
    108 O         -9.8242  -21.1969  -53.2973 O.2       19 UNK        -0.5000 
    109 N         -7.8096  -22.1136  -52.7945 N.am      20 UNK        -0.5000 
    110 CA        -7.0543  -21.5557  -53.9182 C.3       20 UNK         0.1400 
    111 CB        -6.0899  -22.6171  -54.4711 C.3       20 UNK        -0.1800 
    112 C         -6.2745  -20.3011  -53.4969 C.2       20 UNK         0.5000 
    113 O         -6.1113  -19.3919  -54.3108 O.2       20 UNK        -0.5000 
    114 N         -5.7979  -20.2829  -52.2418 N.am      21 UNK        -0.5000 
    115 CA        -5.0656  -19.1963  -51.5801 C.3       21 UNK         0.1400 
    116 CB        -6.0327  -18.0407  -51.2531 C.3       21 UNK        -0.1800 
    117 C         -3.8127  -18.7417  -52.3645 C.2       21 UNK         0.5000 
    118 O         -3.5772  -17.5422  -52.5163 O.2       21 UNK        -0.5000 
    119 N         -3.0671  -19.7232  -52.8931 N.am      22 UNK        -0.5000 
    120 CA        -1.9020  -19.5672  -53.7826 C.3       22 UNK         0.1400 
    121 C         -2.2454  -19.0667  -55.2218 C.2       22 UNK         0.5000 
    122 N         -3.5068  -18.9342  -55.6160 N.am      22 UNK        -0.7600 
    123 O         -1.3449  -18.8263  -56.0216 O.2       22 UNK        -0.5000 
    124 C124       -0.7315  -18.7588  -53.1498 C.3       23 UNK        -0.0398 
    125 S125       -0.0564  -19.4992  -51.6198 S.3       23 UNK        -0.2404 
    126 C126        1.7193  -19.5401  -52.0289 C.3       23 UNK        -0.0205 
    127 H127        5.5657  -17.2673  -42.5443 H         1 UNK         0.0600 
    128 H128        6.3128  -18.8518  -42.3852 H         1 UNK         0.0600 
    129 H129        5.1735  -18.5617  -43.6930 H         1 UNK         0.0600 
    130 H130        7.6916  -16.5047  -45.5602 H         1 UNK         0.3000 
    131 H131        4.8290  -16.7751  -45.1522 H         1 UNK         0.0600 
    132 H132        4.7086  -14.9547  -46.9007 H         1 UNK         0.0800 
    133 H133        6.4478  -14.8669  -46.9111 H         1 UNK         0.0800 
    134 H134        3.3656  -16.4874  -48.4548 H         1 UNK         0.0800 
    135 H135        3.5338  -17.5088  -47.0474 H         1 UNK         0.0800 
    136 H136        2.3830  -17.5686  -50.2898 H         1 UNK         0.1150 
    137 H137        3.0114  -21.7389  -51.0374 H         1 UNK         0.1150 
    138 H138        4.8928  -19.8584  -47.6745 H         1 UNK         0.1150 
    139 H139        4.6109  -22.9787  -49.7594 H         1 UNK         0.0800 
    140 H140        5.7619  -22.0782  -48.8066 H         1 UNK         0.0800 
    141 H141        2.4486  -24.5215  -48.3692 H         1 UNK         0.0800 
    142 H142        2.0440  -22.8771  -48.7995 H         1 UNK         0.0800 
    143 H143        1.6916  -24.0789  -46.0103 H         1 UNK         0.0600 
    144 H144        0.6705  -21.4637  -47.0539 H         1 UNK         0.3000 
    145 H145        0.5854  -20.1264  -43.7711 H         1 UNK         0.0600 
    146 H146        1.7833  -18.2396  -44.8167 H         1 UNK         0.0600 
    147 H147        2.8978  -19.5703  -44.5520 H         1 UNK         0.0600 
    148 H148        2.2762  -19.2651  -46.1686 H         1 UNK         0.0600 
    149 H149       -0.1928  -18.9982  -46.2551 H         1 UNK         0.3000 
    150 H150       -3.0958  -20.2819  -46.9101 H         1 UNK         0.0600 
    151 H151       -4.3160  -20.0717  -44.7727 H         1 UNK         0.0600 
    152 H152       -4.7336  -18.7350  -45.8298 H         1 UNK         0.0600 
    153 H153       -3.6145  -18.4815  -44.4906 H         1 UNK         0.0600 
    154 H154       -1.9300  -17.6053  -46.2671 H         1 UNK         0.3000 
    155 H155       -1.0874  -17.0018  -49.5380 H         1 UNK         0.0600 
    156 H156       -2.5441  -14.9667  -49.6624 H         1 UNK         0.0600 
    157 H157       -3.4289  -16.4205  -50.0845 H         1 UNK         0.0600 
    158 H158       -3.6585  -15.6900  -48.5014 H         1 UNK         0.0600 
    159 H159       -1.5178  -15.1744  -47.3585 H         1 UNK         0.3000 
    160 H160        1.3581  -16.0406  -45.4593 H         1 UNK         0.0600 
    161 H161        0.9476  -13.6350  -47.3129 H         1 UNK         0.0600 
    162 H162        2.3353  -14.7109  -47.3615 H         1 UNK         0.0600 
    163 H163        2.0487  -13.7173  -45.9443 H         1 UNK         0.0600 
    164 H164       -0.3318  -13.8182  -45.2114 H         1 UNK         0.3000 
    165 H165       -3.2958  -15.1987  -43.9800 H         1 UNK         0.0600 
    166 H166       -2.8517  -14.0688  -41.8100 H         1 UNK         0.0600 
    167 H167       -1.9460  -15.5703  -41.9009 H         1 UNK         0.0600 
    168 H168       -1.1208  -14.0364  -42.1517 H         1 UNK         0.0600 
    169 H169       -2.3224  -12.5619  -43.7378 H         1 UNK         0.3000 
    170 H170       -2.2546  -11.4329  -47.0051 H         1 UNK         0.0600 
    171 H171       -4.7504  -11.4600  -46.8032 H         1 UNK         0.0600 
    172 H172       -4.6291  -10.8946  -45.1413 H         1 UNK         0.0600 
    173 H173       -4.0972   -9.8647  -46.4717 H         1 UNK         0.0600 
    174 H174       -2.3844   -9.8884  -44.6824 H         1 UNK         0.3000 
    175 H175       -0.1939   -8.8603  -44.1653 H         1 UNK         0.0600 
    176 H176       -0.3797  -11.0866  -42.0358 H         1 UNK         0.0600 
    177 H177       -0.1378   -9.3760  -41.6923 H         1 UNK         0.0600 
    178 H178       -1.6488   -9.9201  -42.3925 H         1 UNK         0.0600 
    179 H179        1.7441  -10.9714  -44.2001 H         1 UNK         0.3000 
    180 H180        4.2177   -9.6586  -44.3427 H         1 UNK         0.0600 
    181 H181        4.7859   -7.8741  -42.7337 H         1 UNK         0.0600 
    182 H182        5.7738   -9.2906  -42.4227 H         1 UNK         0.0600 
    183 H183        4.4038   -8.9254  -41.3742 H         1 UNK         0.0600 
    184 H184        3.8545  -11.3054  -41.8942 H         1 UNK         0.3000 
    185 H185        4.4010  -13.5909  -42.1409 H         1 UNK         0.0600 
    186 H186        1.9727  -13.0920  -41.8769 H         1 UNK         0.0600 
    187 H187        1.6232  -13.8095  -43.4406 H         1 UNK         0.0600 
    188 H188        2.2020  -14.8157  -42.1135 H         1 UNK         0.0600 
    189 H189        3.4414  -15.2340  -44.3008 H         1 UNK         0.3000 
    190 H190       -0.1939  -25.0971  -45.5794 H         1 UNK         0.3000 
    191 H191       -2.6824  -24.5532  -46.6573 H         1 UNK         0.0600 
    192 H192       -1.6851  -27.1366  -45.3518 H         1 UNK         0.0600 
    193 H193       -3.3744  -26.6857  -45.5527 H         1 UNK         0.0600 
    194 H194       -2.3336  -25.7252  -44.5151 H         1 UNK         0.0600 
    195 H195       -0.2761  -26.8140  -47.9255 H         1 UNK         0.3000 
    196 H196       -2.0142  -28.1808  -49.7684 H         1 UNK         0.0600 
    197 H197        0.1358  -29.0344  -50.7084 H         1 UNK         0.0600 
    198 H198        0.0982  -29.1881  -48.9594 H         1 UNK         0.0600 
    199 H199        1.0390  -27.9000  -49.7118 H         1 UNK         0.0600 
    200 H200        0.1262  -25.3259  -50.0390 H         1 UNK         0.3000 
    201 H201       -0.2859  -24.9630  -52.9009 H         1 UNK         0.0600 
    202 H202        1.8150  -24.2210  -51.7241 H         1 UNK         0.0600 
    203 H203        0.8685  -23.0470  -50.8056 H         1 UNK         0.0600 
    204 H204        1.0102  -22.8928  -52.5484 H         1 UNK         0.0600 
    205 H205       -1.5800  -23.6211  -49.8727 H         1 UNK         0.3000 
    206 H206       -3.3411  -21.7007  -51.0452 H         1 UNK         0.0600 
    207 H207       -2.4535  -21.6880  -48.6849 H         1 UNK         0.0600 
    208 H208       -4.1953  -21.5090  -48.7621 H         1 UNK         0.0600 
    209 H209       -3.4923  -23.0589  -48.3055 H         1 UNK         0.0600 
    210 H210       -3.5660  -25.1342  -50.6599 H         1 UNK         0.3000 
    211 H211       -5.0772  -26.7241  -50.9049 H         1 UNK         0.0600 
    212 H212       -6.7196  -24.7509  -52.5813 H         1 UNK         0.0600 
    213 H213       -6.8403  -26.5009  -52.6018 H         1 UNK         0.0600 
    214 H214       -5.3828  -25.7202  -53.1988 H         1 UNK         0.0600 
    215 H215       -5.1120  -25.7210  -48.5301 H         1 UNK         0.3000 
    216 H216       -6.1430  -25.2420  -46.6142 H         1 UNK         0.0600 
    217 H217       -8.3105  -26.3041  -46.1227 H         1 UNK         0.0600 
    218 H218       -7.3261  -27.4023  -47.0750 H         1 UNK         0.0600 
    219 H219       -8.6485  -26.5173  -47.8345 H         1 UNK         0.0600 
    220 H220       -6.0371  -23.2212  -48.5527 H         1 UNK         0.3000 
    221 H221       -6.4528  -21.0898  -48.8540 H         1 UNK         0.0600 
    222 H222       -8.5114  -21.1289  -46.5986 H         1 UNK         0.0600 
    223 H223       -6.7782  -20.8782  -46.3822 H         1 UNK         0.0600 
    224 H224       -7.7286  -19.7198  -47.2947 H         1 UNK         0.0600 
    225 H225       -8.2751  -23.3899  -50.0042 H         1 UNK         0.3000 
    226 H226      -10.5671  -21.8757  -50.9871 H         1 UNK         0.0600 
    227 H227      -10.6113  -24.3749  -50.6559 H         1 UNK         0.0600 
    228 H228      -11.0390  -23.8849  -52.2891 H         1 UNK         0.0600 
    229 H229       -9.4449  -24.5474  -51.9683 H         1 UNK         0.0600 
    230 H230       -7.2780  -22.6389  -52.1087 H         1 UNK         0.3000 
    231 H231       -7.7341  -21.2715  -54.7241 H         1 UNK         0.0600 
    232 H232       -6.6295  -23.5039  -54.8034 H         1 UNK         0.0600 
    233 H233       -5.3548  -22.9290  -53.7289 H         1 UNK         0.0600 
    234 H234       -5.5397  -22.2319  -55.3307 H         1 UNK         0.0600 
    235 H235       -5.9409  -21.1186  -51.6830 H         1 UNK         0.3000 
    236 H236       -4.7080  -19.6014  -50.6335 H         1 UNK         0.0600 
    237 H237       -6.4015  -17.5559  -52.1575 H         1 UNK         0.0600 
    238 H238       -6.8948  -18.3978  -50.6893 H         1 UNK         0.0600 
    239 H239       -5.5450  -17.2783  -50.6462 H         1 UNK         0.0600 
    240 H240       -3.3626  -20.6770  -52.7521 H         1 UNK         0.3000 
    241 H241       -1.5343  -20.5819  -53.9381 H         1 UNK         0.0600 
    242 H242       -3.6926  -18.6219  -56.5556 H         1 UNK         0.3800 
    243 H243       -4.2862  -19.1033  -54.9889 H         1 UNK         0.3800 
    244 H244       -1.0384  -17.7362  -52.9299 H         1 UNK         0.0800 
    245 H245        0.0817  -18.6665  -53.8707 H         1 UNK         0.0800 
    246 H246        1.9951  -18.6312  -52.5659 H         1 UNK         0.0800 
    247 H247        1.9115  -20.3702  -52.7102 H         1 UNK         0.0800 
@<TRIPOS>BOND
     1    1    2 1    
     2    1  127 1    
     3    1  128 1    
     4    1  129 1    
     5    2    3 2    
     6    2    4 am   BACKBONE|DICT|INTERRES
     7    4    5 1    
     8    4  130 1    
     9    5    6 1    
    10    5   65 1    
    11    5  131 1    
    12    6    7 1    
    13    6  132 1    
    14    6  133 1    
    15    7    8 1    
    16    8    9 1    
    17    8  134 1    
    18    8  135 1    
    19    9   10 ar   
    20    9   14 ar   
    21   10   11 ar   
    22   10  136 1    
    23   11   12 ar   
    24   11  126 1    
    25   12   13 ar   
    26   12  137 1    
    27   13   14 ar   
    28   13   15 1    
    29   14  138 1    
    30   15   16 1    
    31   15  139 1    
    32   15  140 1    
    33   16   17 1    
    34   17   18 1    
    35   17  141 1    
    36   17  142 1    
    37   18   19 1    
    38   18   67 1    
    39   18  143 1    
    40   19   20 am   BACKBONE|DICT|INTERRES
    41   19  144 1    
    42   20   21 2    
    43   20   22 1    
    44   22   23 1    
    45   22   24 1    
    46   22  145 1    
    47   23  146 1    
    48   23  147 1    
    49   23  148 1    
    50   24   25 am   BACKBONE|DICT|INTERRES
    51   24  149 1    
    52   25   26 2    
    53   25   27 1    
    54   27   28 1    
    55   27   29 1    
    56   27  150 1    
    57   28  151 1    
    58   28  152 1    
    59   28  153 1    
    60   29   30 am   BACKBONE|DICT|INTERRES
    61   29  154 1    
    62   30   31 2    
    63   30   32 1    
    64   32   33 1    
    65   32   34 1    
    66   32  155 1    
    67   33  156 1    
    68   33  157 1    
    69   33  158 1    
    70   34   35 am   BACKBONE|DICT|INTERRES
    71   34  159 1    
    72   35   36 2    
    73   35   37 1    
    74   37   38 1    
    75   37   39 1    
    76   37  160 1    
    77   38  161 1    
    78   38  162 1    
    79   38  163 1    
    80   39   40 am   BACKBONE|DICT|INTERRES
    81   39  164 1    
    82   40   41 2    
    83   40   42 1    
    84   42   43 1    
    85   42   44 1    
    86   42  165 1    
    87   43  166 1    
    88   43  167 1    
    89   43  168 1    
    90   44   45 am   BACKBONE|DICT|INTERRES
    91   44  169 1    
    92   45   46 2    
    93   45   47 1    
    94   47   48 1    
    95   47   49 1    
    96   47  170 1    
    97   48  171 1    
    98   48  172 1    
    99   48  173 1    
   100   49   50 am   BACKBONE|DICT|INTERRES
   101   49  174 1    
   102   50   51 2    
   103   50   52 1    
   104   52   53 1    
   105   52   54 1    
   106   52  175 1    
   107   53  176 1    
   108   53  177 1    
   109   53  178 1    
   110   54   55 am   BACKBONE|DICT|INTERRES
   111   54  179 1    
   112   55   56 2    
   113   55   57 1    
   114   57   58 1    
   115   57   59 1    
   116   57  180 1    
   117   58  181 1    
   118   58  182 1    
   119   58  183 1    
   120   59   60 am   BACKBONE|DICT|INTERRES
   121   59  184 1    
   122   60   61 2    
   123   60   62 1    
   124   62   63 1    
   125   62   64 1    
   126   62  185 1    
   127   63  186 1    
   128   63  187 1    
   129   63  188 1    
   130   64   65 am   BACKBONE|DICT|INTERRES
   131   64  189 1    
   132   65   66 2    
   133   67   68 2    
   134   67   69 am   BACKBONE|DICT|INTERRES
   135   69   70 1    
   136   69  190 1    
   137   70   71 1    
   138   70   72 1    
   139   70  191 1    
   140   71  192 1    
   141   71  193 1    
   142   71  194 1    
   143   72   73 2    
   144   72   74 am   BACKBONE|DICT|INTERRES
   145   74   75 1    
   146   74  195 1    
   147   75   76 1    
   148   75   77 1    
   149   75  196 1    
   150   76  197 1    
   151   76  198 1    
   152   76  199 1    
   153   77   78 2    
   154   77   79 am   BACKBONE|DICT|INTERRES
   155   79   80 1    
   156   79  200 1    
   157   80   81 1    
   158   80   82 1    
   159   80  201 1    
   160   81  202 1    
   161   81  203 1    
   162   81  204 1    
   163   82   83 2    
   164   82   84 am   BACKBONE|DICT|INTERRES
   165   84   85 1    
   166   84  205 1    
   167   85   86 1    
   168   85   87 1    
   169   85  206 1    
   170   86  207 1    
   171   86  208 1    
   172   86  209 1    
   173   87   88 2    
   174   87   89 am   BACKBONE|DICT|INTERRES
   175   89   90 1    
   176   89  210 1    
   177   90   91 1    
   178   90   92 1    
   179   90  211 1    
   180   91  212 1    
   181   91  213 1    
   182   91  214 1    
   183   92   93 2    
   184   92   94 am   BACKBONE|DICT|INTERRES
   185   94   95 1    
   186   94  215 1    
   187   95   96 1    
   188   95   97 1    
   189   95  216 1    
   190   96  217 1    
   191   96  218 1    
   192   96  219 1    
   193   97   98 2    
   194   97   99 am   BACKBONE|DICT|INTERRES
   195   99  100 1    
   196   99  220 1    
   197  100  101 1    
   198  100  102 1    
   199  100  221 1    
   200  101  222 1    
   201  101  223 1    
   202  101  224 1    
   203  102  103 2    
   204  102  104 am   BACKBONE|DICT|INTERRES
   205  104  105 1    
   206  104  225 1    
   207  105  106 1    
   208  105  107 1    
   209  105  226 1    
   210  106  227 1    
   211  106  228 1    
   212  106  229 1    
   213  107  108 2    
   214  107  109 am   BACKBONE|DICT|INTERRES
   215  109  110 1    
   216  109  230 1    
   217  110  111 1    
   218  110  112 1    
   219  110  231 1    
   220  111  232 1    
   221  111  233 1    
   222  111  234 1    
   223  112  113 2    
   224  112  114 am   BACKBONE|DICT|INTERRES
   225  114  115 1    
   226  114  235 1    
   227  115  116 1    
   228  115  117 1    
   229  115  236 1    
   230  116  237 1    
   231  116  238 1    
   232  116  239 1    
   233  117  118 2    
   234  117  119 am   BACKBONE|DICT|INTERRES
   235  119  120 1    
   236  119  240 1    
   237  120  121 1    
   238  120  124 1    
   239  120  241 1    
   240  121  122 am   BACKBONE|DICT|INTERRES
   241  121  123 2    
   242  122  242 1    
   243  122  243 1    
   244  124  125 1    
   245  124  244 1    
   246  124  245 1    
   247  125  126 1    
   248  126  246 1    
   249  126  247 1    
@<TRIPOS>SUBSTRUCTURE
     1 UNK         1 GROUP             0       ****    0 ROOT    
