@<TRIPOS>MOLECULE
3R540
247   249    1
SMALL
USER_CHARGES


@<TRIPOS>ATOM
      1 CA         -4.1278  -14.1677  -47.9662 C.3       0 UNK        -0.1800 
      2 C          -3.1177  -13.0707  -47.6637 C.2       0 UNK         0.5000 
      3 O          -3.4790  -12.0343  -47.1049 O.2       0 UNK        -0.5000 
      4 N          -1.8454  -13.3004  -48.0109 N.am      1 UNK        -0.5000 
      5 CA         -0.7132  -12.4096  -47.7439 C.3       1 UNK         0.1400 
      6 C6          0.4176  -12.5892  -48.7923 C.3       23 UNK        -0.0398 
      7 S7          1.1195  -14.2767  -48.8978 S.3       23 UNK        -0.2404 
      8 C8          0.2459  -14.9909  -50.3234 C.3       23 UNK        -0.0205 
      9 C9         -0.2766  -16.3753  -49.9809 C.ar      23 UNK        -0.0193 
     10 C10        -1.6461  -16.5915  -49.7978 C.ar      23 UNK        -0.1150 
     11 C11        -2.1246  -17.8616  -49.4651 C.ar      23 UNK        -0.0193 
     12 C12        -1.2182  -18.9167  -49.3272 C.ar      23 UNK        -0.1150 
     13 C13         0.1525  -18.7171  -49.5118 C.ar      23 UNK        -0.0193 
     14 C14         0.6164  -17.4420  -49.8401 C.ar      23 UNK        -0.1150 
     15 C15         1.1247  -19.8849  -49.4136 C.3       23 UNK        -0.0205 
     16 S16         2.1113  -19.8908  -47.8825 S.3       23 UNK        -0.2404 
     17 C17         0.8672  -20.2016  -46.5878 C.3       23 UNK        -0.0398 
     18 CA          0.3551  -21.6727  -46.5495 C.3       11 UNK         0.1400 
     19 N           0.3913  -22.2425  -45.1990 N.am      11 UNK        -0.5000 
     20 C           0.0852  -23.5112  -44.8844 C.2       10 UNK         0.5000 
     21 O          -0.2133  -24.3739  -45.7106 O.2       10 UNK        -0.5000 
     22 CA          0.0495  -23.8546  -43.3835 C.3       10 UNK         0.1400 
     23 CB          1.4422  -24.2766  -42.8938 C.3       10 UNK        -0.1800 
     24 N          -0.4399  -22.7546  -42.5490 N.am      10 UNK        -0.5000 
     25 C          -1.6340  -22.1576  -42.6530 C.2       9 UNK         0.5000 
     26 O          -2.4805  -22.4789  -43.4861 O.2       9 UNK        -0.5000 
     27 CA         -1.9214  -20.9700  -41.7164 C.3       9 UNK         0.1400 
     28 CB         -2.5713  -21.4411  -40.4025 C.3       9 UNK        -0.1800 
     29 N          -0.7678  -20.0935  -41.4698 N.am      9 UNK        -0.5000 
     30 C           0.3586  -20.3384  -40.7791 C.2       8 UNK         0.5000 
     31 O           0.6152  -21.4242  -40.2582 O.2       8 UNK        -0.5000 
     32 CA          1.3976  -19.2009  -40.6821 C.3       8 UNK         0.1400 
     33 CB          2.6469  -19.5514  -41.5057 C.3       8 UNK        -0.1800 
     34 N           0.8789  -17.9055  -41.1279 N.am      8 UNK        -0.5000 
     35 C          -0.0071  -17.1667  -40.4415 C.2       7 UNK         0.5000 
     36 O          -0.3922  -17.4543  -39.3077 O.2       7 UNK        -0.5000 
     37 CA         -0.5940  -15.9208  -41.1370 C.3       7 UNK         0.1400 
     38 CB         -0.0315  -14.6366  -40.5126 C.3       7 UNK        -0.1800 
     39 N          -0.3820  -15.8890  -42.5874 N.am      7 UNK        -0.5000 
     40 C          -0.9373  -16.7378  -43.4645 C.2       6 UNK         0.5000 
     41 O          -1.7158  -17.6356  -43.1411 O.2       6 UNK        -0.5000 
     42 CA         -0.5028  -16.6114  -44.9384 C.3       6 UNK         0.1400 
     43 CB         -1.5790  -15.9091  -45.7739 C.3       6 UNK        -0.1800 
     44 N           0.8030  -15.9646  -45.1420 N.am      6 UNK        -0.5000 
     45 C           1.9560  -16.5210  -44.7397 C.2       5 UNK         0.5000 
     46 O           1.9974  -17.5212  -44.0222 O.2       5 UNK        -0.5000 
     47 CA          3.2800  -15.9049  -45.2118 C.3       5 UNK         0.1400 
     48 CB          3.7251  -16.5732  -46.5262 C.3       5 UNK        -0.1800 
     49 N           3.2580  -14.4476  -45.3761 N.am      5 UNK        -0.5000 
     50 C           4.3689  -13.6979  -45.3052 C.2       4 UNK         0.5000 
     51 O           5.4658  -14.1379  -44.9563 O.2       4 UNK        -0.5000 
     52 CA          4.2696  -12.2217  -45.7163 C.3       4 UNK         0.1400 
     53 CB          4.1204  -12.0984  -47.2404 C.3       4 UNK        -0.1800 
     54 N           3.1582  -11.5336  -45.0628 N.am      4 UNK        -0.5000 
     55 C           3.3014  -10.5774  -44.1330 C.2       3 UNK         0.5000 
     56 O           4.3905  -10.2341  -43.6704 O.2       3 UNK        -0.5000 
     57 CA          2.0314   -9.8455  -43.6494 C.3       3 UNK         0.1400 
     58 CB          1.9624   -8.4361  -44.2589 C.3       3 UNK        -0.1800 
     59 N           0.7898  -10.5493  -43.9663 N.am      3 UNK        -0.5000 
     60 C           0.3605  -11.6478  -43.3345 C.2       2 UNK         0.5000 
     61 O           0.9491  -12.1618  -42.3852 O.2       2 UNK        -0.5000 
     62 CA         -0.9166  -12.3079  -43.8877 C.3       2 UNK         0.1400 
     63 CB         -2.1609  -11.7856  -43.1563 C.3       2 UNK        -0.1800 
     64 N          -1.1015  -12.1447  -45.3340 N.am      2 UNK        -0.5000 
     65 C          -0.2478  -12.5641  -46.2774 C.2       1 UNK         0.5000 
     66 O           0.8327  -13.0952  -46.0094 O.2       1 UNK        -0.5000 
     67 C          -1.0605  -21.7733  -47.1510 C.2       11 UNK         0.5000 
     68 O          -1.2211  -22.2740  -48.2643 O.2       11 UNK        -0.5000 
     69 N          -2.0561  -21.3021  -46.3865 N.am      12 UNK        -0.5000 
     70 CA         -3.4657  -21.2711  -46.7706 C.3       12 UNK         0.1400 
     71 CB         -4.2261  -20.3233  -45.8316 C.3       12 UNK        -0.1800 
     72 C          -4.1092  -22.6669  -46.7862 C.2       12 UNK         0.5000 
     73 O          -4.9551  -22.9255  -47.6407 O.2       12 UNK        -0.5000 
     74 N          -3.6726  -23.5501  -45.8769 N.am      13 UNK        -0.5000 
     75 CA         -4.0779  -24.9559  -45.8149 C.3       13 UNK         0.1400 
     76 CB         -3.5432  -25.5893  -44.5221 C.3       13 UNK        -0.1800 
     77 C          -3.6170  -25.7552  -47.0483 C.2       13 UNK         0.5000 
     78 O          -4.3904  -26.5527  -47.5796 O.2       13 UNK        -0.5000 
     79 N          -2.3831  -25.4969  -47.5050 N.am      14 UNK        -0.5000 
     80 CA         -1.8397  -26.0225  -48.7600 C.3       14 UNK         0.1400 
     81 CB         -0.3069  -25.9236  -48.7147 C.3       14 UNK        -0.1800 
     82 C          -2.3765  -25.2817  -50.0011 C.2       14 UNK         0.5000 
     83 O          -2.2454  -25.7906  -51.1145 O.2       14 UNK        -0.5000 
     84 N          -2.9172  -24.0732  -49.7953 N.am      15 UNK        -0.5000 
     85 CA         -3.3993  -23.1133  -50.7915 C.3       15 UNK         0.1400 
     86 CB         -4.6765  -23.6425  -51.4697 C.3       15 UNK        -0.1800 
     87 C          -2.3016  -22.6832  -51.7882 C.2       15 UNK         0.5000 
     88 O          -2.5806  -22.4883  -52.9734 O.2       15 UNK        -0.5000 
     89 N          -1.0597  -22.5947  -51.2847 N.am      16 UNK        -0.5000 
     90 CA          0.1926  -22.4158  -52.0318 C.3       16 UNK         0.1400 
     91 CB          0.2501  -21.0193  -52.6828 C.3       16 UNK        -0.1800 
     92 C           0.4321  -23.5510  -53.0517 C.2       16 UNK         0.5000 
     93 O           0.7957  -23.2855  -54.1967 O.2       16 UNK        -0.5000 
     94 N           0.1701  -24.7968  -52.6275 N.am      17 UNK        -0.5000 
     95 CA          0.1296  -26.0155  -53.4481 C.3       17 UNK         0.1400 
     96 CB          1.5261  -26.3673  -54.0025 C.3       17 UNK        -0.1800 
     97 C          -0.9621  -25.9262  -54.5368 C.2       17 UNK         0.5000 
     98 O          -0.7197  -26.2538  -55.6992 O.2       17 UNK        -0.5000 
     99 N          -2.1381  -25.4351  -54.1201 N.am      18 UNK        -0.5000 
    100 CA        -3.3423  -25.1419  -54.9065 C.3       18 UNK         0.1400 
    101 CB        -3.9092  -26.4282  -55.5410 C.3       18 UNK        -0.1800 
    102 C         -3.2000  -23.9992  -55.9380 C.2       18 UNK         0.5000 
    103 O         -4.1443  -23.7626  -56.6931 O.2       18 UNK        -0.5000 
    104 N         -2.0596  -23.2947  -55.9610 N.am      19 UNK        -0.5000 
    105 CA        -1.7857  -22.2139  -56.9089 C.3       19 UNK         0.1400 
    106 CB        -0.2686  -22.0088  -57.0292 C.3       19 UNK        -0.1800 
    107 C         -2.4730  -20.8882  -56.5362 C.2       19 UNK         0.5000 
    108 O         -2.8377  -20.1320  -57.4378 O.2       19 UNK        -0.5000 
    109 N         -2.6261  -20.6167  -55.2327 N.am      20 UNK        -0.5000 
    110 CA        -3.2132  -19.3746  -54.7220 C.3       20 UNK         0.1400 
    111 CB        -2.4694  -18.9428  -53.4487 C.3       20 UNK        -0.1800 
    112 C         -4.7197  -19.5051  -54.4463 C.2       20 UNK         0.5000 
    113 O         -5.4059  -18.4835  -54.3885 O.2       20 UNK        -0.5000 
    114 N         -5.2040  -20.7436  -54.2653 N.am      21 UNK        -0.5000 
    115 CA        -6.5759  -21.1621  -53.9364 C.3       21 UNK         0.1400 
    116 CB        -7.5849  -20.7117  -55.0099 C.3       21 UNK        -0.1800 
    117 C         -7.0351  -20.7528  -52.5208 C.2       21 UNK         0.5000 
    118 O         -7.5475  -21.5986  -51.7880 O.2       21 UNK        -0.5000 
    119 N         -6.8133  -19.4848  -52.1558 N.am      22 UNK        -0.5000 
    120 CA        -6.9867  -18.8980  -50.8141 C.3       22 UNK         0.1400 
    121 C         -8.4584  -18.8287  -50.3017 C.2       22 UNK         0.5000 
    122 N         -9.4633  -18.9627  -51.1584 N.am      22 UNK        -0.7600 
    123 O         -8.6997  -18.6149  -49.1166 O.2       22 UNK        -0.5000 
    124 C124       -6.0124  -19.5051  -49.7637 C.3       23 UNK        -0.0398 
    125 S125       -4.2685  -19.4173  -50.2991 S.3       23 UNK        -0.2404 
    126 C126       -3.6136  -18.0926  -49.2371 C.3       23 UNK        -0.0205 
    127 H127       -3.6579  -15.1506  -47.9663 H         1 UNK         0.0600 
    128 H128       -4.9153  -14.1764  -47.2126 H         1 UNK         0.0600 
    129 H129       -4.5870  -14.0005  -48.9401 H         1 UNK         0.0600 
    130 H130       -1.5959  -14.1823  -48.4334 H         1 UNK         0.3000 
    131 H131       -1.0599  -11.3788  -47.8453 H         1 UNK         0.0600 
    132 H132        1.2310  -11.8954  -48.5775 H         1 UNK         0.0800 
    133 H133        0.0520  -12.2922  -49.7757 H         1 UNK         0.0800 
    134 H134        0.9328  -15.0560  -51.1684 H         1 UNK         0.0800 
    135 H135       -0.5724  -14.3442  -50.6426 H         1 UNK         0.0800 
    136 H136       -2.3399  -15.7722  -49.9175 H         1 UNK         0.1150 
    137 H137       -1.5946  -19.9006  -49.1018 H         1 UNK         0.1150 
    138 H138        1.6751  -17.2778  -49.9845 H         1 UNK         0.1150 
    139 H139        0.5974  -20.8327  -49.5070 H         1 UNK         0.0800 
    140 H140        1.8108  -19.8428  -50.2606 H         1 UNK         0.0800 
    141 H141        1.3514  -19.9424  -45.6448 H         1 UNK         0.0800 
    142 H142        0.0628  -19.4722  -46.6951 H         1 UNK         0.0800 
    143 H143        1.0096  -22.2977  -47.1610 H         1 UNK         0.0600 
    144 H144        0.6222  -21.6145  -44.4442 H         1 UNK         0.3000 
    145 H145       -0.6304  -24.6976  -43.2505 H         1 UNK         0.0600 
    146 H146        1.4118  -24.6033  -41.8541 H         1 UNK         0.0600 
    147 H147        1.8290  -25.1085  -43.4841 H         1 UNK         0.0600 
    148 H148        2.1600  -23.4585  -42.9667 H         1 UNK         0.0600 
    149 H149        0.1669  -22.4381  -41.7980 H         1 UNK         0.3000 
    150 H150       -2.6517  -20.3439  -42.2319 H         1 UNK         0.0600 
    151 H151       -3.4954  -21.9853  -40.6014 H         1 UNK         0.0600 
    152 H152       -2.8233  -20.5952  -39.7627 H         1 UNK         0.0600 
    153 H153       -1.9189  -22.1073  -39.8376 H         1 UNK         0.0600 
    154 H154       -0.8574  -19.1747  -41.8883 H         1 UNK         0.3000 
    155 H155        1.6929  -19.1134  -39.6345 H         1 UNK         0.0600 
    156 H156        3.1201  -20.4597  -41.1305 H         1 UNK         0.0600 
    157 H157        3.3900  -18.7551  -41.4579 H         1 UNK         0.0600 
    158 H158        2.4033  -19.7209  -42.5550 H         1 UNK         0.0600 
    159 H159        1.1567  -17.6083  -42.0567 H         1 UNK         0.3000 
    160 H160       -1.6710  -15.9376  -40.9576 H         1 UNK         0.0600 
    161 H161        1.0281  -14.5090  -40.7371 H         1 UNK         0.0600 
    162 H162       -0.5648  -13.7598  -40.8783 H         1 UNK         0.0600 
    163 H163       -0.1392  -14.6445  -39.4271 H         1 UNK         0.0600 
    164 H164        0.2861  -15.2155  -42.9323 H         1 UNK         0.3000 
    165 H165       -0.4167  -17.6294  -45.3214 H         1 UNK         0.0600 
    166 H166       -2.5184  -16.4624  -45.7409 H         1 UNK         0.0600 
    167 H167       -1.7831  -14.9045  -45.4078 H         1 UNK         0.0600 
    168 H168       -1.2803  -15.8438  -46.8199 H         1 UNK         0.0600 
    169 H169        0.8191  -15.1269  -45.7110 H         1 UNK         0.3000 
    170 H170        4.0100  -16.1577  -44.4395 H         1 UNK         0.0600 
    171 H171        3.7550  -17.6586  -46.4232 H         1 UNK         0.0600 
    172 H172        3.0425  -16.3401  -47.3446 H         1 UNK         0.0600 
    173 H173        4.7239  -16.2517  -46.8211 H         1 UNK         0.0600 
    174 H174        2.3800  -14.0138  -45.6490 H         1 UNK         0.3000 
    175 H175        5.2172  -11.7487  -45.4501 H         1 UNK         0.0600 
    176 H176        3.2211  -12.5974  -47.5965 H         1 UNK         0.0600 
    177 H177        4.0727  -11.0546  -47.5508 H         1 UNK         0.0600 
    178 H178        4.9689  -12.5533  -47.7528 H         1 UNK         0.0600 
    179 H179        2.2266  -11.8131  -45.3461 H         1 UNK         0.3000 
    180 H180        2.1058   -9.7437  -42.5646 H         1 UNK         0.0600 
    181 H181        2.8555   -7.8593  -44.0147 H         1 UNK         0.0600 
    182 H182        1.8820   -8.4715  -45.3461 H         1 UNK         0.0600 
    183 H183        1.1056   -7.8815  -43.8756 H         1 UNK         0.0600 
    184 H184        0.2460  -10.1936  -44.7387 H         1 UNK         0.3000 
    185 H185       -0.8350  -13.3769  -43.6902 H         1 UNK         0.0600 
    186 H186       -2.0653  -11.9162  -42.0775 H         1 UNK         0.0600 
    187 H187       -2.3225  -10.7239  -43.3466 H         1 UNK         0.0600 
    188 H188       -3.0561  -12.3233  -43.4694 H         1 UNK         0.0600 
    189 H189       -1.9949  -11.7757  -45.6418 H         1 UNK         0.3000 
    190 H190       -1.8427  -20.9769  -45.4554 H         1 UNK         0.3000 
    191 H191       -3.5300  -20.8706  -47.7834 H         1 UNK         0.0600 
    192 H192       -5.2712  -20.2354  -46.1312 H         1 UNK         0.0600 
    193 H193       -3.7975  -19.3210  -45.8482 H         1 UNK         0.0600 
    194 H194       -4.2082  -20.6775  -44.8001 H         1 UNK         0.0600 
    195 H195       -3.0361  -23.2255  -45.1541 H         1 UNK         0.3000 
    196 H196       -5.1690  -24.9873  -45.7835 H         1 UNK         0.0600 
    197 H197       -3.8892  -26.6187  -44.4211 H         1 UNK         0.0600 
    198 H198       -3.8843  -25.0425  -43.6427 H         1 UNK         0.0600 
    199 H199       -2.4539  -25.6073  -44.5046 H         1 UNK         0.0600 
    200 H200       -1.7801  -24.8763  -46.9743 H         1 UNK         0.3000 
    201 H201       -2.1149  -27.0749  -48.8549 H         1 UNK         0.0600 
    202 H202        0.0975  -26.4759  -47.8663 H         1 UNK         0.0600 
    203 H203        0.0268  -24.8886  -48.6267 H         1 UNK         0.0600 
    204 H204        0.1419  -26.3410  -49.6170 H         1 UNK         0.0600 
    205 H205       -2.9207  -23.7335  -48.8434 H         1 UNK         0.3000 
    206 H206       -3.6684  -22.2151  -50.2380 H         1 UNK         0.0600 
    207 H207       -5.4797  -23.7586  -50.7419 H         1 UNK         0.0600 
    208 H208       -5.0324  -22.9533  -52.2322 H         1 UNK         0.0600 
    209 H209       -4.5183  -24.6094  -51.9445 H         1 UNK         0.0600 
    210 H210       -0.9665  -22.7205  -50.2817 H         1 UNK         0.3000 
    211 H211        1.0001  -22.4790  -51.3015 H         1 UNK         0.0600 
    212 H212       -0.3962  -20.9576  -53.5569 H         1 UNK         0.0600 
    213 H213        1.2625  -20.7873  -53.0144 H         1 UNK         0.0600 
    214 H214       -0.0560  -20.2375  -51.9897 H         1 UNK         0.0600 
    215 H215       -0.1879  -24.9069  -51.6894 H         1 UNK         0.3000 
    216 H216       -0.1705  -26.8253  -52.7814 H         1 UNK         0.0600 
    217 H217        2.2654  -26.4188  -53.2034 H         1 UNK         0.0600 
    218 H218        1.8726  -25.6370  -54.7341 H         1 UNK         0.0600 
    219 H219        1.5134  -27.3396  -54.4960 H         1 UNK         0.0600 
    220 H220       -2.2163  -25.2308  -53.1295 H         1 UNK         0.3000 
    221 H221       -4.0813  -24.7855  -54.1902 H         1 UNK         0.0600 
    222 H222       -3.2608  -26.8126  -56.3286 H         1 UNK         0.0600 
    223 H223       -4.0349  -27.2133  -54.7953 H         1 UNK         0.0600 
    224 H224       -4.8883  -26.2478  -55.9863 H         1 UNK         0.0600 
    225 H225       -1.3292  -23.5208  -55.2989 H         1 UNK         0.3000 
    226 H226       -2.1566  -22.5166  -57.8907 H         1 UNK         0.0600 
    227 H227        0.2426  -22.9439  -57.2594 H         1 UNK         0.0600 
    228 H228       -0.0349  -21.3036  -57.8276 H         1 UNK         0.0600 
    229 H229        0.1581  -21.6089  -56.1091 H         1 UNK         0.0600 
    230 H230       -2.3532  -21.3110  -54.5426 H         1 UNK         0.3000 
    231 H231       -3.0904  -18.5756  -55.4562 H         1 UNK         0.0600 
    232 H232       -2.4926  -19.7192  -52.6846 H         1 UNK         0.0600 
    233 H233       -1.4262  -18.7109  -53.6621 H         1 UNK         0.0600 
    234 H234       -2.9145  -18.0464  -53.0144 H         1 UNK         0.0600 
    235 H235       -4.5272  -21.4933  -54.3000 H         1 UNK         0.3000 
    236 H236       -6.5586  -22.2528  -53.9566 H         1 UNK         0.0600 
    237 H237       -7.2805  -21.0487  -56.0009 H         1 UNK         0.0600 
    238 H238       -8.5719  -21.1317  -54.8128 H         1 UNK         0.0600 
    239 H239       -7.6957  -19.6278  -55.0435 H         1 UNK         0.0600 
    240 H240       -6.3825  -18.8806  -52.8507 H         1 UNK         0.3000 
    241 H241       -6.7027  -17.8518  -50.9317 H         1 UNK         0.0600 
    242 H242      -10.4130  -18.9063  -50.8253 H         1 UNK         0.3800 
    243 H243       -9.2815  -19.1331  -52.1345 H         1 UNK         0.3800 
    244 H244       -6.2588  -20.5513  -49.5756 H         1 UNK         0.0800 
    245 H245       -6.1119  -18.9969  -48.8034 H         1 UNK         0.0800 
    246 H246       -4.1808  -17.1804  -49.4273 H         1 UNK         0.0800 
    247 H247       -3.7724  -18.3491  -48.1895 H         1 UNK         0.0800 
@<TRIPOS>BOND
     1    1    2 1    
     2    1  127 1    
     3    1  128 1    
     4    1  129 1    
     5    2    3 2    
     6    2    4 am   BACKBONE|DICT|INTERRES
     7    4    5 1    
     8    4  130 1    
     9    5    6 1    
    10    5   65 1    
    11    5  131 1    
    12    6    7 1    
    13    6  132 1    
    14    6  133 1    
    15    7    8 1    
    16    8    9 1    
    17    8  134 1    
    18    8  135 1    
    19    9   10 ar   
    20    9   14 ar   
    21   10   11 ar   
    22   10  136 1    
    23   11   12 ar   
    24   11  126 1    
    25   12   13 ar   
    26   12  137 1    
    27   13   14 ar   
    28   13   15 1    
    29   14  138 1    
    30   15   16 1    
    31   15  139 1    
    32   15  140 1    
    33   16   17 1    
    34   17   18 1    
    35   17  141 1    
    36   17  142 1    
    37   18   19 1    
    38   18   67 1    
    39   18  143 1    
    40   19   20 am   BACKBONE|DICT|INTERRES
    41   19  144 1    
    42   20   21 2    
    43   20   22 1    
    44   22   23 1    
    45   22   24 1    
    46   22  145 1    
    47   23  146 1    
    48   23  147 1    
    49   23  148 1    
    50   24   25 am   BACKBONE|DICT|INTERRES
    51   24  149 1    
    52   25   26 2    
    53   25   27 1    
    54   27   28 1    
    55   27   29 1    
    56   27  150 1    
    57   28  151 1    
    58   28  152 1    
    59   28  153 1    
    60   29   30 am   BACKBONE|DICT|INTERRES
    61   29  154 1    
    62   30   31 2    
    63   30   32 1    
    64   32   33 1    
    65   32   34 1    
    66   32  155 1    
    67   33  156 1    
    68   33  157 1    
    69   33  158 1    
    70   34   35 am   BACKBONE|DICT|INTERRES
    71   34  159 1    
    72   35   36 2    
    73   35   37 1    
    74   37   38 1    
    75   37   39 1    
    76   37  160 1    
    77   38  161 1    
    78   38  162 1    
    79   38  163 1    
    80   39   40 am   BACKBONE|DICT|INTERRES
    81   39  164 1    
    82   40   41 2    
    83   40   42 1    
    84   42   43 1    
    85   42   44 1    
    86   42  165 1    
    87   43  166 1    
    88   43  167 1    
    89   43  168 1    
    90   44   45 am   BACKBONE|DICT|INTERRES
    91   44  169 1    
    92   45   46 2    
    93   45   47 1    
    94   47   48 1    
    95   47   49 1    
    96   47  170 1    
    97   48  171 1    
    98   48  172 1    
    99   48  173 1    
   100   49   50 am   BACKBONE|DICT|INTERRES
   101   49  174 1    
   102   50   51 2    
   103   50   52 1    
   104   52   53 1    
   105   52   54 1    
   106   52  175 1    
   107   53  176 1    
   108   53  177 1    
   109   53  178 1    
   110   54   55 am   BACKBONE|DICT|INTERRES
   111   54  179 1    
   112   55   56 2    
   113   55   57 1    
   114   57   58 1    
   115   57   59 1    
   116   57  180 1    
   117   58  181 1    
   118   58  182 1    
   119   58  183 1    
   120   59   60 am   BACKBONE|DICT|INTERRES
   121   59  184 1    
   122   60   61 2    
   123   60   62 1    
   124   62   63 1    
   125   62   64 1    
   126   62  185 1    
   127   63  186 1    
   128   63  187 1    
   129   63  188 1    
   130   64   65 am   BACKBONE|DICT|INTERRES
   131   64  189 1    
   132   65   66 2    
   133   67   68 2    
   134   67   69 am   BACKBONE|DICT|INTERRES
   135   69   70 1    
   136   69  190 1    
   137   70   71 1    
   138   70   72 1    
   139   70  191 1    
   140   71  192 1    
   141   71  193 1    
   142   71  194 1    
   143   72   73 2    
   144   72   74 am   BACKBONE|DICT|INTERRES
   145   74   75 1    
   146   74  195 1    
   147   75   76 1    
   148   75   77 1    
   149   75  196 1    
   150   76  197 1    
   151   76  198 1    
   152   76  199 1    
   153   77   78 2    
   154   77   79 am   BACKBONE|DICT|INTERRES
   155   79   80 1    
   156   79  200 1    
   157   80   81 1    
   158   80   82 1    
   159   80  201 1    
   160   81  202 1    
   161   81  203 1    
   162   81  204 1    
   163   82   83 2    
   164   82   84 am   BACKBONE|DICT|INTERRES
   165   84   85 1    
   166   84  205 1    
   167   85   86 1    
   168   85   87 1    
   169   85  206 1    
   170   86  207 1    
   171   86  208 1    
   172   86  209 1    
   173   87   88 2    
   174   87   89 am   BACKBONE|DICT|INTERRES
   175   89   90 1    
   176   89  210 1    
   177   90   91 1    
   178   90   92 1    
   179   90  211 1    
   180   91  212 1    
   181   91  213 1    
   182   91  214 1    
   183   92   93 2    
   184   92   94 am   BACKBONE|DICT|INTERRES
   185   94   95 1    
   186   94  215 1    
   187   95   96 1    
   188   95   97 1    
   189   95  216 1    
   190   96  217 1    
   191   96  218 1    
   192   96  219 1    
   193   97   98 2    
   194   97   99 am   BACKBONE|DICT|INTERRES
   195   99  100 1    
   196   99  220 1    
   197  100  101 1    
   198  100  102 1    
   199  100  221 1    
   200  101  222 1    
   201  101  223 1    
   202  101  224 1    
   203  102  103 2    
   204  102  104 am   BACKBONE|DICT|INTERRES
   205  104  105 1    
   206  104  225 1    
   207  105  106 1    
   208  105  107 1    
   209  105  226 1    
   210  106  227 1    
   211  106  228 1    
   212  106  229 1    
   213  107  108 2    
   214  107  109 am   BACKBONE|DICT|INTERRES
   215  109  110 1    
   216  109  230 1    
   217  110  111 1    
   218  110  112 1    
   219  110  231 1    
   220  111  232 1    
   221  111  233 1    
   222  111  234 1    
   223  112  113 2    
   224  112  114 am   BACKBONE|DICT|INTERRES
   225  114  115 1    
   226  114  235 1    
   227  115  116 1    
   228  115  117 1    
   229  115  236 1    
   230  116  237 1    
   231  116  238 1    
   232  116  239 1    
   233  117  118 2    
   234  117  119 am   BACKBONE|DICT|INTERRES
   235  119  120 1    
   236  119  240 1    
   237  120  121 1    
   238  120  124 1    
   239  120  241 1    
   240  121  122 am   BACKBONE|DICT|INTERRES
   241  121  123 2    
   242  122  242 1    
   243  122  243 1    
   244  124  125 1    
   245  124  244 1    
   246  124  245 1    
   247  125  126 1    
   248  126  246 1    
   249  126  247 1    
@<TRIPOS>SUBSTRUCTURE
     1 UNK         1 GROUP             0       ****    0 ROOT    
