@<TRIPOS>MOLECULE
3R540
247   249    1
SMALL
USER_CHARGES


@<TRIPOS>ATOM
      1 CA          2.9616  -15.8759  -48.4122 C.3       0 UNK        -0.1800 
      2 C           1.9212  -16.1680  -49.4920 C.2       0 UNK         0.5000 
      3 O           2.2741  -16.7029  -50.5406 O.2       0 UNK        -0.5000 
      4 N           0.6334  -15.8643  -49.2838 N.am      1 UNK        -0.5000 
      5 CA          0.0525  -15.1691  -48.1296 C.3       1 UNK         0.1400 
      6 C6         -1.4928  -15.2964  -48.0966 C.3       23 UNK        -0.0398 
      7 S7         -2.0602  -17.0309  -48.1165 S.3       23 UNK        -0.2404 
      8 C8         -3.8246  -16.8240  -47.7390 C.3       23 UNK        -0.0205 
      9 C9         -4.5269  -18.1690  -47.6271 C.ar      23 UNK        -0.0193 
     10 C10        -4.8692  -18.8799  -48.7813 C.ar      23 UNK        -0.1150 
     11 C11        -5.5213  -20.1138  -48.6895 C.ar      23 UNK        -0.0193 
     12 C12        -5.8595  -20.6181  -47.4318 C.ar      23 UNK        -0.1150 
     13 C13        -5.5132  -19.9247  -46.2705 C.ar      23 UNK        -0.0193 
     14 C14        -4.8431  -18.7011  -46.3731 C.ar      23 UNK        -0.1150 
     15 C15        -5.8631  -20.5071  -44.9089 C.3       23 UNK        -0.0205 
     16 S16        -4.9593  -22.0538  -44.5709 S.3       23 UNK        -0.2404 
     17 C17        -3.2311  -21.4708  -44.5675 C.3       23 UNK        -0.0398 
     18 CA         -2.3915  -22.0250  -45.7477 C.3       11 UNK         0.1400 
     19 N          -1.1926  -21.2178  -45.9859 N.am      11 UNK        -0.5000 
     20 C          -0.3462  -21.3617  -47.0143 C.2       10 UNK         0.5000 
     21 O          -0.5331  -22.1322  -47.9551 O.2       10 UNK        -0.5000 
     22 CA          0.9567  -20.5441  -46.9752 C.3       10 UNK         0.1400 
     23 CB          0.7678  -19.1752  -47.6373 C.3       10 UNK        -0.1800 
     24 N           1.4912  -20.3644  -45.6261 N.am      10 UNK        -0.5000 
     25 C           1.9496  -21.3558  -44.8507 C.2       9 UNK         0.5000 
     26 O           1.9842  -22.5344  -45.2013 O.2       9 UNK        -0.5000 
     27 CA          2.3999  -20.9756  -43.4289 C.3       9 UNK         0.1400 
     28 CB          3.7827  -20.3076  -43.4481 C.3       9 UNK        -0.1800 
     29 N           1.4388  -20.1051  -42.7514 N.am      9 UNK        -0.5000 
     30 C           0.1822  -20.4603  -42.4464 C.2       8 UNK         0.5000 
     31 O          -0.2871  -21.5780  -42.6673 O.2       8 UNK        -0.5000 
     32 CA         -0.7177  -19.3663  -41.8420 C.3       8 UNK         0.1400 
     33 CB         -0.4212  -19.1757  -40.3473 C.3       8 UNK        -0.1800 
     34 N          -0.5971  -18.0844  -42.5407 N.am      8 UNK        -0.5000 
     35 C          -0.9083  -17.9013  -43.8320 C.2       7 UNK         0.5000 
     36 O          -1.3634  -18.7838  -44.5532 O.2       7 UNK        -0.5000 
     37 CA         -0.6086  -16.5279  -44.4476 C.3       7 UNK         0.1400 
     38 CB         -1.6861  -15.4987  -44.0787 C.3       7 UNK        -0.1800 
     39 N           0.7102  -16.0252  -44.0752 N.am      7 UNK        -0.5000 
     40 C           1.8752  -16.6111  -44.3814 C.2       6 UNK         0.5000 
     41 O           1.9740  -17.6118  -45.0873 O.2       6 UNK        -0.5000 
     42 CA          3.1380  -15.9971  -43.7575 C.3       6 UNK         0.1400 
     43 CB          3.6151  -14.7813  -44.5667 C.3       6 UNK        -0.1800 
     44 N           2.9193  -15.6084  -42.3644 N.am      6 UNK        -0.5000 
     45 C           2.7359  -16.4725  -41.3563 C.2       5 UNK         0.5000 
     46 O           2.7614  -17.6964  -41.4906 O.2       5 UNK        -0.5000 
     47 CA          2.4411  -15.8620  -39.9735 C.3       5 UNK         0.1400 
     48 CB          3.7444  -15.4431  -39.2769 C.3       5 UNK        -0.1800 
     49 N           1.5371  -14.7118  -40.0458 N.am      5 UNK        -0.5000 
     50 C           0.2408  -14.7959  -40.3754 C.2       4 UNK         0.5000 
     51 O          -0.3297  -15.8554  -40.6345 O.2       4 UNK        -0.5000 
     52 CA         -0.5381  -13.4692  -40.4829 C.3       4 UNK         0.1400 
     53 CB         -1.0128  -13.0091  -39.0964 C.3       4 UNK        -0.1800 
     54 N           0.1978  -12.3768  -41.1335 N.am      4 UNK        -0.5000 
     55 C           0.7515  -12.4459  -42.3513 C.2       3 UNK         0.5000 
     56 O           0.7933  -13.4817  -43.0163 O.2       3 UNK        -0.5000 
     57 CA          1.3949  -11.1604  -42.9091 C.3       3 UNK         0.1400 
     58 CB          2.7386  -10.8918  -42.2130 C.3       3 UNK        -0.1800 
     59 N           1.6331  -11.2618  -44.3520 N.am      3 UNK        -0.5000 
     60 C           0.6773  -11.3611  -45.2860 C.2       2 UNK         0.5000 
     61 O          -0.5234  -11.2065  -45.0569 O.2       2 UNK        -0.5000 
     62 CA          1.1207  -11.7517  -46.7038 C.3       2 UNK         0.1400 
     63 CB          2.6340  -11.5917  -46.9718 C.3       2 UNK        -0.1800 
     64 N           0.7151  -13.1377  -46.9232 N.am      2 UNK        -0.5000 
     65 C           0.4658  -13.6822  -48.1187 C.2       1 UNK         0.5000 
     66 O           0.5442  -13.0634  -49.1824 O.2       1 UNK        -0.5000 
     67 C          -2.0216  -23.5055  -45.5218 C.2       11 UNK         0.5000 
     68 O          -2.5770  -24.3821  -46.1845 O.2       11 UNK        -0.5000 
     69 N          -1.0636  -23.7490  -44.6140 N.am      12 UNK        -0.5000 
     70 CA         -0.5658  -25.0797  -44.2609 C.3       12 UNK         0.1400 
     71 CB          0.3510  -24.9693  -43.0331 C.3       12 UNK        -0.1800 
     72 C           0.1575  -25.7851  -45.4233 C.2       12 UNK         0.5000 
     73 O          -0.0427  -26.9831  -45.6270 O.2       12 UNK        -0.5000 
     74 N           0.9674  -25.0276  -46.1740 N.am      13 UNK        -0.5000 
     75 CA          1.6944  -25.4991  -47.3540 C.3       13 UNK         0.1400 
     76 CB          2.8278  -24.5073  -47.6618 C.3       13 UNK        -0.1800 
     77 C           0.8033  -25.6789  -48.5990 C.2       13 UNK         0.5000 
     78 O           1.2277  -26.3467  -49.5428 O.2       13 UNK        -0.5000 
     79 N          -0.3846  -25.0548  -48.5945 N.am      14 UNK        -0.5000 
     80 CA         -1.3177  -24.9034  -49.7168 C.3       14 UNK         0.1400 
     81 CB         -1.9194  -26.2610  -50.1326 C.3       14 UNK        -0.1800 
     82 C          -0.6884  -24.1228  -50.8924 C.2       14 UNK         0.5000 
     83 O          -0.9101  -24.4560  -52.0577 O.2       14 UNK        -0.5000 
     84 N           0.1017  -23.0942  -50.5524 N.am      15 UNK        -0.5000 
     85 CA          0.7462  -22.1792  -51.4959 C.3       15 UNK         0.1400 
     86 CB          1.9171  -21.4729  -50.7974 C.3       15 UNK        -0.1800 
     87 C          -0.2487  -21.1515  -52.0627 C.2       15 UNK         0.5000 
     88 O          -0.0718  -20.6887  -53.1906 O.2       15 UNK        -0.5000 
     89 N          -1.2827  -20.8286  -51.2698 N.am      16 UNK        -0.5000 
     90 CA         -2.5081  -20.1097  -51.6375 C.3       16 UNK         0.1400 
     91 CB         -3.2718  -20.9232  -52.7033 C.3       16 UNK        -0.1800 
     92 C          -2.3301  -18.6539  -52.1122 C.2       16 UNK         0.5000 
     93 O          -3.2939  -18.0764  -52.6122 O.2       16 UNK        -0.5000 
     94 N          -1.1101  -18.1026  -52.0265 N.am      17 UNK        -0.5000 
     95 CA         -0.6663  -16.8865  -52.7244 C.3       17 UNK         0.1400 
     96 CB         -1.4046  -15.6384  -52.1937 C.3       17 UNK        -0.1800 
     97 C          -0.7688  -17.0271  -54.2634 C.2       17 UNK         0.5000 
     98 O          -1.0221  -16.0410  -54.9569 O.2       17 UNK        -0.5000 
     99 N          -0.5955  -18.2643  -54.7577 N.am      18 UNK        -0.5000 
    100 CA        -0.7424  -18.7129  -56.1463 C.3       18 UNK         0.1400 
    101 CB         0.2652  -18.0023  -57.0748 C.3       18 UNK        -0.1800 
    102 C         -2.1911  -18.6652  -56.6859 C.2       18 UNK         0.5000 
    103 O         -2.3828  -18.7383  -57.9015 O.2       18 UNK        -0.5000 
    104 N         -3.1904  -18.5725  -55.7956 N.am      19 UNK        -0.5000 
    105 CA        -4.6114  -18.6739  -56.1353 C.3       19 UNK         0.1400 
    106 CB        -5.4453  -18.0721  -54.9918 C.3       19 UNK        -0.1800 
    107 C         -5.0383  -20.1320  -56.4026 C.2       19 UNK         0.5000 
    108 O         -4.3015  -21.0696  -56.0894 O.2       19 UNK        -0.5000 
    109 N         -6.2476  -20.2946  -56.9547 N.am      20 UNK        -0.5000 
    110 CA        -6.8763  -21.5947  -57.2140 C.3       20 UNK         0.1400 
    111 CB        -7.9675  -21.4085  -58.2806 C.3       20 UNK        -0.1800 
    112 C         -7.4653  -22.2583  -55.9498 C.2       20 UNK         0.5000 
    113 O         -7.7703  -23.4517  -55.9811 O.2       20 UNK        -0.5000 
    114 N         -7.6360  -21.4783  -54.8736 N.am      21 UNK        -0.5000 
    115 CA        -8.1116  -21.9251  -53.5637 C.3       21 UNK         0.1400 
    116 CB        -8.4324  -20.6799  -52.7205 C.3       21 UNK        -0.1800 
    117 C         -7.0894  -22.8204  -52.8336 C.2       21 UNK         0.5000 
    118 O         -5.9080  -22.8046  -53.1791 O.2       21 UNK        -0.5000 
    119 N         -7.5771  -23.5616  -51.8284 N.am      22 UNK        -0.5000 
    120 CA        -6.8790  -24.4426  -50.8616 C.3       22 UNK         0.1400 
    121 C         -5.8915  -25.5300  -51.3924 C.2       22 UNK         0.5000 
    122 N         -5.4211  -25.4736  -52.6280 N.am      22 UNK        -0.7600 
    123 O         -5.5832  -26.4752  -50.6717 O.2       22 UNK        -0.5000 
    124 C124       -6.3147  -23.6818  -49.6262 C.3       23 UNK        -0.0398 
    125 S125       -4.9691  -22.4998  -49.9877 S.3       23 UNK        -0.2404 
    126 C126       -5.8567  -20.9056  -49.9433 C.3       23 UNK        -0.0205 
    127 H127        3.1383  -14.8047  -48.3197 H         1 UNK         0.0600 
    128 H128        3.9113  -16.3486  -48.6632 H         1 UNK         0.0600 
    129 H129        2.6482  -16.2698  -47.4466 H         1 UNK         0.0600 
    130 H130       -0.0279  -16.0838  -50.0122 H         1 UNK         0.3000 
    131 H131        0.4492  -15.6390  -47.2298 H         1 UNK         0.0600 
    132 H132       -1.8891  -14.8191  -47.1986 H         1 UNK         0.0800 
    133 H133       -1.9456  -14.7765  -48.9426 H         1 UNK         0.0800 
    134 H134       -4.2954  -16.2280  -48.5222 H         1 UNK         0.0800 
    135 H135       -3.9334  -16.2611  -46.8107 H         1 UNK         0.0800 
    136 H136       -4.6184  -18.4702  -49.7497 H         1 UNK         0.1150 
    137 H137       -6.3680  -21.5684  -47.3533 H         1 UNK         0.1150 
    138 H138       -4.5680  -18.1614  -45.4777 H         1 UNK         0.1150 
    139 H139       -5.6592  -19.7895  -44.1126 H         1 UNK         0.0800 
    140 H140       -6.9346  -20.7086  -44.8727 H         1 UNK         0.0800 
    141 H141       -2.7809  -21.7135  -43.6042 H         1 UNK         0.0800 
    142 H142       -3.2526  -20.3841  -44.6091 H         1 UNK         0.0800 
    143 H143       -2.9943  -21.9631  -46.6569 H         1 UNK         0.0600 
    144 H144       -1.0084  -20.4809  -45.3104 H         1 UNK         0.3000 
    145 H145        1.7005  -21.0969  -47.5519 H         1 UNK         0.0600 
    146 H146        1.7271  -18.6807  -47.7850 H         1 UNK         0.0600 
    147 H147        0.2878  -19.2604  -48.6130 H         1 UNK         0.0600 
    148 H148        0.1502  -18.5238  -47.0205 H         1 UNK         0.0600 
    149 H149        1.5331  -19.4079  -45.2814 H         1 UNK         0.3000 
    150 H150        2.4783  -21.8979  -42.8496 H         1 UNK         0.0600 
    151 H151        4.5200  -20.9506  -43.9303 H         1 UNK         0.0600 
    152 H152        4.1367  -20.1073  -42.4367 H         1 UNK         0.0600 
    153 H153        3.7678  -19.3613  -43.9890 H         1 UNK         0.0600 
    154 H154        1.7593  -19.1738  -42.5070 H         1 UNK         0.3000 
    155 H155       -1.7527  -19.7003  -41.9408 H         1 UNK         0.0600 
    156 H156        0.5873  -18.7965  -40.1805 H         1 UNK         0.0600 
    157 H157       -0.5120  -20.1190  -39.8072 H         1 UNK         0.0600 
    158 H158       -1.1208  -18.4732  -39.8943 H         1 UNK         0.0600 
    159 H159       -0.2709  -17.2941  -41.9927 H         1 UNK         0.3000 
    160 H160       -0.6229  -16.6572  -45.5285 H         1 UNK         0.0600 
    161 H161       -1.7234  -15.3234  -43.0035 H         1 UNK         0.0600 
    162 H162       -2.6735  -15.8403  -44.3917 H         1 UNK         0.0600 
    163 H163       -1.5019  -14.5410  -44.5657 H         1 UNK         0.0600 
    164 H164        0.7314  -15.1724  -43.5173 H         1 UNK         0.3000 
    165 H165        3.9258  -16.7529  -43.7814 H         1 UNK         0.0600 
    166 H166        4.5244  -14.3568  -44.1411 H         1 UNK         0.0600 
    167 H167        3.8404  -15.0618  -45.5958 H         1 UNK         0.0600 
    168 H168        2.8622  -13.9947  -44.5992 H         1 UNK         0.0600 
    169 H169        2.8100  -14.6222  -42.1809 H         1 UNK         0.3000 
    170 H170        1.9639  -16.6336  -39.3654 H         1 UNK         0.0600 
    171 H171        4.4314  -16.2865  -39.1958 H         1 UNK         0.0600 
    172 H172        4.2589  -14.6516  -39.8232 H         1 UNK         0.0600 
    173 H173        3.5525  -15.0834  -38.2658 H         1 UNK         0.0600 
    174 H174        1.9305  -13.8019  -39.8561 H         1 UNK         0.3000 
    175 H175       -1.4225  -13.6658  -41.0922 H         1 UNK         0.0600 
    176 H176       -0.1747  -12.7449  -38.4504 H         1 UNK         0.0600 
    177 H177       -1.6667  -12.1401  -39.1712 H         1 UNK         0.0600 
    178 H178       -1.5782  -13.7963  -38.5955 H         1 UNK         0.0600 
    179 H179        0.2200  -11.4971  -40.6382 H         1 UNK         0.3000 
    180 H180        0.7183  -10.3236  -42.7245 H         1 UNK         0.0600 
    181 H181        3.4422  -11.7115  -42.3655 H         1 UNK         0.0600 
    182 H182        2.6093  -10.7660  -41.1374 H         1 UNK         0.0600 
    183 H183        3.2014   -9.9792  -42.5894 H         1 UNK         0.0600 
    184 H184        2.5890  -11.4191  -44.6330 H         1 UNK         0.3000 
    185 H185        0.5764  -11.1001  -47.3908 H         1 UNK         0.0600 
    186 H186        2.9690  -10.5776  -46.7499 H         1 UNK         0.0600 
    187 H187        3.2331  -12.2833  -46.3792 H         1 UNK         0.0600 
    188 H188        2.8649  -11.7788  -48.0207 H         1 UNK         0.0600 
    189 H189        0.5766  -13.6782  -46.0799 H         1 UNK         0.3000 
    190 H190       -0.6614  -22.9679  -44.1046 H         1 UNK         0.3000 
    191 H191       -1.4263  -25.6933  -43.9867 H         1 UNK         0.0600 
    192 H192        1.2177  -24.3381  -43.2323 H         1 UNK         0.0600 
    193 H193        0.7203  -25.9501  -42.7310 H         1 UNK         0.0600 
    194 H194       -0.1809  -24.5448  -42.1815 H         1 UNK         0.0600 
    195 H195        1.1385  -24.0655  -45.8899 H         1 UNK         0.3000 
    196 H196        2.1406  -26.4686  -47.1235 H         1 UNK         0.0600 
    197 H197        3.4218  -24.8403  -48.5137 H         1 UNK         0.0600 
    198 H198        3.5049  -24.4059  -46.8135 H         1 UNK         0.0600 
    199 H199        2.4388  -23.5165  -47.9000 H         1 UNK         0.0600 
    200 H200       -0.6227  -24.5183  -47.7703 H         1 UNK         0.3000 
    201 H201       -2.1360  -24.2834  -49.3468 H         1 UNK         0.0600 
    202 H202       -2.3674  -26.7702  -49.2793 H         1 UNK         0.0600 
    203 H203       -1.1715  -26.9242  -50.5674 H         1 UNK         0.0600 
    204 H204       -2.7056  -26.1246  -50.8758 H         1 UNK         0.0600 
    205 H205        0.1613  -22.8591  -49.5655 H         1 UNK         0.3000 
    206 H206        1.1435  -22.7594  -52.3313 H         1 UNK         0.0600 
    207 H207        2.6338  -22.1930  -50.4018 H         1 UNK         0.0600 
    208 H208        2.4540  -20.8281  -51.4943 H         1 UNK         0.0600 
    209 H209        1.5770  -20.8490  -49.9721 H         1 UNK         0.0600 
    210 H210       -1.2975  -21.2483  -50.3501 H         1 UNK         0.3000 
    211 H211       -3.1130  -20.0719  -50.7331 H         1 UNK         0.0600 
    212 H212       -2.7722  -20.8940  -53.6721 H         1 UNK         0.0600 
    213 H213       -4.2813  -20.5398  -52.8511 H         1 UNK         0.0600 
    214 H214       -3.3647  -21.9702  -52.4161 H         1 UNK         0.0600 
    215 H215       -0.3784  -18.6638  -51.6146 H         1 UNK         0.3000 
    216 H216        0.3937  -16.7714  -52.4971 H         1 UNK         0.0600 
    217 H217       -0.9001  -14.7251  -52.5110 H         1 UNK         0.0600 
    218 H218       -1.4471  -15.6290  -51.1073 H         1 UNK         0.0600 
    219 H219       -2.4301  -15.5863  -52.5607 H         1 UNK         0.0600 
    220 H220       -0.3972  -19.0141  -54.0991 H         1 UNK         0.3000 
    221 H221       -0.4754  -19.7705  -56.1335 H         1 UNK         0.0600 
    222 H222        0.0147  -16.9513  -57.2192 H         1 UNK         0.0600 
    223 H223        1.2773  -18.0556  -56.6737 H         1 UNK         0.0600 
    224 H224        0.2848  -18.4687  -58.0604 H         1 UNK         0.0600 
    225 H225       -2.9691  -18.5168  -54.8101 H         1 UNK         0.3000 
    226 H226       -4.7944  -18.0897  -57.0396 H         1 UNK         0.0600 
    227 H227       -5.0946  -17.0740  -54.7280 H         1 UNK         0.0600 
    228 H228       -6.4944  -17.9800  -55.2740 H         1 UNK         0.0600 
    229 H229       -5.4034  -18.6894  -54.0939 H         1 UNK         0.0600 
    230 H230       -6.7936  -19.4788  -57.1930 H         1 UNK         0.3000 
    231 H231       -6.1217  -22.2741  -57.6162 H         1 UNK         0.0600 
    232 H232       -7.5527  -21.0017  -59.2030 H         1 UNK         0.0600 
    233 H233       -8.7541  -20.7347  -57.9386 H         1 UNK         0.0600 
    234 H234       -8.4373  -22.3608  -58.5305 H         1 UNK         0.0600 
    235 H235       -7.3275  -20.5211  -54.9354 H         1 UNK         0.3000 
    236 H236       -9.0292  -22.4983  -53.7110 H         1 UNK         0.0600 
    237 H237       -7.5441  -20.0695  -52.5521 H         1 UNK         0.0600 
    238 H238       -9.1803  -20.0548  -53.2087 H         1 UNK         0.0600 
    239 H239       -8.8323  -20.9552  -51.7439 H         1 UNK         0.0600 
    240 H240       -8.5737  -23.5096  -51.6744 H         1 UNK         0.3000 
    241 H241       -7.6989  -25.0459  -50.4693 H         1 UNK         0.0600 
    242 H242       -4.7958  -26.1853  -52.9688 H         1 UNK         0.3800 
    243 H243       -5.5730  -24.6187  -53.1569 H         1 UNK         0.3800 
    244 H244       -7.1276  -23.1619  -49.1193 H         1 UNK         0.0800 
    245 H245       -5.9374  -24.3918  -48.8882 H         1 UNK         0.0800 
    246 H246       -5.5919  -20.3378  -50.8353 H         1 UNK         0.0800 
    247 H247       -6.9346  -21.0574  -49.9987 H         1 UNK         0.0800 
@<TRIPOS>BOND
     1    1    2 1    
     2    1  127 1    
     3    1  128 1    
     4    1  129 1    
     5    2    3 2    
     6    2    4 am   BACKBONE|DICT|INTERRES
     7    4    5 1    
     8    4  130 1    
     9    5    6 1    
    10    5   65 1    
    11    5  131 1    
    12    6    7 1    
    13    6  132 1    
    14    6  133 1    
    15    7    8 1    
    16    8    9 1    
    17    8  134 1    
    18    8  135 1    
    19    9   10 ar   
    20    9   14 ar   
    21   10   11 ar   
    22   10  136 1    
    23   11   12 ar   
    24   11  126 1    
    25   12   13 ar   
    26   12  137 1    
    27   13   14 ar   
    28   13   15 1    
    29   14  138 1    
    30   15   16 1    
    31   15  139 1    
    32   15  140 1    
    33   16   17 1    
    34   17   18 1    
    35   17  141 1    
    36   17  142 1    
    37   18   19 1    
    38   18   67 1    
    39   18  143 1    
    40   19   20 am   BACKBONE|DICT|INTERRES
    41   19  144 1    
    42   20   21 2    
    43   20   22 1    
    44   22   23 1    
    45   22   24 1    
    46   22  145 1    
    47   23  146 1    
    48   23  147 1    
    49   23  148 1    
    50   24   25 am   BACKBONE|DICT|INTERRES
    51   24  149 1    
    52   25   26 2    
    53   25   27 1    
    54   27   28 1    
    55   27   29 1    
    56   27  150 1    
    57   28  151 1    
    58   28  152 1    
    59   28  153 1    
    60   29   30 am   BACKBONE|DICT|INTERRES
    61   29  154 1    
    62   30   31 2    
    63   30   32 1    
    64   32   33 1    
    65   32   34 1    
    66   32  155 1    
    67   33  156 1    
    68   33  157 1    
    69   33  158 1    
    70   34   35 am   BACKBONE|DICT|INTERRES
    71   34  159 1    
    72   35   36 2    
    73   35   37 1    
    74   37   38 1    
    75   37   39 1    
    76   37  160 1    
    77   38  161 1    
    78   38  162 1    
    79   38  163 1    
    80   39   40 am   BACKBONE|DICT|INTERRES
    81   39  164 1    
    82   40   41 2    
    83   40   42 1    
    84   42   43 1    
    85   42   44 1    
    86   42  165 1    
    87   43  166 1    
    88   43  167 1    
    89   43  168 1    
    90   44   45 am   BACKBONE|DICT|INTERRES
    91   44  169 1    
    92   45   46 2    
    93   45   47 1    
    94   47   48 1    
    95   47   49 1    
    96   47  170 1    
    97   48  171 1    
    98   48  172 1    
    99   48  173 1    
   100   49   50 am   BACKBONE|DICT|INTERRES
   101   49  174 1    
   102   50   51 2    
   103   50   52 1    
   104   52   53 1    
   105   52   54 1    
   106   52  175 1    
   107   53  176 1    
   108   53  177 1    
   109   53  178 1    
   110   54   55 am   BACKBONE|DICT|INTERRES
   111   54  179 1    
   112   55   56 2    
   113   55   57 1    
   114   57   58 1    
   115   57   59 1    
   116   57  180 1    
   117   58  181 1    
   118   58  182 1    
   119   58  183 1    
   120   59   60 am   BACKBONE|DICT|INTERRES
   121   59  184 1    
   122   60   61 2    
   123   60   62 1    
   124   62   63 1    
   125   62   64 1    
   126   62  185 1    
   127   63  186 1    
   128   63  187 1    
   129   63  188 1    
   130   64   65 am   BACKBONE|DICT|INTERRES
   131   64  189 1    
   132   65   66 2    
   133   67   68 2    
   134   67   69 am   BACKBONE|DICT|INTERRES
   135   69   70 1    
   136   69  190 1    
   137   70   71 1    
   138   70   72 1    
   139   70  191 1    
   140   71  192 1    
   141   71  193 1    
   142   71  194 1    
   143   72   73 2    
   144   72   74 am   BACKBONE|DICT|INTERRES
   145   74   75 1    
   146   74  195 1    
   147   75   76 1    
   148   75   77 1    
   149   75  196 1    
   150   76  197 1    
   151   76  198 1    
   152   76  199 1    
   153   77   78 2    
   154   77   79 am   BACKBONE|DICT|INTERRES
   155   79   80 1    
   156   79  200 1    
   157   80   81 1    
   158   80   82 1    
   159   80  201 1    
   160   81  202 1    
   161   81  203 1    
   162   81  204 1    
   163   82   83 2    
   164   82   84 am   BACKBONE|DICT|INTERRES
   165   84   85 1    
   166   84  205 1    
   167   85   86 1    
   168   85   87 1    
   169   85  206 1    
   170   86  207 1    
   171   86  208 1    
   172   86  209 1    
   173   87   88 2    
   174   87   89 am   BACKBONE|DICT|INTERRES
   175   89   90 1    
   176   89  210 1    
   177   90   91 1    
   178   90   92 1    
   179   90  211 1    
   180   91  212 1    
   181   91  213 1    
   182   91  214 1    
   183   92   93 2    
   184   92   94 am   BACKBONE|DICT|INTERRES
   185   94   95 1    
   186   94  215 1    
   187   95   96 1    
   188   95   97 1    
   189   95  216 1    
   190   96  217 1    
   191   96  218 1    
   192   96  219 1    
   193   97   98 2    
   194   97   99 am   BACKBONE|DICT|INTERRES
   195   99  100 1    
   196   99  220 1    
   197  100  101 1    
   198  100  102 1    
   199  100  221 1    
   200  101  222 1    
   201  101  223 1    
   202  101  224 1    
   203  102  103 2    
   204  102  104 am   BACKBONE|DICT|INTERRES
   205  104  105 1    
   206  104  225 1    
   207  105  106 1    
   208  105  107 1    
   209  105  226 1    
   210  106  227 1    
   211  106  228 1    
   212  106  229 1    
   213  107  108 2    
   214  107  109 am   BACKBONE|DICT|INTERRES
   215  109  110 1    
   216  109  230 1    
   217  110  111 1    
   218  110  112 1    
   219  110  231 1    
   220  111  232 1    
   221  111  233 1    
   222  111  234 1    
   223  112  113 2    
   224  112  114 am   BACKBONE|DICT|INTERRES
   225  114  115 1    
   226  114  235 1    
   227  115  116 1    
   228  115  117 1    
   229  115  236 1    
   230  116  237 1    
   231  116  238 1    
   232  116  239 1    
   233  117  118 2    
   234  117  119 am   BACKBONE|DICT|INTERRES
   235  119  120 1    
   236  119  240 1    
   237  120  121 1    
   238  120  124 1    
   239  120  241 1    
   240  121  122 am   BACKBONE|DICT|INTERRES
   241  121  123 2    
   242  122  242 1    
   243  122  243 1    
   244  124  125 1    
   245  124  244 1    
   246  124  245 1    
   247  125  126 1    
   248  126  246 1    
   249  126  247 1    
@<TRIPOS>SUBSTRUCTURE
     1 UNK         1 GROUP             0       ****    0 ROOT    
