@<TRIPOS>MOLECULE
3R540
247   249    1
SMALL
USER_CHARGES


@<TRIPOS>ATOM
      1 CA          0.3481  -15.0606  -51.1250 C.3       0 UNK        -0.1800 
      2 C          -0.3971  -15.1329  -49.8007 C.2       0 UNK         0.5000 
      3 O          -0.6482  -16.2273  -49.2999 O.2       0 UNK        -0.5000 
      4 N          -0.7287  -13.9728  -49.2181 N.am      1 UNK        -0.5000 
      5 CA         -1.5714  -13.8355  -48.0193 C.3       1 UNK         0.1400 
      6 C6         -2.0792  -12.3837  -47.8001 C.3       23 UNK        -0.0398 
      7 S7         -2.6599  -11.5150  -49.3018 S.3       23 UNK        -0.2404 
      8 C8         -4.3371  -12.1883  -49.5462 C.3       23 UNK        -0.0205 
      9 C9         -4.3006  -13.5709  -50.1805 C.ar      23 UNK        -0.0193 
     10 C10        -3.7917  -13.7346  -51.4729 C.ar      23 UNK        -0.1150 
     11 C11        -3.6877  -15.0069  -52.0411 C.ar      23 UNK        -0.0193 
     12 C12        -4.1120  -16.1189  -51.3106 C.ar      23 UNK        -0.1150 
     13 C13        -4.6414  -15.9673  -50.0267 C.ar      23 UNK        -0.0193 
     14 C14        -4.7474  -14.6894  -49.4712 C.ar      23 UNK        -0.1150 
     15 C15        -5.0620  -17.1873  -49.2266 C.3       23 UNK        -0.0205 
     16 S16        -3.7303  -17.6945  -48.1016 S.3       23 UNK        -0.2404 
     17 C17        -4.3784  -19.2812  -47.4826 C.3       23 UNK        -0.0398 
     18 CA         -3.2873  -20.0739  -46.7276 C.3       11 UNK         0.1400 
     19 N          -2.7688  -19.3339  -45.5762 N.am      11 UNK        -0.5000 
     20 C          -1.7133  -19.6838  -44.8329 C.2       10 UNK         0.5000 
     21 O          -1.0707  -20.7184  -45.0106 O.2       10 UNK        -0.5000 
     22 CA         -1.3276  -18.7373  -43.6787 C.3       10 UNK         0.1400 
     23 CB         -1.9761  -17.3413  -43.7795 C.3       10 UNK        -0.1800 
     24 N          -1.6001  -19.3020  -42.3557 N.am      10 UNK        -0.5000 
     25 C          -2.7397  -19.8633  -41.9180 C.2       9 UNK         0.5000 
     26 O          -3.7170  -20.0864  -42.6335 O.2       9 UNK        -0.5000 
     27 CA         -2.8135  -20.2267  -40.4203 C.3       9 UNK         0.1400 
     28 CB         -2.5646  -21.7265  -40.2074 C.3       9 UNK        -0.1800 
     29 N          -1.8671  -19.4742  -39.5955 N.am      9 UNK        -0.5000 
     30 C          -1.9607  -18.1671  -39.3140 C.2       8 UNK         0.5000 
     31 O          -2.9193  -17.4642  -39.6350 O.2       8 UNK        -0.5000 
     32 CA         -0.7679  -17.5342  -38.5696 C.3       8 UNK         0.1400 
     33 CB         -1.0549  -17.4570  -37.0622 C.3       8 UNK        -0.1800 
     34 N           0.5044  -18.2363  -38.7792 N.am      8 UNK        -0.5000 
     35 C           1.1446  -18.3310  -39.9524 C.2       7 UNK         0.5000 
     36 O           0.7044  -17.8841  -41.0137 O.2       7 UNK        -0.5000 
     37 CA          2.4764  -19.1010  -39.9487 C.3       7 UNK         0.1400 
     38 CB          2.2682  -20.5209  -40.4994 C.3       7 UNK        -0.1800 
     39 N           3.4976  -18.4169  -40.7435 N.am      7 UNK        -0.5000 
     40 C           4.0512  -17.2394  -40.4083 C.2       6 UNK         0.5000 
     41 O           3.7653  -16.6375  -39.3714 O.2       6 UNK        -0.5000 
     42 CA          5.1090  -16.6361  -41.3555 C.3       6 UNK         0.1400 
     43 CB          6.2937  -16.0179  -40.5856 C.3       6 UNK        -0.1800 
     44 N           5.6033  -17.6231  -42.3115 N.am      6 UNK        -0.5000 
     45 C           6.1220  -17.3621  -43.5147 C.2       5 UNK         0.5000 
     46 O           6.2875  -16.2263  -43.9610 O.2       5 UNK        -0.5000 
     47 CA          6.5330  -18.5820  -44.3621 C.3       5 UNK         0.1400 
     48 CB          7.4459  -19.5554  -43.5875 C.3       5 UNK        -0.1800 
     49 N           5.3916  -19.2858  -44.9554 N.am      5 UNK        -0.5000 
     50 C           4.3654  -19.8953  -44.3464 C.2       4 UNK         0.5000 
     51 O           4.2363  -19.9635  -43.1221 O.2       4 UNK        -0.5000 
     52 CA          3.3012  -20.5223  -45.2739 C.3       4 UNK         0.1400 
     53 CB          2.1576  -21.1882  -44.4939 C.3       4 UNK        -0.1800 
     54 N           2.7281  -19.5455  -46.2027 N.am      4 UNK        -0.5000 
     55 C           3.3178  -19.0936  -47.3170 C.2       3 UNK         0.5000 
     56 O           4.4221  -19.4798  -47.7032 O.2       3 UNK        -0.5000 
     57 CA          2.5717  -18.0122  -48.1224 C.3       3 UNK         0.1400 
     58 CB          1.7206  -18.6692  -49.2182 C.3       3 UNK        -0.1800 
     59 N           1.7248  -17.1166  -47.3241 N.am      3 UNK        -0.5000 
     60 C           2.1538  -16.3258  -46.3268 C.2       2 UNK         0.5000 
     61 O           3.3204  -16.2970  -45.9357 O.2       2 UNK        -0.5000 
     62 CA          1.1059  -15.3900  -45.6988 C.3       2 UNK         0.1400 
     63 CB          1.7090  -14.3394  -44.7469 C.3       2 UNK        -0.1800 
     64 N           0.3566  -14.7314  -46.7643 N.am      2 UNK        -0.5000 
     65 C          -0.9354  -14.3866  -46.7210 C.2       1 UNK         0.5000 
     66 O          -1.6294  -14.4861  -45.7094 O.2       1 UNK        -0.5000 
     67 C          -3.7816  -21.4909  -46.3702 C.2       11 UNK         0.5000 
     68 O          -3.7168  -22.3716  -47.2275 O.2       11 UNK        -0.5000 
     69 N          -4.2273  -21.7091  -45.1228 N.am      12 UNK        -0.5000 
     70 CA         -4.6293  -23.0278  -44.6293 C.3       12 UNK         0.1400 
     71 CB         -5.4722  -22.8794  -43.3544 C.3       12 UNK        -0.1800 
     72 C          -3.4185  -23.9468  -44.3877 C.2       12 UNK         0.5000 
     73 O          -3.4929  -25.1357  -44.6977 O.2       12 UNK        -0.5000 
     74 N          -2.3081  -23.3775  -43.8948 N.am      13 UNK        -0.5000 
     75 CA         -1.0282  -24.0759  -43.7367 C.3       13 UNK         0.1400 
     76 CB         -0.1137  -23.2914  -42.7844 C.3       13 UNK        -0.1800 
     77 C          -0.3392  -24.3429  -45.0877 C.2       13 UNK         0.5000 
     78 O           0.3155  -25.3735  -45.2437 O.2       13 UNK        -0.5000 
     79 N          -0.5510  -23.4414  -46.0564 N.am      14 UNK        -0.5000 
     80 CA         -0.1450  -23.5947  -47.4554 C.3       14 UNK         0.1400 
     81 CB         -0.0801  -22.2055  -48.1122 C.3       14 UNK        -0.1800 
     82 C          -1.0654  -24.5398  -48.2618 C.2       14 UNK         0.5000 
     83 O          -0.8295  -24.7222  -49.4556 O.2       14 UNK        -0.5000 
     84 N          -2.1055  -25.1015  -47.6238 N.am      15 UNK        -0.5000 
     85 CA         -3.0873  -26.0460  -48.1711 C.3       15 UNK         0.1400 
     86 CB         -2.4182  -27.4054  -48.4611 C.3       15 UNK        -0.1800 
     87 C          -3.8663  -25.4892  -49.3825 C.2       15 UNK         0.5000 
     88 O          -4.1763  -26.2324  -50.3150 O.2       15 UNK        -0.5000 
     89 N          -4.1470  -24.1784  -49.3463 N.am      16 UNK        -0.5000 
     90 CA         -4.8209  -23.3701  -50.3663 C.3       16 UNK         0.1400 
     91 CB         -6.2750  -23.8386  -50.5776 C.3       16 UNK        -0.1800 
     92 C          -4.0468  -23.2352  -51.6954 C.2       16 UNK         0.5000 
     93 O          -4.6230  -22.7631  -52.6767 O.2       16 UNK        -0.5000 
     94 N          -2.7514  -23.5907  -51.7149 N.am      17 UNK        -0.5000 
     95 CA         -1.8857  -23.4838  -52.8945 C.3       17 UNK         0.1400 
     96 CB         -0.5316  -24.1475  -52.6086 C.3       17 UNK        -0.1800 
     97 C          -1.6846  -22.0310  -53.3624 C.2       17 UNK         0.5000 
     98 O          -1.5832  -21.7885  -54.5642 O.2       17 UNK        -0.5000 
     99 N          -1.6786  -21.0902  -52.4070 N.am      18 UNK        -0.5000 
    100 CA        -1.6426  -19.6507  -52.6580 C.3       18 UNK         0.1400 
    101 CB        -1.4707  -18.9063  -51.3262 C.3       18 UNK        -0.1800 
    102 C         -2.9028  -19.1633  -53.3909 C.2       18 UNK         0.5000 
    103 O         -2.7893  -18.4523  -54.3877 O.2       18 UNK        -0.5000 
    104 N         -4.0773  -19.5884  -52.9021 N.am      19 UNK        -0.5000 
    105 CA        -5.3822  -19.2629  -53.4797 C.3       19 UNK         0.1400 
    106 CB        -6.4986  -19.7227  -52.5297 C.3       19 UNK        -0.1800 
    107 C         -5.5677  -19.8734  -54.8780 C.2       19 UNK         0.5000 
    108 O         -6.0907  -19.2049  -55.7691 O.2       19 UNK        -0.5000 
    109 N         -5.0925  -21.1136  -55.0572 N.am      20 UNK        -0.5000 
    110 CA        -5.0567  -21.8087  -56.3436 C.3       20 UNK         0.1400 
    111 CB        -4.6131  -23.2625  -56.1231 C.3       20 UNK        -0.1800 
    112 C         -4.1515  -21.1120  -57.3791 C.2       20 UNK         0.5000 
    113 O         -4.4705  -21.1335  -58.5685 O.2       20 UNK        -0.5000 
    114 N         -3.0540  -20.4999  -56.9124 N.am      21 UNK        -0.5000 
    115 CA        -2.1291  -19.7257  -57.7336 C.3       21 UNK         0.1400 
    116 CB        -0.7775  -19.5830  -57.0153 C.3       21 UNK        -0.1800 
    117 C         -2.7024  -18.3531  -58.1282 C.2       21 UNK         0.5000 
    118 O         -2.7114  -18.0353  -59.3189 O.2       21 UNK        -0.5000 
    119 N         -3.1504  -17.5581  -57.1436 N.am      22 UNK        -0.5000 
    120 CA        -3.6555  -16.1933  -57.3838 C.3       22 UNK         0.1400 
    121 C         -5.1193  -16.1012  -57.9040 C.2       22 UNK         0.5000 
    122 N         -5.9553  -17.1187  -57.7450 N.am      22 UNK        -0.7600 
    123 O         -5.4979  -15.0893  -58.4886 O.2       22 UNK        -0.5000 
    124 C124       -3.3707  -15.2225  -56.2084 C.3       23 UNK        -0.0398 
    125 S125       -4.3492  -15.4936  -54.6889 S.3       23 UNK        -0.2404 
    126 C126       -3.0793  -15.1811  -53.4234 C.3       23 UNK        -0.0205 
    127 H127        1.3282  -15.5278  -51.0303 H         1 UNK         0.0600 
    128 H128        0.4895  -14.0310  -51.4547 H         1 UNK         0.0600 
    129 H129       -0.2107  -15.5902  -51.8964 H         1 UNK         0.0600 
    130 H130       -0.4948  -13.1036  -49.6765 H         1 UNK         0.3000 
    131 H131       -2.4436  -14.4658  -48.1869 H         1 UNK         0.0600 
    132 H132       -1.2800  -11.7716  -47.3781 H         1 UNK         0.0800 
    133 H133       -2.8825  -12.3727  -47.0612 H         1 UNK         0.0800 
    134 H134       -4.8929  -11.5168  -50.2020 H         1 UNK         0.0800 
    135 H135       -4.8720  -12.2010  -48.5954 H         1 UNK         0.0800 
    136 H136       -3.4479  -12.8698  -52.0229 H         1 UNK         0.1150 
    137 H137       -4.0190  -17.1044  -51.7379 H         1 UNK         0.1150 
    138 H138       -5.1384  -14.5737  -48.4701 H         1 UNK         0.1150 
    139 H139       -5.3050  -18.0107  -49.8980 H         1 UNK         0.0800 
    140 H140       -5.9650  -16.9704  -48.6541 H         1 UNK         0.0800 
    141 H141       -4.7469  -19.8564  -48.3343 H         1 UNK         0.0800 
    142 H142       -5.2380  -19.0875  -46.8384 H         1 UNK         0.0800 
    143 H143       -2.4491  -20.2028  -47.4132 H         1 UNK         0.0600 
    144 H144       -3.2480  -18.4739  -45.3529 H         1 UNK         0.3000 
    145 H145       -0.2467  -18.6052  -43.7453 H         1 UNK         0.0600 
    146 H146       -1.5386  -16.6580  -43.0511 H         1 UNK         0.0600 
    147 H147       -1.8178  -16.9039  -44.7647 H         1 UNK         0.0600 
    148 H148       -3.0508  -17.3711  -43.5965 H         1 UNK         0.0600 
    149 H149       -0.8647  -19.1398  -41.6787 H         1 UNK         0.3000 
    150 H150       -3.8267  -19.9976  -40.0836 H         1 UNK         0.0600 
    151 H151       -3.1718  -22.3349  -40.8782 H         1 UNK         0.0600 
    152 H152       -2.8130  -22.0224  -39.1881 H         1 UNK         0.0600 
    153 H153       -1.5204  -21.9817  -40.3802 H         1 UNK         0.0600 
    154 H154       -1.0525  -19.9723  -39.2691 H         1 UNK         0.3000 
    155 H155       -0.6526  -16.5164  -38.9482 H         1 UNK         0.0600 
    156 H156       -1.1553  -18.4491  -36.6201 H         1 UNK         0.0600 
    157 H157       -1.9818  -16.9157  -36.8678 H         1 UNK         0.0600 
    158 H158       -0.2580  -16.9322  -36.5348 H         1 UNK         0.0600 
    159 H159        0.9311  -18.6382  -37.9566 H         1 UNK         0.3000 
    160 H160        2.8423  -19.1796  -38.9228 H         1 UNK         0.0600 
    161 H161        1.8863  -20.5040  -41.5204 H         1 UNK         0.0600 
    162 H162        1.5538  -21.0775  -39.8919 H         1 UNK         0.0600 
    163 H163        3.2014  -21.0845  -40.5028 H         1 UNK         0.0600 
    164 H164        3.7245  -18.8494  -41.6337 H         1 UNK         0.3000 
    165 H165        4.6016  -15.8422  -41.9074 H         1 UNK         0.0600 
    166 H166        7.0079  -15.5492  -41.2626 H         1 UNK         0.0600 
    167 H167        5.9570  -15.2451  -39.8937 H         1 UNK         0.0600 
    168 H168        6.8275  -16.7713  -40.0054 H         1 UNK         0.0600 
    169 H169        5.4625  -18.5956  -42.0666 H         1 UNK         0.3000 
    170 H170        7.1138  -18.1949  -45.2008 H         1 UNK         0.0600 
    171 H171        8.3016  -19.0302  -43.1614 H         1 UNK         0.0600 
    172 H172        6.9268  -20.0528  -42.7680 H         1 UNK         0.0600 
    173 H173        7.8376  -20.3295  -44.2473 H         1 UNK         0.0600 
    174 H174        5.3532  -19.2633  -45.9700 H         1 UNK         0.3000 
    175 H175        3.8020  -21.3035  -45.8496 H         1 UNK         0.0600 
    176 H176        1.5795  -20.4594  -43.9256 H         1 UNK         0.0600 
    177 H177        1.4762  -21.7038  -45.1686 H         1 UNK         0.0600 
    178 H178        2.5386  -21.9308  -43.7920 H         1 UNK         0.0600 
    179 H179        1.8342  -19.1547  -45.9478 H         1 UNK         0.3000 
    180 H180        3.3310  -17.3955  -48.6075 H         1 UNK         0.0600 
    181 H181        1.3398  -17.9255  -49.9172 H         1 UNK         0.0600 
    182 H182        0.8692  -19.2051  -48.7969 H         1 UNK         0.0600 
    183 H183        2.3049  -19.3838  -49.7997 H         1 UNK         0.0600 
    184 H184        0.7590  -17.0420  -47.6207 H         1 UNK         0.3000 
    185 H185        0.4339  -16.0274  -45.1217 H         1 UNK         0.0600 
    186 H186        0.9310  -13.7238  -44.2952 H         1 UNK         0.0600 
    187 H187        2.2568  -14.8161  -43.9330 H         1 UNK         0.0600 
    188 H188        2.4006  -13.6768  -45.2685 H         1 UNK         0.0600 
    189 H189        0.8431  -14.6225  -47.6435 H         1 UNK         0.3000 
    190 H190       -4.2056  -20.9541  -44.4442 H         1 UNK         0.3000 
    191 H191       -5.2574  -23.5000  -45.3881 H         1 UNK         0.0600 
    192 H192       -5.8372  -23.8498  -43.0156 H         1 UNK         0.0600 
    193 H193       -6.3429  -22.2472  -43.5287 H         1 UNK         0.0600 
    194 H194       -4.9006  -22.4434  -42.5363 H         1 UNK         0.0600 
    195 H195       -2.3055  -22.3806  -43.7309 H         1 UNK         0.3000 
    196 H196       -1.2207  -25.0498  -43.2812 H         1 UNK         0.0600 
    197 H197       -0.0792  -22.2302  -43.0286 H         1 UNK         0.0600 
    198 H198       -0.4564  -23.3908  -41.7565 H         1 UNK         0.0600 
    199 H199        0.9083  -23.6717  -42.8126 H         1 UNK         0.0600 
    200 H200       -1.0295  -22.5808  -45.8122 H         1 UNK         0.3000 
    201 H201        0.8588  -24.0236  -47.4769 H         1 UNK         0.0600 
    202 H202       -1.0739  -21.7821  -48.2464 H         1 UNK         0.0600 
    203 H203        0.3829  -22.2617  -49.0981 H         1 UNK         0.0600 
    204 H204        0.5092  -21.5076  -47.5169 H         1 UNK         0.0600 
    205 H205       -2.2404  -24.8615  -46.6512 H         1 UNK         0.3000 
    206 H206       -3.8270  -26.2038  -47.3850 H         1 UNK         0.0600 
    207 H207       -1.8920  -27.7800  -47.5830 H         1 UNK         0.0600 
    208 H208       -3.1589  -28.1563  -48.7384 H         1 UNK         0.0600 
    209 H209       -1.6999  -27.3362  -49.2786 H         1 UNK         0.0600 
    210 H210       -3.8523  -23.6537  -48.5237 H         1 UNK         0.3000 
    211 H211       -4.8653  -22.3616  -49.9530 H         1 UNK         0.0600 
    212 H212       -6.8254  -23.1384  -51.2070 H         1 UNK         0.0600 
    213 H213       -6.8086  -23.9073  -49.6297 H         1 UNK         0.0600 
    214 H214       -6.3211  -24.8142  -51.0618 H         1 UNK         0.0600 
    215 H215       -2.3330  -23.9837  -50.8796 H         1 UNK         0.3000 
    216 H216       -2.3660  -24.0309  -53.7080 H         1 UNK         0.0600 
    217 H217        0.0079  -23.6344  -51.8115 H         1 UNK         0.0600 
    218 H218        0.1037  -24.1350  -53.4951 H         1 UNK         0.0600 
    219 H219       -0.6569  -25.1892  -52.3125 H         1 UNK         0.0600 
    220 H220       -1.7563  -21.3872  -51.4463 H         1 UNK         0.3000 
    221 H221       -0.7781  -19.4351  -53.2895 H         1 UNK         0.0600 
    222 H222       -0.5556  -19.2135  -50.8234 H         1 UNK         0.0600 
    223 H223       -2.3018  -19.0863  -50.6434 H         1 UNK         0.0600 
    224 H224       -1.4082  -17.8294  -51.4860 H         1 UNK         0.0600 
    225 H225       -4.0753  -20.2223  -52.1185 H         1 UNK         0.3000 
    226 H226       -5.4458  -18.1775  -53.5802 H         1 UNK         0.0600 
    227 H227       -6.4791  -20.8013  -52.3723 H         1 UNK         0.0600 
    228 H228       -6.4167  -19.2400  -51.5572 H         1 UNK         0.0600 
    229 H229       -7.4796  -19.4696  -52.9336 H         1 UNK         0.0600 
    230 H230       -4.7314  -21.6181  -54.2525 H         1 UNK         0.3000 
    231 H231       -6.0725  -21.8189  -56.7440 H         1 UNK         0.0600 
    232 H232       -3.5972  -23.3169  -55.7321 H         1 UNK         0.0600 
    233 H233       -4.6349  -23.8229  -57.0585 H         1 UNK         0.0600 
    234 H234       -5.2706  -23.7745  -55.4201 H         1 UNK         0.0600 
    235 H235       -2.8406  -20.5636  -55.9247 H         1 UNK         0.3000 
    236 H236       -1.9475  -20.2837  -58.6548 H         1 UNK         0.0600 
    237 H237       -0.3352  -20.5590  -56.8148 H         1 UNK         0.0600 
    238 H238       -0.0685  -19.0247  -57.6276 H         1 UNK         0.0600 
    239 H239       -0.8711  -19.0595  -56.0645 H         1 UNK         0.0600 
    240 H240       -3.1161  -17.8750  -56.1773 H         1 UNK         0.3000 
    241 H241       -3.0609  -15.7924  -58.2075 H         1 UNK         0.0600 
    242 H242       -6.8944  -17.0406  -58.0999 H         1 UNK         0.3800 
    243 H243       -5.7088  -17.9218  -57.1747 H         1 UNK         0.3800 
    244 H244       -3.5448  -14.1943  -56.5301 H         1 UNK         0.0800 
    245 H245       -2.3088  -15.2722  -55.9640 H         1 UNK         0.0800 
    246 H246       -2.5119  -14.2892  -53.6941 H         1 UNK         0.0800 
    247 H247       -2.3652  -16.0050  -53.4103 H         1 UNK         0.0800 
@<TRIPOS>BOND
     1    1    2 1    
     2    1  127 1    
     3    1  128 1    
     4    1  129 1    
     5    2    3 2    
     6    2    4 am   BACKBONE|DICT|INTERRES
     7    4    5 1    
     8    4  130 1    
     9    5    6 1    
    10    5   65 1    
    11    5  131 1    
    12    6    7 1    
    13    6  132 1    
    14    6  133 1    
    15    7    8 1    
    16    8    9 1    
    17    8  134 1    
    18    8  135 1    
    19    9   10 ar   
    20    9   14 ar   
    21   10   11 ar   
    22   10  136 1    
    23   11   12 ar   
    24   11  126 1    
    25   12   13 ar   
    26   12  137 1    
    27   13   14 ar   
    28   13   15 1    
    29   14  138 1    
    30   15   16 1    
    31   15  139 1    
    32   15  140 1    
    33   16   17 1    
    34   17   18 1    
    35   17  141 1    
    36   17  142 1    
    37   18   19 1    
    38   18   67 1    
    39   18  143 1    
    40   19   20 am   BACKBONE|DICT|INTERRES
    41   19  144 1    
    42   20   21 2    
    43   20   22 1    
    44   22   23 1    
    45   22   24 1    
    46   22  145 1    
    47   23  146 1    
    48   23  147 1    
    49   23  148 1    
    50   24   25 am   BACKBONE|DICT|INTERRES
    51   24  149 1    
    52   25   26 2    
    53   25   27 1    
    54   27   28 1    
    55   27   29 1    
    56   27  150 1    
    57   28  151 1    
    58   28  152 1    
    59   28  153 1    
    60   29   30 am   BACKBONE|DICT|INTERRES
    61   29  154 1    
    62   30   31 2    
    63   30   32 1    
    64   32   33 1    
    65   32   34 1    
    66   32  155 1    
    67   33  156 1    
    68   33  157 1    
    69   33  158 1    
    70   34   35 am   BACKBONE|DICT|INTERRES
    71   34  159 1    
    72   35   36 2    
    73   35   37 1    
    74   37   38 1    
    75   37   39 1    
    76   37  160 1    
    77   38  161 1    
    78   38  162 1    
    79   38  163 1    
    80   39   40 am   BACKBONE|DICT|INTERRES
    81   39  164 1    
    82   40   41 2    
    83   40   42 1    
    84   42   43 1    
    85   42   44 1    
    86   42  165 1    
    87   43  166 1    
    88   43  167 1    
    89   43  168 1    
    90   44   45 am   BACKBONE|DICT|INTERRES
    91   44  169 1    
    92   45   46 2    
    93   45   47 1    
    94   47   48 1    
    95   47   49 1    
    96   47  170 1    
    97   48  171 1    
    98   48  172 1    
    99   48  173 1    
   100   49   50 am   BACKBONE|DICT|INTERRES
   101   49  174 1    
   102   50   51 2    
   103   50   52 1    
   104   52   53 1    
   105   52   54 1    
   106   52  175 1    
   107   53  176 1    
   108   53  177 1    
   109   53  178 1    
   110   54   55 am   BACKBONE|DICT|INTERRES
   111   54  179 1    
   112   55   56 2    
   113   55   57 1    
   114   57   58 1    
   115   57   59 1    
   116   57  180 1    
   117   58  181 1    
   118   58  182 1    
   119   58  183 1    
   120   59   60 am   BACKBONE|DICT|INTERRES
   121   59  184 1    
   122   60   61 2    
   123   60   62 1    
   124   62   63 1    
   125   62   64 1    
   126   62  185 1    
   127   63  186 1    
   128   63  187 1    
   129   63  188 1    
   130   64   65 am   BACKBONE|DICT|INTERRES
   131   64  189 1    
   132   65   66 2    
   133   67   68 2    
   134   67   69 am   BACKBONE|DICT|INTERRES
   135   69   70 1    
   136   69  190 1    
   137   70   71 1    
   138   70   72 1    
   139   70  191 1    
   140   71  192 1    
   141   71  193 1    
   142   71  194 1    
   143   72   73 2    
   144   72   74 am   BACKBONE|DICT|INTERRES
   145   74   75 1    
   146   74  195 1    
   147   75   76 1    
   148   75   77 1    
   149   75  196 1    
   150   76  197 1    
   151   76  198 1    
   152   76  199 1    
   153   77   78 2    
   154   77   79 am   BACKBONE|DICT|INTERRES
   155   79   80 1    
   156   79  200 1    
   157   80   81 1    
   158   80   82 1    
   159   80  201 1    
   160   81  202 1    
   161   81  203 1    
   162   81  204 1    
   163   82   83 2    
   164   82   84 am   BACKBONE|DICT|INTERRES
   165   84   85 1    
   166   84  205 1    
   167   85   86 1    
   168   85   87 1    
   169   85  206 1    
   170   86  207 1    
   171   86  208 1    
   172   86  209 1    
   173   87   88 2    
   174   87   89 am   BACKBONE|DICT|INTERRES
   175   89   90 1    
   176   89  210 1    
   177   90   91 1    
   178   90   92 1    
   179   90  211 1    
   180   91  212 1    
   181   91  213 1    
   182   91  214 1    
   183   92   93 2    
   184   92   94 am   BACKBONE|DICT|INTERRES
   185   94   95 1    
   186   94  215 1    
   187   95   96 1    
   188   95   97 1    
   189   95  216 1    
   190   96  217 1    
   191   96  218 1    
   192   96  219 1    
   193   97   98 2    
   194   97   99 am   BACKBONE|DICT|INTERRES
   195   99  100 1    
   196   99  220 1    
   197  100  101 1    
   198  100  102 1    
   199  100  221 1    
   200  101  222 1    
   201  101  223 1    
   202  101  224 1    
   203  102  103 2    
   204  102  104 am   BACKBONE|DICT|INTERRES
   205  104  105 1    
   206  104  225 1    
   207  105  106 1    
   208  105  107 1    
   209  105  226 1    
   210  106  227 1    
   211  106  228 1    
   212  106  229 1    
   213  107  108 2    
   214  107  109 am   BACKBONE|DICT|INTERRES
   215  109  110 1    
   216  109  230 1    
   217  110  111 1    
   218  110  112 1    
   219  110  231 1    
   220  111  232 1    
   221  111  233 1    
   222  111  234 1    
   223  112  113 2    
   224  112  114 am   BACKBONE|DICT|INTERRES
   225  114  115 1    
   226  114  235 1    
   227  115  116 1    
   228  115  117 1    
   229  115  236 1    
   230  116  237 1    
   231  116  238 1    
   232  116  239 1    
   233  117  118 2    
   234  117  119 am   BACKBONE|DICT|INTERRES
   235  119  120 1    
   236  119  240 1    
   237  120  121 1    
   238  120  124 1    
   239  120  241 1    
   240  121  122 am   BACKBONE|DICT|INTERRES
   241  121  123 2    
   242  122  242 1    
   243  122  243 1    
   244  124  125 1    
   245  124  244 1    
   246  124  245 1    
   247  125  126 1    
   248  126  246 1    
   249  126  247 1    
@<TRIPOS>SUBSTRUCTURE
     1 UNK         1 GROUP             0       ****    0 ROOT    
