@<TRIPOS>MOLECULE
3R540
247   249    1
SMALL
USER_CHARGES


@<TRIPOS>ATOM
      1 CA          1.4432  -14.4423  -50.1233 C.3       0 UNK        -0.1800 
      2 C           2.8541  -14.2440  -49.5903 C.2       0 UNK         0.5000 
      3 O           3.3134  -13.1090  -49.4702 O.2       0 UNK        -0.5000 
      4 N           3.5340  -15.3477  -49.2521 N.am      1 UNK        -0.5000 
      5 CA          4.9013  -15.3828  -48.7097 C.3       1 UNK         0.1400 
      6 C6          5.4526  -16.8345  -48.6833 C.3       23 UNK        -0.0398 
      7 S7          6.2976  -17.3334  -50.2233 S.3       23 UNK        -0.2404 
      8 C8          4.9835  -17.2969  -51.4906 C.3       23 UNK        -0.0205 
      9 C9          3.7782  -18.1852  -51.1943 C.ar      23 UNK        -0.0193 
     10 C10         2.4958  -17.7209  -51.5002 C.ar      23 UNK        -0.1150 
     11 C11         1.3714  -18.5188  -51.2731 C.ar      23 UNK        -0.0193 
     12 C12         1.5351  -19.7968  -50.7299 C.ar      23 UNK        -0.1150 
     13 C13         2.8124  -20.2791  -50.4260 C.ar      23 UNK        -0.0193 
     14 C14         3.9284  -19.4728  -50.6680 C.ar      23 UNK        -0.1150 
     15 C15         2.9959  -21.6856  -49.8755 C.3       23 UNK        -0.0205 
     16 S16         3.4820  -21.7032  -48.1172 S.3       23 UNK        -0.2404 
     17 C17         1.9984  -21.0582  -47.2713 C.3       23 UNK        -0.0398 
     18 CA          1.0302  -22.1775  -46.8082 C.3       11 UNK         0.1400 
     19 N           0.2300  -21.7875  -45.6422 N.am      11 UNK        -0.5000 
     20 C          -0.5925  -22.6059  -44.9672 C.2       10 UNK         0.5000 
     21 O          -0.7132  -23.8056  -45.2119 O.2       10 UNK        -0.5000 
     22 CA         -1.4706  -21.9731  -43.8707 C.3       10 UNK         0.1400 
     23 CB         -0.6844  -21.8069  -42.5626 C.3       10 UNK        -0.1800 
     24 N          -2.0344  -20.6866  -44.2796 N.am      10 UNK        -0.5000 
     25 C          -2.8963  -20.5251  -45.2938 C.2       9 UNK         0.5000 
     26 O          -3.3705  -21.4572  -45.9419 O.2       9 UNK        -0.5000 
     27 CA         -3.2395  -19.0777  -45.6904 C.3       9 UNK         0.1400 
     28 CB         -4.3898  -18.5263  -44.8348 C.3       9 UNK        -0.1800 
     29 N          -2.0823  -18.1855  -45.6030 N.am      9 UNK        -0.5000 
     30 C          -0.9842  -18.3011  -46.3631 C.2       8 UNK         0.5000 
     31 O          -0.8366  -19.1724  -47.2192 O.2       8 UNK        -0.5000 
     32 CA          0.1663  -17.3225  -46.0640 C.3       8 UNK         0.1400 
     33 CB         -0.1404  -15.9267  -46.6258 C.3       8 UNK        -0.1800 
     34 N           0.4591  -17.2321  -44.6300 N.am      8 UNK        -0.5000 
     35 C           0.9284  -18.2570  -43.9011 C.2       7 UNK         0.5000 
     36 O           1.2438  -19.3423  -44.3861 O.2       7 UNK        -0.5000 
     37 CA          1.0085  -18.0752  -42.3721 C.3       7 UNK         0.1400 
     38 CB          2.3772  -17.5269  -41.9466 C.3       7 UNK        -0.1800 
     39 N          -0.0381  -17.2174  -41.8201 N.am      7 UNK        -0.5000 
     40 C          -1.3586  -17.4239  -41.9196 C.2       6 UNK         0.5000 
     41 O          -1.8472  -18.4063  -42.4762 O.2       6 UNK        -0.5000 
     42 CA         -2.2905  -16.3537  -41.3107 C.3       6 UNK         0.1400 
     43 CB         -3.0427  -16.9230  -40.0982 C.3       6 UNK        -0.1800 
     44 N          -1.5897  -15.1303  -40.9034 N.am      6 UNK        -0.5000 
     45 C          -1.0546  -14.2365  -41.7458 C.2       5 UNK         0.5000 
     46 O          -1.1646  -14.3099  -42.9718 O.2       5 UNK        -0.5000 
     47 CA         -0.2195  -13.1229  -41.0925 C.3       5 UNK         0.1400 
     48 CB          1.0457  -13.7029  -40.4337 C.3       5 UNK        -0.1800 
     49 N           0.2005  -12.1458  -42.0907 N.am      5 UNK        -0.5000 
     50 C           0.0621  -10.8182  -41.9879 C.2       4 UNK         0.5000 
     51 O          -0.4644  -10.2628  -41.0222 O.2       4 UNK        -0.5000 
     52 CA          0.6194   -9.9471  -43.1347 C.3       4 UNK         0.1400 
     53 CB          1.8710   -9.1847  -42.6706 C.3       4 UNK        -0.1800 
     54 N           0.9591  -10.7040  -44.3400 N.am      4 UNK        -0.5000 
     55 C           0.0710  -11.2306  -45.1921 C.2       3 UNK         0.5000 
     56 O          -1.1458  -11.0704  -45.0919 O.2       3 UNK        -0.5000 
     57 CA          0.6303  -12.0770  -46.3536 C.3       3 UNK         0.1400 
     58 CB          0.6482  -11.2385  -47.6415 C.3       3 UNK        -0.1800 
     59 N           1.9709  -12.6437  -46.1433 N.am      3 UNK        -0.5000 
     60 C           2.3479  -13.4575  -45.1445 C.2       2 UNK         0.5000 
     61 O           1.6210  -13.7679  -44.2014 O.2       2 UNK        -0.5000 
     62 CA          3.7575  -14.0566  -45.2657 C.3       2 UNK         0.1400 
     63 CB          4.0799  -15.0971  -44.1787 C.3       2 UNK        -0.1800 
     64 N           3.8875  -14.6721  -46.5817 N.am      2 UNK        -0.5000 
     65 C           5.0074  -14.7312  -47.3103 C.2       1 UNK         0.5000 
     66 O           6.0929  -14.2927  -46.9274 O.2       1 UNK        -0.5000 
     67 C           0.1347  -22.6519  -47.9682 C.2       11 UNK         0.5000 
     68 O           0.3709  -23.7280  -48.5150 O.2       11 UNK        -0.5000 
     69 N          -0.8974  -21.8619  -48.2936 N.am      12 UNK        -0.5000 
     70 CA         -1.8935  -22.1702  -49.3193 C.3       12 UNK         0.1400 
     71 CB         -2.8512  -20.9818  -49.4637 C.3       12 UNK        -0.1800 
     72 C          -2.6691  -23.4711  -49.0390 C.2       12 UNK         0.5000 
     73 O          -2.8640  -24.2694  -49.9552 O.2       12 UNK        -0.5000 
     74 N          -3.0574  -23.6834  -47.7741 N.am      13 UNK        -0.5000 
     75 CA         -3.7070  -24.9054  -47.3011 C.3       13 UNK         0.1400 
     76 CB         -4.2159  -24.6970  -45.8669 C.3       13 UNK        -0.1800 
     77 C          -2.7906  -26.1408  -47.3839 C.2       13 UNK         0.5000 
     78 O          -3.2510  -27.2038  -47.8009 O.2       13 UNK        -0.5000 
     79 N          -1.5140  -25.9777  -47.0073 N.am      14 UNK        -0.5000 
     80 CA         -0.4877  -27.0199  -47.0742 C.3       14 UNK         0.1400 
     81 CB          0.7561  -26.5703  -46.2921 C.3       14 UNK        -0.1800 
     82 C          -0.1164  -27.4008  -48.5191 C.2       14 UNK         0.5000 
     83 O           0.0378  -28.5871  -48.8129 O.2       14 UNK        -0.5000 
     84 N           0.0045  -26.3940  -49.3951 N.am      15 UNK        -0.5000 
     85 CA          0.2607  -26.5568  -50.8275 C.3       15 UNK         0.1400 
     86 CB          0.6311  -25.1925  -51.4307 C.3       15 UNK        -0.1800 
     87 C          -0.9309  -27.1734  -51.5853 C.2       15 UNK         0.5000 
     88 O          -0.7144  -27.8930  -52.5618 O.2       15 UNK        -0.5000 
     89 N          -2.1495  -26.8816  -51.1066 N.am      16 UNK        -0.5000 
     90 CA         -3.4605  -27.2360  -51.6553 C.3       16 UNK         0.1400 
     91 CB         -3.6140  -28.7635  -51.8131 C.3       16 UNK        -0.1800 
     92 C          -3.7857  -26.4738  -52.9562 C.2       16 UNK         0.5000 
     93 O          -2.9510  -25.7320  -53.4795 O.2       16 UNK        -0.5000 
     94 N          -5.0327  -26.6267  -53.4257 N.am      17 UNK        -0.5000 
     95 CA         -5.6562  -26.0198  -54.6151 C.3       17 UNK         0.1400 
     96 CB         -4.9112  -26.4187  -55.9033 C.3       17 UNK        -0.1800 
     97 C          -5.8644  -24.4907  -54.5474 C.2       17 UNK         0.5000 
     98 O          -6.8281  -23.9896  -55.1293 O.2       17 UNK        -0.5000 
     99 N          -4.9949  -23.7745  -53.8257 N.am      18 UNK        -0.5000 
    100 CA        -5.0224  -22.3336  -53.5770 C.3       18 UNK         0.1400 
    101 CB        -3.6193  -21.8946  -53.1201 C.3       18 UNK        -0.1800 
    102 C         -6.1293  -21.9271  -52.5793 C.2       18 UNK         0.5000 
    103 O         -5.8466  -21.3388  -51.5342 O.2       18 UNK        -0.5000 
    104 N         -7.3861  -22.2290  -52.9309 N.am      19 UNK        -0.5000 
    105 CA        -8.5982  -21.9634  -52.1459 C.3       19 UNK         0.1400 
    106 CB        -9.7997  -22.5918  -52.8682 C.3       19 UNK        -0.1800 
    107 C         -8.8606  -20.4701  -51.8558 C.2       19 UNK         0.5000 
    108 O         -9.5996  -20.1526  -50.9236 O.2       19 UNK        -0.5000 
    109 N         -8.2289  -19.5837  -52.6370 N.am      20 UNK        -0.5000 
    110 CA        -8.2039  -18.1350  -52.4383 C.3       20 UNK         0.1400 
    111 CB        -7.6878  -17.4767  -53.7282 C.3       20 UNK        -0.1800 
    112 C         -7.3536  -17.6829  -51.2307 C.2       20 UNK         0.5000 
    113 O         -7.4086  -16.5029  -50.8821 O.2       20 UNK        -0.5000 
    114 N         -6.5615  -18.5931  -50.6369 N.am      21 UNK        -0.5000 
    115 CA        -5.6843  -18.3774  -49.4775 C.3       21 UNK         0.1400 
    116 CB        -6.5192  -18.1361  -48.2032 C.3       21 UNK        -0.1800 
    117 C         -4.6277  -17.2804  -49.7300 C.2       21 UNK         0.5000 
    118 O         -4.3941  -16.4264  -48.8736 O.2       21 UNK        -0.5000 
    119 N         -4.0507  -17.3163  -50.9380 N.am      22 UNK        -0.5000 
    120 CA        -3.1323  -16.3199  -51.5182 C.3       22 UNK         0.1400 
    121 C         -3.8101  -14.9842  -51.9556 C.2       22 UNK         0.5000 
    122 N         -5.1244  -14.8213  -51.8544 N.am      22 UNK        -0.7600 
    123 O         -3.1312  -14.0800  -52.4344 O.2       22 UNK        -0.5000 
    124 C124       -1.8468  -16.0557  -50.6815 C.3       23 UNK        -0.0398 
    125 S125       -0.9610  -17.5602  -50.1525 S.3       23 UNK        -0.2404 
    126 C126       -0.0138  -18.0051  -51.6374 C.3       23 UNK        -0.0205 
    127 H127        1.1700  -15.4957  -50.1420 H         1 UNK         0.0600 
    128 H128        1.3627  -14.0497  -51.1368 H         1 UNK         0.0600 
    129 H129        0.7204  -13.9247  -49.4940 H         1 UNK         0.0600 
    130 H130        3.1020  -16.2500  -49.3927 H         1 UNK         0.3000 
    131 H131        5.5315  -14.7800  -49.3672 H         1 UNK         0.0600 
    132 H132        4.6682  -17.5546  -48.4447 H         1 UNK         0.0800 
    133 H133        6.2005  -16.9581  -47.8973 H         1 UNK         0.0800 
    134 H134        4.6738  -16.2614  -51.6375 H         1 UNK         0.0800 
    135 H135        5.4153  -17.6181  -52.4392 H         1 UNK         0.0800 
    136 H136        2.3728  -16.7379  -51.9328 H         1 UNK         0.1150 
    137 H137        0.6663  -20.4153  -50.5521 H         1 UNK         0.1150 
    138 H138        4.9156  -19.8534  -50.4468 H         1 UNK         0.1150 
    139 H139        2.0936  -22.2789  -50.0215 H         1 UNK         0.0800 
    140 H140        3.7740  -22.1882  -50.4515 H         1 UNK         0.0800 
    141 H141        1.5001  -20.3074  -47.8860 H         1 UNK         0.0800 
    142 H142        2.3716  -20.5167  -46.4025 H         1 UNK         0.0800 
    143 H143        1.6280  -23.0334  -46.4872 H         1 UNK         0.0600 
    144 H144        0.3079  -20.8202  -45.3451 H         1 UNK         0.3000 
    145 H145       -2.3046  -22.6512  -43.6785 H         1 UNK         0.0600 
    146 H146       -1.2978  -21.3489  -41.7862 H         1 UNK         0.0600 
    147 H147        0.2013  -21.1884  -42.7003 H         1 UNK         0.0600 
    148 H148       -0.3499  -22.7746  -42.1869 H         1 UNK         0.0600 
    149 H149       -1.7479  -19.8651  -43.7550 H         1 UNK         0.3000 
    150 H150       -3.5685  -19.0880  -46.7314 H         1 UNK         0.0600 
    151 H151       -5.2811  -19.1464  -44.9391 H         1 UNK         0.0600 
    152 H152       -4.6597  -17.5154  -45.1408 H         1 UNK         0.0600 
    153 H153       -4.1347  -18.4992  -43.7756 H         1 UNK         0.0600 
    154 H154       -2.1014  -17.4855  -44.8767 H         1 UNK         0.3000 
    155 H155        1.0561  -17.7012  -46.5719 H         1 UNK         0.0600 
    156 H156       -0.4770  -15.9813  -47.6612 H         1 UNK         0.0600 
    157 H157        0.7489  -15.3015  -46.6151 H         1 UNK         0.0600 
    158 H158       -0.9183  -15.4199  -46.0533 H         1 UNK         0.0600 
    159 H159        0.2237  -16.3658  -44.1636 H         1 UNK         0.3000 
    160 H160        0.8902  -19.0632  -41.9245 H         1 UNK         0.0600 
    161 H161        2.4839  -16.4748  -42.2076 H         1 UNK         0.0600 
    162 H162        3.1913  -18.0748  -42.4233 H         1 UNK         0.0600 
    163 H163        2.5152  -17.6146  -40.8688 H         1 UNK         0.0600 
    164 H164        0.2702  -16.3856  -41.3414 H         1 UNK         0.3000 
    165 H165       -3.0239  -16.0919  -42.0762 H         1 UNK         0.0600 
    166 H166       -3.7543  -16.1996  -39.6997 H         1 UNK         0.0600 
    167 H167       -3.6084  -17.8148  -40.3717 H         1 UNK         0.0600 
    168 H168       -2.3594  -17.2015  -39.2950 H         1 UNK         0.0600 
    169 H169       -1.4637  -15.0012  -39.9094 H         1 UNK         0.3000 
    170 H170       -0.8406  -12.6533  -40.3271 H         1 UNK         0.0600 
    171 H171        1.6792  -14.2110  -41.1623 H         1 UNK         0.0600 
    172 H172        1.6409  -12.9154  -39.9708 H         1 UNK         0.0600 
    173 H173        0.8001  -14.4198  -39.6497 H         1 UNK         0.0600 
    174 H174        0.5845  -12.5467  -42.9418 H         1 UNK         0.3000 
    175 H175       -0.1500   -9.2159  -43.3916 H         1 UNK         0.0600 
    176 H176        2.6795   -9.8658  -42.4020 H         1 UNK         0.0600 
    177 H177        2.2382   -8.5164  -43.4497 H         1 UNK         0.0600 
    178 H178        1.6544   -8.5712  -41.7951 H         1 UNK         0.0600 
    179 H179        1.9384  -10.8864  -44.5004 H         1 UNK         0.3000 
    180 H180       -0.0571  -12.9122  -46.4978 H         1 UNK         0.0600 
    181 H181        0.9647  -11.8278  -48.5003 H         1 UNK         0.0600 
    182 H182        1.3253  -10.3879  -47.5551 H         1 UNK         0.0600 
    183 H183       -0.3441  -10.8462  -47.8684 H         1 UNK         0.0600 
    184 H184        2.6437  -12.4531  -46.8735 H         1 UNK         0.3000 
    185 H185        4.4591  -13.2252  -45.1713 H         1 UNK         0.0600 
    186 H186        3.4397  -15.9742  -44.2737 H         1 UNK         0.0600 
    187 H187        5.1147  -15.4320  -44.2492 H         1 UNK         0.0600 
    188 H188        3.9407  -14.6824  -43.1796 H         1 UNK         0.0600 
    189 H189        3.0360  -15.0335  -46.9860 H         1 UNK         0.3000 
    190 H190       -0.9977  -20.9701  -47.8136 H         1 UNK         0.3000 
    191 H191       -1.3647  -22.2989  -50.2658 H         1 UNK         0.0600 
    192 H192       -2.3203  -20.0842  -49.7752 H         1 UNK         0.0600 
    193 H193       -3.3611  -20.7616  -48.5270 H         1 UNK         0.0600 
    194 H194       -3.6159  -21.1827  -50.2115 H         1 UNK         0.0600 
    195 H195       -2.9139  -22.9477  -47.0878 H         1 UNK         0.3000 
    196 H196       -4.5715  -25.0912  -47.9419 H         1 UNK         0.0600 
    197 H197       -4.9278  -23.8729  -45.8178 H         1 UNK         0.0600 
    198 H198       -3.4006  -24.4749  -45.1780 H         1 UNK         0.0600 
    199 H199       -4.7241  -25.5890  -45.4988 H         1 UNK         0.0600 
    200 H200       -1.2249  -25.0813  -46.6267 H         1 UNK         0.3000 
    201 H201       -0.8855  -27.9132  -46.5883 H         1 UNK         0.0600 
    202 H202        0.5160  -26.3827  -45.2455 H         1 UNK         0.0600 
    203 H203        1.1841  -25.6564  -46.7051 H         1 UNK         0.0600 
    204 H204        1.5315  -27.3369  -46.3159 H         1 UNK         0.0600 
    205 H205       -0.0653  -25.4376  -49.0528 H         1 UNK         0.3000 
    206 H206        1.1147  -27.2268  -50.9461 H         1 UNK         0.0600 
    207 H207       -0.1801  -24.4718  -51.3183 H         1 UNK         0.0600 
    208 H208        1.5175  -24.7764  -50.9514 H         1 UNK         0.0600 
    209 H209        0.8468  -25.2811  -52.4961 H         1 UNK         0.0600 
    210 H210       -2.1893  -26.2003  -50.3570 H         1 UNK         0.3000 
    211 H211       -4.1824  -26.9024  -50.9083 H         1 UNK         0.0600 
    212 H212       -3.0169  -29.1515  -52.6386 H         1 UNK         0.0600 
    213 H213       -4.6508  -29.0377  -52.0089 H         1 UNK         0.0600 
    214 H214       -3.3108  -29.2849  -50.9048 H         1 UNK         0.0600 
    215 H215       -5.6531  -27.2236  -52.8963 H         1 UNK         0.3000 
    216 H216       -6.6545  -26.4566  -54.6718 H         1 UNK         0.0600 
    217 H217       -5.4485  -26.0700  -56.7860 H         1 UNK         0.0600 
    218 H218       -4.8188  -27.5016  -55.9863 H         1 UNK         0.0600 
    219 H219       -3.9089  -25.9917  -55.9453 H         1 UNK         0.0600 
    220 H220       -4.2089  -24.2826  -53.4323 H         1 UNK         0.3000 
    221 H221       -5.2392  -21.8246  -54.5182 H         1 UNK         0.0600 
    222 H222       -3.3072  -22.4290  -52.2224 H         1 UNK         0.0600 
    223 H223       -2.8767  -22.0891  -53.8942 H         1 UNK         0.0600 
    224 H224       -3.5864  -20.8264  -52.9020 H         1 UNK         0.0600 
    225 H225       -7.5104  -22.7377  -53.8015 H         1 UNK         0.3000 
    226 H226       -8.4791  -22.4608  -51.1814 H         1 UNK         0.0600 
    227 H227       -9.6645  -23.6659  -52.9978 H         1 UNK         0.0600 
    228 H228      -10.7193  -22.4476  -52.2995 H         1 UNK         0.0600 
    229 H229       -9.9498  -22.1509  -53.8544 H         1 UNK         0.0600 
    230 H230       -7.6566  -19.9449  -53.3853 H         1 UNK         0.3000 
    231 H231       -9.2262  -17.7941  -52.2623 H         1 UNK         0.0600 
    232 H232       -7.6934  -16.3891  -53.6440 H         1 UNK         0.0600 
    233 H233       -8.3139  -17.7363  -54.5820 H         1 UNK         0.0600 
    234 H234       -6.6654  -17.7820  -53.9548 H         1 UNK         0.0600 
    235 H235       -6.5428  -19.5352  -51.0162 H         1 UNK         0.3000 
    236 H236       -5.1345  -19.3068  -49.3346 H         1 UNK         0.0600 
    237 H237       -7.0813  -17.2034  -48.2564 H         1 UNK         0.0600 
    238 H238       -7.2289  -18.9469  -48.0387 H         1 UNK         0.0600 
    239 H239       -5.8803  -18.0810  -47.3224 H         1 UNK         0.0600 
    240 H240       -4.3319  -18.0549  -51.5655 H         1 UNK         0.3000 
    241 H241       -2.8038  -16.7705  -52.4551 H         1 UNK         0.0600 
    242 H242       -5.5310  -13.9508  -52.1579 H         1 UNK         0.3800 
    243 H243       -5.7216  -15.5273  -51.4400 H         1 UNK         0.3800 
    244 H244       -1.1522  -15.4264  -51.2393 H         1 UNK         0.0800 
    245 H245       -2.0943  -15.4895  -49.7826 H         1 UNK         0.0800 
    246 H246       -0.5583  -18.7728  -52.1890 H         1 UNK         0.0800 
    247 H247        0.0664  -17.1471  -52.3061 H         1 UNK         0.0800 
@<TRIPOS>BOND
     1    1    2 1    
     2    1  127 1    
     3    1  128 1    
     4    1  129 1    
     5    2    3 2    
     6    2    4 am   BACKBONE|DICT|INTERRES
     7    4    5 1    
     8    4  130 1    
     9    5    6 1    
    10    5   65 1    
    11    5  131 1    
    12    6    7 1    
    13    6  132 1    
    14    6  133 1    
    15    7    8 1    
    16    8    9 1    
    17    8  134 1    
    18    8  135 1    
    19    9   10 ar   
    20    9   14 ar   
    21   10   11 ar   
    22   10  136 1    
    23   11   12 ar   
    24   11  126 1    
    25   12   13 ar   
    26   12  137 1    
    27   13   14 ar   
    28   13   15 1    
    29   14  138 1    
    30   15   16 1    
    31   15  139 1    
    32   15  140 1    
    33   16   17 1    
    34   17   18 1    
    35   17  141 1    
    36   17  142 1    
    37   18   19 1    
    38   18   67 1    
    39   18  143 1    
    40   19   20 am   BACKBONE|DICT|INTERRES
    41   19  144 1    
    42   20   21 2    
    43   20   22 1    
    44   22   23 1    
    45   22   24 1    
    46   22  145 1    
    47   23  146 1    
    48   23  147 1    
    49   23  148 1    
    50   24   25 am   BACKBONE|DICT|INTERRES
    51   24  149 1    
    52   25   26 2    
    53   25   27 1    
    54   27   28 1    
    55   27   29 1    
    56   27  150 1    
    57   28  151 1    
    58   28  152 1    
    59   28  153 1    
    60   29   30 am   BACKBONE|DICT|INTERRES
    61   29  154 1    
    62   30   31 2    
    63   30   32 1    
    64   32   33 1    
    65   32   34 1    
    66   32  155 1    
    67   33  156 1    
    68   33  157 1    
    69   33  158 1    
    70   34   35 am   BACKBONE|DICT|INTERRES
    71   34  159 1    
    72   35   36 2    
    73   35   37 1    
    74   37   38 1    
    75   37   39 1    
    76   37  160 1    
    77   38  161 1    
    78   38  162 1    
    79   38  163 1    
    80   39   40 am   BACKBONE|DICT|INTERRES
    81   39  164 1    
    82   40   41 2    
    83   40   42 1    
    84   42   43 1    
    85   42   44 1    
    86   42  165 1    
    87   43  166 1    
    88   43  167 1    
    89   43  168 1    
    90   44   45 am   BACKBONE|DICT|INTERRES
    91   44  169 1    
    92   45   46 2    
    93   45   47 1    
    94   47   48 1    
    95   47   49 1    
    96   47  170 1    
    97   48  171 1    
    98   48  172 1    
    99   48  173 1    
   100   49   50 am   BACKBONE|DICT|INTERRES
   101   49  174 1    
   102   50   51 2    
   103   50   52 1    
   104   52   53 1    
   105   52   54 1    
   106   52  175 1    
   107   53  176 1    
   108   53  177 1    
   109   53  178 1    
   110   54   55 am   BACKBONE|DICT|INTERRES
   111   54  179 1    
   112   55   56 2    
   113   55   57 1    
   114   57   58 1    
   115   57   59 1    
   116   57  180 1    
   117   58  181 1    
   118   58  182 1    
   119   58  183 1    
   120   59   60 am   BACKBONE|DICT|INTERRES
   121   59  184 1    
   122   60   61 2    
   123   60   62 1    
   124   62   63 1    
   125   62   64 1    
   126   62  185 1    
   127   63  186 1    
   128   63  187 1    
   129   63  188 1    
   130   64   65 am   BACKBONE|DICT|INTERRES
   131   64  189 1    
   132   65   66 2    
   133   67   68 2    
   134   67   69 am   BACKBONE|DICT|INTERRES
   135   69   70 1    
   136   69  190 1    
   137   70   71 1    
   138   70   72 1    
   139   70  191 1    
   140   71  192 1    
   141   71  193 1    
   142   71  194 1    
   143   72   73 2    
   144   72   74 am   BACKBONE|DICT|INTERRES
   145   74   75 1    
   146   74  195 1    
   147   75   76 1    
   148   75   77 1    
   149   75  196 1    
   150   76  197 1    
   151   76  198 1    
   152   76  199 1    
   153   77   78 2    
   154   77   79 am   BACKBONE|DICT|INTERRES
   155   79   80 1    
   156   79  200 1    
   157   80   81 1    
   158   80   82 1    
   159   80  201 1    
   160   81  202 1    
   161   81  203 1    
   162   81  204 1    
   163   82   83 2    
   164   82   84 am   BACKBONE|DICT|INTERRES
   165   84   85 1    
   166   84  205 1    
   167   85   86 1    
   168   85   87 1    
   169   85  206 1    
   170   86  207 1    
   171   86  208 1    
   172   86  209 1    
   173   87   88 2    
   174   87   89 am   BACKBONE|DICT|INTERRES
   175   89   90 1    
   176   89  210 1    
   177   90   91 1    
   178   90   92 1    
   179   90  211 1    
   180   91  212 1    
   181   91  213 1    
   182   91  214 1    
   183   92   93 2    
   184   92   94 am   BACKBONE|DICT|INTERRES
   185   94   95 1    
   186   94  215 1    
   187   95   96 1    
   188   95   97 1    
   189   95  216 1    
   190   96  217 1    
   191   96  218 1    
   192   96  219 1    
   193   97   98 2    
   194   97   99 am   BACKBONE|DICT|INTERRES
   195   99  100 1    
   196   99  220 1    
   197  100  101 1    
   198  100  102 1    
   199  100  221 1    
   200  101  222 1    
   201  101  223 1    
   202  101  224 1    
   203  102  103 2    
   204  102  104 am   BACKBONE|DICT|INTERRES
   205  104  105 1    
   206  104  225 1    
   207  105  106 1    
   208  105  107 1    
   209  105  226 1    
   210  106  227 1    
   211  106  228 1    
   212  106  229 1    
   213  107  108 2    
   214  107  109 am   BACKBONE|DICT|INTERRES
   215  109  110 1    
   216  109  230 1    
   217  110  111 1    
   218  110  112 1    
   219  110  231 1    
   220  111  232 1    
   221  111  233 1    
   222  111  234 1    
   223  112  113 2    
   224  112  114 am   BACKBONE|DICT|INTERRES
   225  114  115 1    
   226  114  235 1    
   227  115  116 1    
   228  115  117 1    
   229  115  236 1    
   230  116  237 1    
   231  116  238 1    
   232  116  239 1    
   233  117  118 2    
   234  117  119 am   BACKBONE|DICT|INTERRES
   235  119  120 1    
   236  119  240 1    
   237  120  121 1    
   238  120  124 1    
   239  120  241 1    
   240  121  122 am   BACKBONE|DICT|INTERRES
   241  121  123 2    
   242  122  242 1    
   243  122  243 1    
   244  124  125 1    
   245  124  244 1    
   246  124  245 1    
   247  125  126 1    
   248  126  246 1    
   249  126  247 1    
@<TRIPOS>SUBSTRUCTURE
     1 UNK         1 GROUP             0       ****    0 ROOT    
