@<TRIPOS>MOLECULE
3R540
247   249    1
SMALL
USER_CHARGES


@<TRIPOS>ATOM
      1 CA         -1.9143  -13.6623  -54.5010 C.3       0 UNK        -0.1800 
      2 C          -0.8798  -13.2919  -53.4476 C.2       0 UNK         0.5000 
      3 O          -0.4559  -12.1377  -53.3820 O.2       0 UNK        -0.5000 
      4 N          -0.4699  -14.2660  -52.6272 N.am      1 UNK        -0.5000 
      5 CA          0.4632  -14.0907  -51.5126 C.3       1 UNK         0.1400 
      6 C6          1.1351  -15.4314  -51.1360 C.3       23 UNK        -0.0398 
      7 S7          2.5996  -15.2018  -50.0704 S.3       23 UNK        -0.2404 
      8 C8          2.0716  -15.9875  -48.5162 C.3       23 UNK        -0.0205 
      9 C9          2.1026  -17.5053  -48.6101 C.ar      23 UNK        -0.0193 
     10 C10         0.9437  -18.2163  -48.9267 C.ar      23 UNK        -0.1150 
     11 C11         0.9850  -19.6031  -49.0887 C.ar      23 UNK        -0.0193 
     12 C12         2.1839  -20.2895  -48.8709 C.ar      23 UNK        -0.1150 
     13 C13         3.3446  -19.5915  -48.5238 C.ar      23 UNK        -0.0193 
     14 C14         3.2973  -18.1996  -48.3986 C.ar      23 UNK        -0.1150 
     15 C15         4.6652  -20.3247  -48.3390 C.3       23 UNK        -0.0205 
     16 S16         4.9863  -20.7356  -46.5956 S.3       23 UNK        -0.2404 
     17 C17         4.0535  -22.2924  -46.4155 C.3       23 UNK        -0.0398 
     18 CA          4.3816  -23.0127  -45.0827 C.3       11 UNK         0.1400 
     19 N           3.8656  -22.2644  -43.9303 N.am      11 UNK        -0.5000 
     20 C           4.2656  -22.4069  -42.6606 C.2       10 UNK         0.5000 
     21 O           5.1787  -23.1552  -42.3107 O.2       10 UNK        -0.5000 
     22 CA          3.4797  -21.6127  -41.5983 C.3       10 UNK         0.1400 
     23 CB          4.0184  -20.1797  -41.4692 C.3       10 UNK        -0.1800 
     24 N           2.0402  -21.5760  -41.8737 N.am      10 UNK        -0.5000 
     25 C           1.2286  -22.6414  -41.8014 C.2       9 UNK         0.5000 
     26 O           1.6043  -23.7622  -41.4578 O.2       9 UNK        -0.5000 
     27 CA         -0.2400  -22.4382  -42.2199 C.3       9 UNK         0.1400 
     28 CB         -1.0611  -21.8670  -41.0545 C.3       9 UNK        -0.1800 
     29 N          -0.3934  -21.5774  -43.3923 N.am      9 UNK        -0.5000 
     30 C           0.0960  -21.8504  -44.6105 C.2       8 UNK         0.5000 
     31 O           0.7186  -22.8738  -44.8860 O.2       8 UNK        -0.5000 
     32 CA         -0.0621  -20.7582  -45.6821 C.3       8 UNK         0.1400 
     33 CB         -1.4861  -20.7616  -46.2569 C.3       8 UNK        -0.1800 
     34 N           0.2799  -19.4275  -45.1744 N.am      8 UNK        -0.5000 
     35 C           1.4718  -19.1066  -44.6481 C.2       7 UNK         0.5000 
     36 O           2.4139  -19.8912  -44.5661 O.2       7 UNK        -0.5000 
     37 CA          1.6259  -17.7028  -44.0483 C.3       7 UNK         0.1400 
     38 CB          2.0038  -16.6811  -45.1205 C.3       7 UNK        -0.1800 
     39 N           0.4171  -17.2703  -43.3541 N.am      7 UNK        -0.5000 
     40 C           0.0528  -17.7233  -42.1476 C.2       6 UNK         0.5000 
     41 O           0.7274  -18.5045  -41.4752 O.2       6 UNK        -0.5000 
     42 CA         -1.3177  -17.2544  -41.6288 C.3       6 UNK         0.1400 
     43 CB         -1.2215  -15.8428  -41.0308 C.3       6 UNK        -0.1800 
     44 N          -2.3422  -17.2716  -42.6739 N.am      6 UNK        -0.5000 
     45 C          -2.7920  -18.3850  -43.2691 C.2       5 UNK         0.5000 
     46 O          -2.4092  -19.5175  -42.9781 O.2       5 UNK        -0.5000 
     47 CA         -3.8212  -18.2085  -44.3996 C.3       5 UNK         0.1400 
     48 CB         -5.2494  -18.2580  -43.8372 C.3       5 UNK        -0.1800 
     49 N          -3.6585  -16.9836  -45.1839 N.am      5 UNK        -0.5000 
     50 C          -2.5698  -16.6244  -45.8793 C.2       4 UNK         0.5000 
     51 O          -1.5150  -17.2617  -45.8776 O.2       4 UNK        -0.5000 
     52 CA         -2.7017  -15.3664  -46.7616 C.3       4 UNK         0.1400 
     53 CB         -3.9685  -14.5275  -46.4734 C.3       4 UNK        -0.1800 
     54 N          -1.5261  -14.4970  -46.7520 N.am      4 UNK        -0.5000 
     55 C          -0.9642  -13.8924  -45.6941 C.2       3 UNK         0.5000 
     56 O          -1.2453  -14.1550  -44.5234 O.2       3 UNK        -0.5000 
     57 CA          0.0488  -12.7610  -45.9912 C.3       3 UNK         0.1400 
     58 CB          1.4868  -13.1895  -45.6773 C.3       3 UNK        -0.1800 
     59 N          -0.0116  -12.2638  -47.3702 N.am      3 UNK        -0.5000 
     60 C          -1.0218  -11.5374  -47.8688 C.2       2 UNK         0.5000 
     61 O          -1.9584  -11.1231  -47.1846 O.2       2 UNK        -0.5000 
     62 CA         -1.0103  -11.2275  -49.3806 C.3       2 UNK         0.1400 
     63 CB         -0.5726   -9.7742  -49.6212 C.3       2 UNK        -0.1800 
     64 N          -0.2002  -12.1056  -50.2353 N.am      2 UNK        -0.5000 
     65 C          -0.2840  -13.4397  -50.3298 C.2       1 UNK         0.5000 
     66 O          -0.9433  -14.1428  -49.5632 O.2       1 UNK        -0.5000 
     67 C           3.8830  -24.4772  -45.1213 C.2       11 UNK         0.5000 
     68 O           4.4131  -25.2648  -45.9063 O.2       11 UNK        -0.5000 
     69 N           2.8786  -24.8124  -44.2967 N.am      12 UNK        -0.5000 
     70 CA          2.1549  -26.0864  -44.2279 C.3       12 UNK         0.1400 
     71 CB          3.0832  -27.2304  -43.7695 C.3       12 UNK        -0.1800 
     72 C           1.3841  -26.4058  -45.5281 C.2       12 UNK         0.5000 
     73 O           1.2716  -27.5704  -45.9159 O.2       12 UNK        -0.5000 
     74 N           0.8627  -25.3573  -46.1741 N.am      13 UNK        -0.5000 
     75 CA          0.0350  -25.4184  -47.3711 C.3       13 UNK         0.1400 
     76 CB          0.4230  -24.2511  -48.2941 C.3       13 UNK        -0.1800 
     77 C          -1.4425  -25.3098  -46.9677 C.2       13 UNK         0.5000 
     78 O          -1.7845  -24.4853  -46.1172 O.2       13 UNK        -0.5000 
     79 N          -2.3000  -26.1208  -47.5991 N.am      14 UNK        -0.5000 
     80 CA         -3.7510  -26.0728  -47.4019 C.3       14 UNK         0.1400 
     81 CB         -4.3838  -27.3720  -47.9245 C.3       14 UNK        -0.1800 
     82 C          -4.3854  -24.8478  -48.0849 C.2       14 UNK         0.5000 
     83 O          -5.2864  -24.2317  -47.5142 O.2       14 UNK        -0.5000 
     84 N          -3.8945  -24.5287  -49.2932 N.am      15 UNK        -0.5000 
     85 CA         -4.2700  -23.4347  -50.2001 C.3       15 UNK         0.1400 
     86 CB         -3.9723  -22.0596  -49.5708 C.3       15 UNK        -0.1800 
     87 C          -5.7144  -23.4951  -50.7394 C.2       15 UNK         0.5000 
     88 O          -5.9099  -23.3450  -51.9450 O.2       15 UNK        -0.5000 
     89 N          -6.6946  -23.6961  -49.8488 N.am      16 UNK        -0.5000 
     90 CA         -8.1498  -23.6541  -50.0400 C.3       16 UNK         0.1400 
     91 CB         -8.6331  -24.7058  -51.0582 C.3       16 UNK        -0.1800 
     92 C          -8.6503  -22.2379  -50.3798 C.2       16 UNK         0.5000 
     93 O          -9.3888  -21.6456  -49.5920 O.2       16 UNK        -0.5000 
     94 N          -8.1903  -21.6985  -51.5130 N.am      17 UNK        -0.5000 
     95 CA         -8.3095  -20.2953  -51.8872 C.3       17 UNK         0.1400 
     96 CB         -8.4202  -20.1905  -53.4183 C.3       17 UNK        -0.1800 
     97 C          -7.0790  -19.5615  -51.3304 C.2       17 UNK         0.5000 
     98 O          -6.0850  -19.3967  -52.0417 O.2       17 UNK        -0.5000 
     99 N          -7.1474  -19.2001  -50.0406 N.am      18 UNK        -0.5000 
    100 CA        -6.0840  -18.5343  -49.2836 C.3       18 UNK         0.1400 
    101 CB        -6.5746  -18.2429  -47.8575 C.3       18 UNK        -0.1800 
    102 C         -5.5883  -17.2450  -49.9638 C.2       18 UNK         0.5000 
    103 O         -6.3942  -16.4991  -50.5258 O.2       18 UNK        -0.5000 
    104 N         -4.2652  -17.0425  -49.9285 N.am      19 UNK        -0.5000 
    105 CA        -3.4817  -16.0503  -50.6739 C.3       19 UNK         0.1400 
    106 CB        -3.9475  -14.5998  -50.4232 C.3       19 UNK        -0.1800 
    107 C         -3.4206  -16.3551  -52.1789 C.2       19 UNK         0.5000 
    108 O         -2.3231  -16.5253  -52.7096 O.2       19 UNK        -0.5000 
    109 N         -4.5921  -16.4150  -52.8245 N.am      20 UNK        -0.5000 
    110 CA        -4.7935  -16.5471  -54.2674 C.3       20 UNK         0.1400 
    111 CB        -6.3001  -16.5519  -54.5662 C.3       20 UNK        -0.1800 
    112 C         -4.1106  -17.7746  -54.8926 C.2       20 UNK         0.5000 
    113 O         -3.4176  -17.6304  -55.9009 O.2       20 UNK        -0.5000 
    114 N         -4.2766  -18.9479  -54.2653 N.am      21 UNK        -0.5000 
    115 CA        -3.6845  -20.2160  -54.7071 C.3       21 UNK         0.1400 
    116 CB        -4.2636  -21.3622  -53.8672 C.3       21 UNK        -0.1800 
    117 C         -2.1451  -20.2455  -54.6429 C.2       21 UNK         0.5000 
    118 O         -1.5259  -21.0443  -55.3472 O.2       21 UNK        -0.5000 
    119 N         -1.5665  -19.3770  -53.8084 N.am      22 UNK        -0.5000 
    120 CA        -0.1217  -19.2080  -53.6156 C.3       22 UNK         0.1400 
    121 C          0.4504  -17.9640  -54.3583 C.2       22 UNK         0.5000 
    122 N         -0.3243  -17.2452  -55.1635 N.am      22 UNK        -0.7600 
    123 O          1.6314  -17.6568  -54.2252 O.2       22 UNK        -0.5000 
    124 C124        0.2327  -19.2056  -52.1081 C.3       23 UNK        -0.0398 
    125 S125       -0.1455  -20.8089  -51.3109 S.3       23 UNK        -0.2404 
    126 C126       -0.2569  -20.3461  -49.5540 C.3       23 UNK        -0.0205 
    127 H127       -1.6971  -13.1548  -55.4409 H         1 UNK         0.0600 
    128 H128       -2.9093  -13.3638  -54.1711 H         1 UNK         0.0600 
    129 H129       -1.9232  -14.7348  -54.6948 H         1 UNK         0.0600 
    130 H130       -0.9036  -15.1815  -52.7079 H         1 UNK         0.3000 
    131 H131        1.2530  -13.4106  -51.8398 H         1 UNK         0.0600 
    132 H132        0.4176  -16.1135  -50.6824 H         1 UNK         0.0800 
    133 H133        1.4841  -15.9314  -52.0402 H         1 UNK         0.0800 
    134 H134        2.7500  -15.6615  -47.7279 H         1 UNK         0.0800 
    135 H135        1.0773  -15.6359  -48.2358 H         1 UNK         0.0800 
    136 H136        0.0153  -17.6864  -49.0832 H         1 UNK         0.1150 
    137 H137        2.2177  -21.3620  -49.0010 H         1 UNK         0.1150 
    138 H138        4.1969  -17.6532  -48.1524 H         1 UNK         0.1150 
    139 H139        4.6919  -21.2279  -48.9502 H         1 UNK         0.0800 
    140 H140        5.4801  -19.6961  -48.7011 H         1 UNK         0.0800 
    141 H141        2.9854  -22.0804  -46.4883 H         1 UNK         0.0800 
    142 H142        4.3023  -22.9254  -47.2692 H         1 UNK         0.0800 
    143 H143        5.4682  -23.0670  -44.9871 H         1 UNK         0.0600 
    144 H144        3.1659  -21.5552  -44.1395 H         1 UNK         0.3000 
    145 H145        3.6234  -22.1122  -40.6379 H         1 UNK         0.0600 
    146 H146        3.4821  -19.6239  -40.6998 H         1 UNK         0.0600 
    147 H147        3.9301  -19.6266  -42.4040 H         1 UNK         0.0600 
    148 H148        5.0733  -20.1853  -41.1924 H         1 UNK         0.0600 
    149 H149        1.6549  -20.6893  -42.1708 H         1 UNK         0.3000 
    150 H150       -0.6484  -23.4179  -42.4763 H         1 UNK         0.0600 
    151 H151       -0.9690  -22.4926  -40.1658 H         1 UNK         0.0600 
    152 H152       -2.1202  -21.8158  -41.3077 H         1 UNK         0.0600 
    153 H153       -0.7333  -20.8618  -40.7864 H         1 UNK         0.0600 
    154 H154       -0.9287  -20.7235  -43.2598 H         1 UNK         0.3000 
    155 H155        0.6341  -20.9814  -46.4917 H         1 UNK         0.0600 
    156 H156       -1.6738  -21.6800  -46.8144 H         1 UNK         0.0600 
    157 H157       -1.6491  -19.9240  -46.9346 H         1 UNK         0.0600 
    158 H158       -2.2353  -20.7108  -45.4689 H         1 UNK         0.0600 
    159 H159       -0.4272  -18.7026  -45.2589 H         1 UNK         0.3000 
    160 H160        2.4466  -17.7424  -43.3287 H         1 UNK         0.0600 
    161 H161        1.1799  -16.5004  -45.8111 H         1 UNK         0.0600 
    162 H162        2.8615  -17.0268  -45.6983 H         1 UNK         0.0600 
    163 H163        2.2861  -15.7354  -44.6623 H         1 UNK         0.0600 
    164 H164       -0.2191  -16.6744  -43.8671 H         1 UNK         0.3000 
    165 H165       -1.6276  -17.9411  -40.8381 H         1 UNK         0.0600 
    166 H166       -2.1707  -15.5353  -40.5917 H         1 UNK         0.0600 
    167 H167       -0.4705  -15.8042  -40.2407 H         1 UNK         0.0600 
    168 H168       -0.9451  -15.1034  -41.7837 H         1 UNK         0.0600 
    169 H169       -2.6866  -16.3780  -42.9942 H         1 UNK         0.3000 
    170 H170       -3.7059  -19.0464  -45.0870 H         1 UNK         0.0600 
    171 H171       -5.4129  -19.1734  -43.2666 H         1 UNK         0.0600 
    172 H172       -5.4498  -17.4168  -43.1725 H         1 UNK         0.0600 
    173 H173       -5.9909  -18.2399  -44.6361 H         1 UNK         0.0600 
    174 H174       -4.4674  -16.3818  -45.2333 H         1 UNK         0.3000 
    175 H175       -2.7763  -15.7387  -47.7823 H         1 UNK         0.0600 
    176 H176       -4.0119  -14.2013  -45.4333 H         1 UNK         0.0600 
    177 H177       -3.9924  -13.6304  -47.0924 H         1 UNK         0.0600 
    178 H178       -4.8788  -15.0865  -46.6936 H         1 UNK         0.0600 
    179 H179       -1.1911  -14.2417  -47.6773 H         1 UNK         0.3000 
    180 H180       -0.2009  -11.9330  -45.3244 H         1 UNK         0.0600 
    181 H181        1.5747  -13.5195  -44.6417 H         1 UNK         0.0600 
    182 H182        2.1824  -12.3608  -45.8103 H         1 UNK         0.0600 
    183 H183        1.8115  -14.0045  -46.3214 H         1 UNK         0.0600 
    184 H184        0.7168  -12.5652  -48.0003 H         1 UNK         0.3000 
    185 H185       -2.0423  -11.3287  -49.7225 H         1 UNK         0.0600 
    186 H186       -1.1749   -9.0787  -49.0349 H         1 UNK         0.0600 
    187 H187        0.4709   -9.6196  -49.3439 H         1 UNK         0.0600 
    188 H188       -0.6877   -9.4949  -50.6688 H         1 UNK         0.0600 
    189 H189        0.3498  -11.6288  -50.9364 H         1 UNK         0.3000 
    190 H190        2.4964  -24.0734  -43.7215 H         1 UNK         0.3000 
    191 H191        1.3953  -25.9543  -43.4562 H         1 UNK         0.0600 
    192 H192        2.5133  -28.1382  -43.5690 H         1 UNK         0.0600 
    193 H193        3.6067  -26.9675  -42.8502 H         1 UNK         0.0600 
    194 H194        3.8309  -27.4756  -44.5240 H         1 UNK         0.0600 
    195 H195        0.9107  -24.4436  -45.7239 H         1 UNK         0.3000 
    196 H196        0.2025  -26.3568  -47.9038 H         1 UNK         0.0600 
    197 H197        0.2937  -23.2887  -47.7979 H         1 UNK         0.0600 
    198 H198        1.4649  -24.3259  -48.6057 H         1 UNK         0.0600 
    199 H199       -0.1888  -24.2414  -49.1970 H         1 UNK         0.0600 
    200 H200       -1.9507  -26.7878  -48.2723 H         1 UNK         0.3000 
    201 H201       -3.9575  -26.0038  -46.3314 H         1 UNK         0.0600 
    202 H202       -5.4646  -27.3656  -47.7770 H         1 UNK         0.0600 
    203 H203       -3.9904  -28.2412  -47.3970 H         1 UNK         0.0600 
    204 H204       -4.1992  -27.5141  -48.9901 H         1 UNK         0.0600 
    205 H205       -3.1721  -25.1347  -49.6542 H         1 UNK         0.3000 
    206 H206       -3.6150  -23.5378  -51.0670 H         1 UNK         0.0600 
    207 H207       -2.9276  -21.9841  -49.2696 H         1 UNK         0.0600 
    208 H208       -4.1634  -21.2569  -50.2841 H         1 UNK         0.0600 
    209 H209       -4.5888  -21.8690  -48.6920 H         1 UNK         0.0600 
    210 H210       -6.3905  -23.8106  -48.8834 H         1 UNK         0.3000 
    211 H211       -8.5817  -23.9183  -49.0734 H         1 UNK         0.0600 
    212 H212       -8.2638  -24.5120  -52.0652 H         1 UNK         0.0600 
    213 H213       -9.7223  -24.7193  -51.1108 H         1 UNK         0.0600 
    214 H214       -8.3094  -25.7061  -50.7710 H         1 UNK         0.0600 
    215 H215       -7.5017  -22.2407  -52.0276 H         1 UNK         0.3000 
    216 H216       -9.2095  -19.8557  -51.4521 H         1 UNK         0.0600 
    217 H217       -9.3109  -20.7031  -53.7817 H         1 UNK         0.0600 
    218 H218       -7.5581  -20.6262  -53.9230 H         1 UNK         0.0600 
    219 H219       -8.4944  -19.1489  -53.7320 H         1 UNK         0.0600 
    220 H220       -7.9984  -19.3999  -49.5344 H         1 UNK         0.3000 
    221 H221       -5.2506  -19.2364  -49.2216 H         1 UNK         0.0600 
    222 H222       -5.7917  -17.7699  -47.2635 H         1 UNK         0.0600 
    223 H223       -7.4358  -17.5735  -47.8586 H         1 UNK         0.0600 
    224 H224       -6.8615  -19.1600  -47.3426 H         1 UNK         0.0600 
    225 H225       -3.7068  -17.7386  -49.4563 H         1 UNK         0.3000 
    226 H226       -2.4621  -16.1389  -50.2972 H         1 UNK         0.0600 
    227 H227       -3.9247  -14.3513  -49.3648 H         1 UNK         0.0600 
    228 H228       -3.2930  -13.8923  -50.9330 H         1 UNK         0.0600 
    229 H229       -4.9564  -14.4107  -50.7880 H         1 UNK         0.0600 
    230 H230       -5.4295  -16.3236  -52.2578 H         1 UNK         0.3000 
    231 H231       -4.3601  -15.6609  -54.7347 H         1 UNK         0.0600 
    232 H232       -6.4886  -16.6475  -55.6364 H         1 UNK         0.0600 
    233 H233       -6.7704  -15.6259  -54.2349 H         1 UNK         0.0600 
    234 H234       -6.8043  -17.3798  -54.0669 H         1 UNK         0.0600 
    235 H235       -4.8689  -18.9888  -53.4380 H         1 UNK         0.3000 
    236 H236       -3.9714  -20.3753  -55.7484 H         1 UNK         0.0600 
    237 H237       -4.0408  -21.2336  -52.8076 H         1 UNK         0.0600 
    238 H238       -5.3453  -21.4251  -53.9761 H         1 UNK         0.0600 
    239 H239       -3.8532  -22.3251  -54.1739 H         1 UNK         0.0600 
    240 H240       -2.1520  -18.7166  -53.3149 H         1 UNK         0.3000 
    241 H241        0.4005  -20.0557  -54.0626 H         1 UNK         0.0600 
    242 H242       -1.2974  -17.4850  -55.2998 H         1 UNK         0.3800 
    243 H243        0.0709  -16.4589  -55.6524 H         1 UNK         0.3800 
    244 H244       -0.3099  -18.4084  -51.5982 H         1 UNK         0.0800 
    245 H245        1.2951  -19.0059  -51.9566 H         1 UNK         0.0800 
    246 H246       -1.1523  -19.7425  -49.3996 H         1 UNK         0.0800 
    247 H247       -0.3873  -21.2509  -48.9609 H         1 UNK         0.0800 
@<TRIPOS>BOND
     1    1    2 1    
     2    1  127 1    
     3    1  128 1    
     4    1  129 1    
     5    2    3 2    
     6    2    4 am   BACKBONE|DICT|INTERRES
     7    4    5 1    
     8    4  130 1    
     9    5    6 1    
    10    5   65 1    
    11    5  131 1    
    12    6    7 1    
    13    6  132 1    
    14    6  133 1    
    15    7    8 1    
    16    8    9 1    
    17    8  134 1    
    18    8  135 1    
    19    9   10 ar   
    20    9   14 ar   
    21   10   11 ar   
    22   10  136 1    
    23   11   12 ar   
    24   11  126 1    
    25   12   13 ar   
    26   12  137 1    
    27   13   14 ar   
    28   13   15 1    
    29   14  138 1    
    30   15   16 1    
    31   15  139 1    
    32   15  140 1    
    33   16   17 1    
    34   17   18 1    
    35   17  141 1    
    36   17  142 1    
    37   18   19 1    
    38   18   67 1    
    39   18  143 1    
    40   19   20 am   BACKBONE|DICT|INTERRES
    41   19  144 1    
    42   20   21 2    
    43   20   22 1    
    44   22   23 1    
    45   22   24 1    
    46   22  145 1    
    47   23  146 1    
    48   23  147 1    
    49   23  148 1    
    50   24   25 am   BACKBONE|DICT|INTERRES
    51   24  149 1    
    52   25   26 2    
    53   25   27 1    
    54   27   28 1    
    55   27   29 1    
    56   27  150 1    
    57   28  151 1    
    58   28  152 1    
    59   28  153 1    
    60   29   30 am   BACKBONE|DICT|INTERRES
    61   29  154 1    
    62   30   31 2    
    63   30   32 1    
    64   32   33 1    
    65   32   34 1    
    66   32  155 1    
    67   33  156 1    
    68   33  157 1    
    69   33  158 1    
    70   34   35 am   BACKBONE|DICT|INTERRES
    71   34  159 1    
    72   35   36 2    
    73   35   37 1    
    74   37   38 1    
    75   37   39 1    
    76   37  160 1    
    77   38  161 1    
    78   38  162 1    
    79   38  163 1    
    80   39   40 am   BACKBONE|DICT|INTERRES
    81   39  164 1    
    82   40   41 2    
    83   40   42 1    
    84   42   43 1    
    85   42   44 1    
    86   42  165 1    
    87   43  166 1    
    88   43  167 1    
    89   43  168 1    
    90   44   45 am   BACKBONE|DICT|INTERRES
    91   44  169 1    
    92   45   46 2    
    93   45   47 1    
    94   47   48 1    
    95   47   49 1    
    96   47  170 1    
    97   48  171 1    
    98   48  172 1    
    99   48  173 1    
   100   49   50 am   BACKBONE|DICT|INTERRES
   101   49  174 1    
   102   50   51 2    
   103   50   52 1    
   104   52   53 1    
   105   52   54 1    
   106   52  175 1    
   107   53  176 1    
   108   53  177 1    
   109   53  178 1    
   110   54   55 am   BACKBONE|DICT|INTERRES
   111   54  179 1    
   112   55   56 2    
   113   55   57 1    
   114   57   58 1    
   115   57   59 1    
   116   57  180 1    
   117   58  181 1    
   118   58  182 1    
   119   58  183 1    
   120   59   60 am   BACKBONE|DICT|INTERRES
   121   59  184 1    
   122   60   61 2    
   123   60   62 1    
   124   62   63 1    
   125   62   64 1    
   126   62  185 1    
   127   63  186 1    
   128   63  187 1    
   129   63  188 1    
   130   64   65 am   BACKBONE|DICT|INTERRES
   131   64  189 1    
   132   65   66 2    
   133   67   68 2    
   134   67   69 am   BACKBONE|DICT|INTERRES
   135   69   70 1    
   136   69  190 1    
   137   70   71 1    
   138   70   72 1    
   139   70  191 1    
   140   71  192 1    
   141   71  193 1    
   142   71  194 1    
   143   72   73 2    
   144   72   74 am   BACKBONE|DICT|INTERRES
   145   74   75 1    
   146   74  195 1    
   147   75   76 1    
   148   75   77 1    
   149   75  196 1    
   150   76  197 1    
   151   76  198 1    
   152   76  199 1    
   153   77   78 2    
   154   77   79 am   BACKBONE|DICT|INTERRES
   155   79   80 1    
   156   79  200 1    
   157   80   81 1    
   158   80   82 1    
   159   80  201 1    
   160   81  202 1    
   161   81  203 1    
   162   81  204 1    
   163   82   83 2    
   164   82   84 am   BACKBONE|DICT|INTERRES
   165   84   85 1    
   166   84  205 1    
   167   85   86 1    
   168   85   87 1    
   169   85  206 1    
   170   86  207 1    
   171   86  208 1    
   172   86  209 1    
   173   87   88 2    
   174   87   89 am   BACKBONE|DICT|INTERRES
   175   89   90 1    
   176   89  210 1    
   177   90   91 1    
   178   90   92 1    
   179   90  211 1    
   180   91  212 1    
   181   91  213 1    
   182   91  214 1    
   183   92   93 2    
   184   92   94 am   BACKBONE|DICT|INTERRES
   185   94   95 1    
   186   94  215 1    
   187   95   96 1    
   188   95   97 1    
   189   95  216 1    
   190   96  217 1    
   191   96  218 1    
   192   96  219 1    
   193   97   98 2    
   194   97   99 am   BACKBONE|DICT|INTERRES
   195   99  100 1    
   196   99  220 1    
   197  100  101 1    
   198  100  102 1    
   199  100  221 1    
   200  101  222 1    
   201  101  223 1    
   202  101  224 1    
   203  102  103 2    
   204  102  104 am   BACKBONE|DICT|INTERRES
   205  104  105 1    
   206  104  225 1    
   207  105  106 1    
   208  105  107 1    
   209  105  226 1    
   210  106  227 1    
   211  106  228 1    
   212  106  229 1    
   213  107  108 2    
   214  107  109 am   BACKBONE|DICT|INTERRES
   215  109  110 1    
   216  109  230 1    
   217  110  111 1    
   218  110  112 1    
   219  110  231 1    
   220  111  232 1    
   221  111  233 1    
   222  111  234 1    
   223  112  113 2    
   224  112  114 am   BACKBONE|DICT|INTERRES
   225  114  115 1    
   226  114  235 1    
   227  115  116 1    
   228  115  117 1    
   229  115  236 1    
   230  116  237 1    
   231  116  238 1    
   232  116  239 1    
   233  117  118 2    
   234  117  119 am   BACKBONE|DICT|INTERRES
   235  119  120 1    
   236  119  240 1    
   237  120  121 1    
   238  120  124 1    
   239  120  241 1    
   240  121  122 am   BACKBONE|DICT|INTERRES
   241  121  123 2    
   242  122  242 1    
   243  122  243 1    
   244  124  125 1    
   245  124  244 1    
   246  124  245 1    
   247  125  126 1    
   248  126  246 1    
   249  126  247 1    
@<TRIPOS>SUBSTRUCTURE
     1 UNK         1 GROUP             0       ****    0 ROOT    
