@<TRIPOS>MOLECULE
3R540
247   249    1
SMALL
USER_CHARGES


@<TRIPOS>ATOM
      1 CA         -0.8650  -12.7281  -50.3017 C.3       0 UNK        -0.1800 
      2 C          -1.5361  -14.0384  -50.7015 C.2       0 UNK         0.5000 
      3 O          -1.9014  -14.1981  -51.8638 O.2       0 UNK        -0.5000 
      4 N          -1.7182  -15.0040  -49.7912 N.am      1 UNK        -0.5000 
      5 CA         -1.3785  -14.9679  -48.3647 C.3       1 UNK         0.1400 
      6 C6         -0.2678  -15.9923  -48.0083 C.3       23 UNK        -0.0398 
      7 S7          1.4099  -15.3684  -48.3684 S.3       23 UNK        -0.2404 
      8 C8          1.6813  -15.8307  -50.1076 C.3       23 UNK        -0.0205 
      9 C9          1.7646  -17.3329  -50.3144 C.ar      23 UNK        -0.0193 
     10 C10         0.6506  -18.0436  -50.7688 C.ar      23 UNK        -0.1150 
     11 C11         0.7323  -19.4199  -50.9911 C.ar      23 UNK        -0.0193 
     12 C12         1.9399  -20.0849  -50.7563 C.ar      23 UNK        -0.1150 
     13 C13         3.0634  -19.3827  -50.3104 C.ar      23 UNK        -0.0193 
     14 C14         2.9672  -18.0068  -50.0859 C.ar      23 UNK        -0.1150 
     15 C15         4.3893  -20.0990  -50.0990 C.3       23 UNK        -0.0205 
     16 S16         4.6017  -20.6479  -48.3776 S.3       23 UNK        -0.2404 
     17 C17         3.4275  -22.0412  -48.2973 C.3       23 UNK        -0.0398 
     18 CA          3.8765  -23.1297  -47.2912 C.3       11 UNK         0.1400 
     19 N           3.8309  -22.6385  -45.9086 N.am      11 UNK        -0.5000 
     20 C           4.4845  -23.1748  -44.8700 C.2       10 UNK         0.5000 
     21 O           5.2868  -24.1031  -44.9732 O.2       10 UNK        -0.5000 
     22 CA          4.1386  -22.6195  -43.4737 C.3       10 UNK         0.1400 
     23 CB          5.0374  -21.4251  -43.1206 C.3       10 UNK        -0.1800 
     24 N           2.7271  -22.2392  -43.3428 N.am      10 UNK        -0.5000 
     25 C           1.7023  -23.1035  -43.4020 C.2       9 UNK         0.5000 
     26 O           1.8478  -24.3191  -43.5254 O.2       9 UNK        -0.5000 
     27 CA          0.2766  -22.5228  -43.3706 C.3       9 UNK         0.1400 
     28 CB         -0.1698  -22.2535  -41.9264 C.3       9 UNK        -0.1800 
     29 N           0.1384  -21.3045  -44.1675 N.am      9 UNK        -0.5000 
     30 C           0.2899  -21.2392  -45.4985 C.2       8 UNK         0.5000 
     31 O           0.5212  -22.2205  -46.2060 O.2       8 UNK        -0.5000 
     32 CA          0.2443  -19.8329  -46.1325 C.3       8 UNK         0.1400 
     33 CB         -1.2014  -19.3551  -46.3201 C.3       8 UNK        -0.1800 
     34 N           0.9839  -18.8460  -45.3438 N.am      8 UNK        -0.5000 
     35 C           2.3011  -18.9135  -45.1033 C.2       7 UNK         0.5000 
     36 O           3.0326  -19.7971  -45.5450 O.2       7 UNK        -0.5000 
     37 CA          2.8830  -17.8608  -44.1489 C.3       7 UNK         0.1400 
     38 CB          3.1362  -16.5318  -44.8781 C.3       7 UNK        -0.1800 
     39 N           2.0040  -17.6501  -42.9984 N.am      7 UNK        -0.5000 
     40 C           1.8558  -18.5326  -41.9993 C.2       6 UNK         0.5000 
     41 O           2.4808  -19.5904  -41.9285 O.2       6 UNK        -0.5000 
     42 CA          0.8157  -18.1995  -40.9125 C.3       6 UNK         0.1400 
     43 CB          1.4463  -17.3361  -39.8100 C.3       6 UNK        -0.1800 
     44 N          -0.3695  -17.5212  -41.4376 N.am      6 UNK        -0.5000 
     45 C          -1.2526  -18.0749  -42.2800 C.2       5 UNK         0.5000 
     46 O          -1.1820  -19.2363  -42.6774 O.2       5 UNK        -0.5000 
     47 CA         -2.3767  -17.1629  -42.8066 C.3       5 UNK         0.1400 
     48 CB         -3.5808  -17.2002  -41.8546 C.3       5 UNK        -0.1800 
     49 N          -1.9779  -15.7676  -43.0162 N.am      5 UNK        -0.5000 
     50 C          -0.9472  -15.3562  -43.7674 C.2       4 UNK         0.5000 
     51 O          -0.1522  -16.1218  -44.3147 O.2       4 UNK        -0.5000 
     52 CA         -0.8173  -13.8377  -43.9466 C.3       4 UNK         0.1400 
     53 CB          0.3663  -13.4328  -44.8451 C.3       4 UNK        -0.1800 
     54 N          -2.0605  -13.3252  -44.5167 N.am      4 UNK        -0.5000 
     55 C          -2.6686  -12.1855  -44.1619 C.2       3 UNK         0.5000 
     56 O          -2.2576  -11.4558  -43.2587 O.2       3 UNK        -0.5000 
     57 CA         -3.9306  -11.7689  -44.9495 C.3       3 UNK         0.1400 
     58 CB         -3.7934  -10.3332  -45.4851 C.3       3 UNK        -0.1800 
     59 N          -4.1993  -12.6554  -46.0833 N.am      3 UNK        -0.5000 
     60 C          -5.0603  -13.6811  -46.0837 C.2       2 UNK         0.5000 
     61 O          -5.7857  -13.9693  -45.1324 O.2       2 UNK        -0.5000 
     62 CA         -5.0809  -14.5549  -47.3546 C.3       2 UNK         0.1400 
     63 CB         -6.1620  -14.0772  -48.3344 C.3       2 UNK        -0.1800 
     64 N          -3.7892  -14.5982  -48.0467 N.am      2 UNK        -0.5000 
     65 C          -2.6731  -15.1452  -47.5413 C.2       1 UNK         0.5000 
     66 O          -2.6490  -15.7096  -46.4489 O.2       1 UNK        -0.5000 
     67 C           3.0576  -24.4278  -47.4975 C.2       11 UNK         0.5000 
     68 O           3.1404  -25.0129  -48.5783 O.2       11 UNK        -0.5000 
     69 N           2.2871  -24.8539  -46.4835 N.am      12 UNK        -0.5000 
     70 CA          1.3830  -26.0089  -46.4677 C.3       12 UNK         0.1400 
     71 CB          2.1690  -27.3305  -46.5982 C.3       12 UNK        -0.1800 
     72 C           0.2287  -25.8789  -47.4835 C.2       12 UNK         0.5000 
     73 O          -0.1790  -26.8696  -48.0941 O.2       12 UNK        -0.5000 
     74 N          -0.2735  -24.6492  -47.6484 N.am      13 UNK        -0.5000 
     75 CA         -1.4004  -24.3129  -48.5132 C.3       13 UNK         0.1400 
     76 CB         -1.3712  -22.7987  -48.7589 C.3       13 UNK        -0.1800 
     77 C          -2.7504  -24.7323  -47.9002 C.2       13 UNK         0.5000 
     78 O          -2.8216  -25.1009  -46.7233 O.2       13 UNK        -0.5000 
     79 N          -3.8116  -24.6358  -48.7097 N.am      14 UNK        -0.5000 
     80 CA         -5.2080  -24.8534  -48.3285 C.3       14 UNK         0.1400 
     81 CB         -6.0419  -25.0213  -49.6113 C.3       14 UNK        -0.1800 
     82 C          -5.7380  -23.7187  -47.4233 C.2       14 UNK         0.5000 
     83 O          -6.5443  -22.8977  -47.8648 O.2       14 UNK        -0.5000 
     84 N          -5.2430  -23.6885  -46.1783 N.am      15 UNK        -0.5000 
     85 CA         -5.4350  -22.6493  -45.1631 C.3       15 UNK         0.1400 
     86 CB         -6.9139  -22.5629  -44.7219 C.3       15 UNK        -0.1800 
     87 C          -4.8241  -21.3084  -45.6225 C.2       15 UNK         0.5000 
     88 O          -3.7568  -21.3163  -46.2381 O.2       15 UNK        -0.5000 
     89 N          -5.4887  -20.1845  -45.3233 N.am      16 UNK        -0.5000 
     90 CA         -5.1051  -18.8325  -45.7357 C.3       16 UNK         0.1400 
     91 CB         -5.7942  -17.8245  -44.7997 C.3       16 UNK        -0.1800 
     92 C          -5.4419  -18.5950  -47.2227 C.2       16 UNK         0.5000 
     93 O          -6.3589  -17.8373  -47.5440 O.2       16 UNK        -0.5000 
     94 N          -4.7333  -19.3069  -48.1019 N.am      17 UNK        -0.5000 
     95 CA         -4.9468  -19.2997  -49.5433 C.3       17 UNK         0.1400 
     96 CB         -4.4113  -20.6165  -50.1171 C.3       17 UNK        -0.1800 
     97 C          -4.2603  -18.1052  -50.2271 C.2       17 UNK         0.5000 
     98 O          -3.2229  -17.6217  -49.7632 O.2       17 UNK        -0.5000 
     99 N          -4.8285  -17.6885  -51.3636 N.am      18 UNK        -0.5000 
    100 CA        -4.2147  -16.7361  -52.2841 C.3       18 UNK         0.1400 
    101 CB        -5.2806  -16.2313  -53.2680 C.3       18 UNK        -0.1800 
    102 C         -3.0572  -17.4020  -53.0481 C.2       18 UNK         0.5000 
    103 O         -3.1669  -18.5749  -53.4058 O.2       18 UNK        -0.5000 
    104 N         -1.9960  -16.6387  -53.3337 N.am      19 UNK        -0.5000 
    105 CA        -0.7910  -17.0946  -54.0403 C.3       19 UNK         0.1400 
    106 CB         0.2300  -15.9476  -54.0700 C.3       19 UNK        -0.1800 
    107 C         -1.0386  -17.6328  -55.4658 C.2       19 UNK         0.5000 
    108 O         -0.2256  -18.4039  -55.9760 O.2       19 UNK        -0.5000 
    109 N         -2.1549  -17.2229  -56.0801 N.am      20 UNK        -0.5000 
    110 CA        -2.6062  -17.6811  -57.3920 C.3       20 UNK         0.1400 
    111 CB        -3.5375  -16.6102  -57.9831 C.3       20 UNK        -0.1800 
    112 C         -3.3189  -19.0498  -57.3604 C.2       20 UNK         0.5000 
    113 O         -3.5140  -19.6359  -58.4265 O.2       20 UNK        -0.5000 
    114 N         -3.7248  -19.5306  -56.1763 N.am      21 UNK        -0.5000 
    115 CA        -4.5443  -20.7296  -56.0099 C.3       21 UNK         0.1400 
    116 CB        -6.0236  -20.3944  -56.2926 C.3       21 UNK        -0.1800 
    117 C         -4.3206  -21.3199  -54.6096 C.2       21 UNK         0.5000 
    118 O         -5.2347  -21.3185  -53.7829 O.2       21 UNK        -0.5000 
    119 N         -3.0918  -21.7903  -54.3625 N.am      22 UNK        -0.5000 
    120 CA        -2.6496  -22.3416  -53.0689 C.3       22 UNK         0.1400 
    121 C         -3.3231  -23.6768  -52.6339 C.2       22 UNK         0.5000 
    122 N         -3.9830  -24.4131  -53.5186 N.am      22 UNK        -0.7600 
    123 O         -3.2464  -24.0463  -51.4654 O.2       22 UNK        -0.5000 
    124 C124       -1.1084  -22.4661  -52.9868 C.3       23 UNK        -0.0398 
    125 S125       -0.2574  -20.8613  -53.1455 S.3       23 UNK        -0.2404 
    126 C126       -0.4848  -20.1945  -51.4660 C.3       23 UNK        -0.0205 
    127 H127        0.1163  -12.9107  -49.8642 H         1 UNK         0.0600 
    128 H128       -1.4782  -12.1830  -49.5843 H         1 UNK         0.0600 
    129 H129       -0.7247  -12.0901  -51.1745 H         1 UNK         0.0600 
    130 H130       -2.1887  -15.8622  -50.0617 H         1 UNK         0.3000 
    131 H131       -1.0206  -13.9812  -48.0711 H         1 UNK         0.0600 
    132 H132       -0.2565  -16.2045  -46.9396 H         1 UNK         0.0800 
    133 H133       -0.4418  -16.9512  -48.4957 H         1 UNK         0.0800 
    134 H134        0.8993  -15.4052  -50.7319 H         1 UNK         0.0800 
    135 H135        2.6107  -15.3702  -50.4454 H         1 UNK         0.0800 
    136 H136       -0.2806  -17.5243  -50.9479 H         1 UNK         0.1150 
    137 H137        2.0049  -21.1488  -50.9348 H         1 UNK         0.1150 
    138 H138        3.8318  -17.4575  -49.7403 H         1 UNK         0.1150 
    139 H139        4.4784  -20.9499  -50.7760 H         1 UNK         0.0800 
    140 H140        5.2104  -19.4272  -50.3533 H         1 UNK         0.0800 
    141 H141        2.4402  -21.6548  -48.0407 H         1 UNK         0.0800 
    142 H142        3.3395  -22.4633  -49.2997 H         1 UNK         0.0800 
    143 H143        4.9122  -23.3891  -47.5205 H         1 UNK         0.0600 
    144 H144        3.2563  -21.8173  -45.7455 H         1 UNK         0.3000 
    145 H145        4.3355  -23.4120  -42.7487 H         1 UNK         0.0600 
    146 H146        4.8485  -21.0760  -42.1054 H         1 UNK         0.0600 
    147 H147        4.8808  -20.5862  -43.7982 H         1 UNK         0.0600 
    148 H148        6.0912  -21.7000  -43.1786 H         1 UNK         0.0600 
    149 H149        2.5342  -21.2549  -43.1936 H         1 UNK         0.3000 
    150 H150       -0.3940  -23.2719  -43.7970 H         1 UNK         0.0600 
    151 H151       -0.0908  -23.1552  -41.3179 H         1 UNK         0.0600 
    152 H152       -1.2092  -21.9271  -41.8901 H         1 UNK         0.0600 
    153 H153        0.4399  -21.4832  -41.4539 H         1 UNK         0.0600 
    154 H154       -0.1166  -20.4601  -43.6620 H         1 UNK         0.3000 
    155 H155        0.7159  -19.8876  -47.1163 H         1 UNK         0.0600 
    156 H156       -1.7054  -19.9535  -47.0779 H         1 UNK         0.0600 
    157 H157       -1.2503  -18.3192  -46.6489 H         1 UNK         0.0600 
    158 H158       -1.7728  -19.4356  -45.3954 H         1 UNK         0.0600 
    159 H159        0.4579  -18.0789  -44.9407 H         1 UNK         0.3000 
    160 H160        3.8438  -18.2298  -43.7839 H         1 UNK         0.0600 
    161 H161        2.2276  -16.1288  -45.3248 H         1 UNK         0.0600 
    162 H162        3.8573  -16.6669  -45.6852 H         1 UNK         0.0600 
    163 H163        3.5408  -15.7792  -44.2015 H         1 UNK         0.0600 
    164 H164        1.3812  -16.8540  -43.0495 H         1 UNK         0.3000 
    165 H165        0.4927  -19.1413  -40.4642 H         1 UNK         0.0600 
    166 H166        0.7437  -17.1619  -38.9949 H         1 UNK         0.0600 
    167 H167        2.3220  -17.8271  -39.3834 H         1 UNK         0.0600 
    168 H168        1.7670  -16.3659  -40.1914 H         1 UNK         0.0600 
    169 H169       -0.5021  -16.5576  -41.1689 H         1 UNK         0.3000 
    170 H170       -2.6899  -17.5557  -43.7759 H         1 UNK         0.0600 
    171 H171       -3.9492  -18.2196  -41.7312 H         1 UNK         0.0600 
    172 H172       -3.3225  -16.8222  -40.8647 H         1 UNK         0.0600 
    173 H173       -4.4062  -16.5986  -42.2353 H         1 UNK         0.0600 
    174 H174       -2.5837  -15.0659  -42.6166 H         1 UNK         0.3000 
    175 H175       -0.6526  -13.4192  -42.9517 H         1 UNK         0.0600 
    176 H176        0.2638  -13.8371  -45.8519 H         1 UNK         0.0600 
    177 H177        0.4463  -12.3488  -44.9266 H         1 UNK         0.0600 
    178 H178        1.3099  -13.7985  -44.4385 H         1 UNK         0.0600 
    179 H179       -2.4966  -13.9240  -45.2077 H         1 UNK         0.3000 
    180 H180       -4.7690  -11.7906  -44.2504 H         1 UNK         0.0600 
    181 H181       -3.6524   -9.6203  -44.6718 H         1 UNK         0.0600 
    182 H182       -4.6887  -10.0282  -46.0273 H         1 UNK         0.0600 
    183 H183       -2.9423  -10.2345  -46.1600 H         1 UNK         0.0600 
    184 H184       -3.6514  -12.4928  -46.9152 H         1 UNK         0.3000 
    185 H185       -5.3261  -15.5681  -47.0416 H         1 UNK         0.0600 
    186 H186       -7.1414  -14.0582  -47.8546 H         1 UNK         0.0600 
    187 H187       -5.9566  -13.0721  -48.7047 H         1 UNK         0.0600 
    188 H188       -6.2360  -14.7456  -49.1928 H         1 UNK         0.0600 
    189 H189       -3.7466  -14.1680  -48.9588 H         1 UNK         0.3000 
    190 H190        2.2841  -24.3043  -45.6332 H         1 UNK         0.3000 
    191 H191        0.9117  -26.0086  -45.4841 H         1 UNK         0.0600 
    192 H192        1.5169  -28.1894  -46.4359 H         1 UNK         0.0600 
    193 H193        2.9682  -27.3872  -45.8592 H         1 UNK         0.0600 
    194 H194        2.6157  -27.4432  -47.5862 H         1 UNK         0.0600 
    195 H195        0.0975  -23.8866  -47.0877 H         1 UNK         0.3000 
    196 H196       -1.2740  -24.8278  -49.4679 H         1 UNK         0.0600 
    197 H197       -1.6632  -22.2428  -47.8677 H         1 UNK         0.0600 
    198 H198       -0.3743  -22.4665  -49.0481 H         1 UNK         0.0600 
    199 H199       -2.0590  -22.5244  -49.5565 H         1 UNK         0.0600 
    200 H200       -3.6571  -24.3385  -49.6715 H         1 UNK         0.3000 
    201 H201       -5.2735  -25.7856  -47.7637 H         1 UNK         0.0600 
    202 H202       -7.0923  -25.1965  -49.3761 H         1 UNK         0.0600 
    203 H203       -5.6937  -25.8712  -50.1985 H         1 UNK         0.0600 
    204 H204       -5.9880  -24.1350  -50.2453 H         1 UNK         0.0600 
    205 H205       -4.4927  -24.3454  -45.9851 H         1 UNK         0.3000 
    206 H206       -4.8506  -22.9638  -44.2975 H         1 UNK         0.0600 
    207 H207       -7.2984  -23.5474  -44.4549 H         1 UNK         0.0600 
    208 H208       -7.0277  -21.9298  -43.8414 H         1 UNK         0.0600 
    209 H209       -7.5551  -22.1603  -45.5068 H         1 UNK         0.0600 
    210 H210       -6.3747  -20.2677  -44.8470 H         1 UNK         0.3000 
    211 H211       -4.0273  -18.7141  -45.6146 H         1 UNK         0.0600 
    212 H212       -6.8773  -17.8227  -44.9276 H         1 UNK         0.0600 
    213 H213       -5.4353  -16.8122  -44.9859 H         1 UNK         0.0600 
    214 H214       -5.5876  -18.0545  -43.7556 H         1 UNK         0.0600 
    215 H215       -4.0347  -19.9469  -47.7416 H         1 UNK         0.3000 
    216 H216       -6.0206  -19.2527  -49.7373 H         1 UNK         0.0600 
    217 H217       -4.8213  -21.4811  -49.5949 H         1 UNK         0.0600 
    218 H218       -3.3247  -20.6646  -50.0510 H         1 UNK         0.0600 
    219 H219       -4.6883  -20.7125  -51.1666 H         1 UNK         0.0600 
    220 H220       -5.6428  -18.1750  -51.7086 H         1 UNK         0.3000 
    221 H221       -3.8418  -15.8885  -51.7096 H         1 UNK         0.0600 
    222 H222       -6.1100  -15.7580  -52.7421 H         1 UNK         0.0600 
    223 H223       -4.8624  -15.4882  -53.9482 H         1 UNK         0.0600 
    224 H224       -5.6862  -17.0419  -53.8754 H         1 UNK         0.0600 
    225 H225       -1.9769  -15.6821  -52.9851 H         1 UNK         0.3000 
    226 H226       -0.3622  -17.9138  -53.4635 H         1 UNK         0.0600 
    227 H227        0.4895  -15.6243  -53.0628 H         1 UNK         0.0600 
    228 H228        1.1549  -16.2581  -54.5578 H         1 UNK         0.0600 
    229 H229       -0.1551  -15.0823  -54.6106 H         1 UNK         0.0600 
    230 H230       -2.7608  -16.5837  -55.5879 H         1 UNK         0.3000 
    231 H231       -1.7400  -17.7781  -58.0500 H         1 UNK         0.0600 
    232 H232       -3.8715  -16.8896  -58.9833 H         1 UNK         0.0600 
    233 H233       -3.0298  -15.6493  -58.0696 H         1 UNK         0.0600 
    234 H234       -4.4271  -16.4671  -57.3683 H         1 UNK         0.0600 
    235 H235       -3.4811  -19.0455  -55.3164 H         1 UNK         0.3000 
    236 H236       -4.2241  -21.4912  -56.7242 H         1 UNK         0.0600 
    237 H237       -6.3883  -19.6062  -55.6326 H         1 UNK         0.0600 
    238 H238       -6.1671  -20.0621  -57.3207 H         1 UNK         0.0600 
    239 H239       -6.6584  -21.2691  -56.1455 H         1 UNK         0.0600 
    240 H240       -2.3864  -21.7190  -55.0809 H         1 UNK         0.3000 
    241 H241       -2.9440  -21.6143  -52.3140 H         1 UNK         0.0600 
    242 H242       -4.0590  -24.1199  -54.4789 H         1 UNK         0.3800 
    243 H243       -4.4162  -25.2722  -53.2203 H         1 UNK         0.3800 
    244 H244       -0.7433  -23.1253  -53.7759 H         1 UNK         0.0800 
    245 H245       -0.7966  -22.9280  -52.0480 H         1 UNK         0.0800 
    246 H246       -0.6698  -20.9997  -50.7610 H         1 UNK         0.0800 
    247 H247       -1.3783  -19.5683  -51.4528 H         1 UNK         0.0800 
@<TRIPOS>BOND
     1    1    2 1    
     2    1  127 1    
     3    1  128 1    
     4    1  129 1    
     5    2    3 2    
     6    2    4 am   BACKBONE|DICT|INTERRES
     7    4    5 1    
     8    4  130 1    
     9    5    6 1    
    10    5   65 1    
    11    5  131 1    
    12    6    7 1    
    13    6  132 1    
    14    6  133 1    
    15    7    8 1    
    16    8    9 1    
    17    8  134 1    
    18    8  135 1    
    19    9   10 ar   
    20    9   14 ar   
    21   10   11 ar   
    22   10  136 1    
    23   11   12 ar   
    24   11  126 1    
    25   12   13 ar   
    26   12  137 1    
    27   13   14 ar   
    28   13   15 1    
    29   14  138 1    
    30   15   16 1    
    31   15  139 1    
    32   15  140 1    
    33   16   17 1    
    34   17   18 1    
    35   17  141 1    
    36   17  142 1    
    37   18   19 1    
    38   18   67 1    
    39   18  143 1    
    40   19   20 am   BACKBONE|DICT|INTERRES
    41   19  144 1    
    42   20   21 2    
    43   20   22 1    
    44   22   23 1    
    45   22   24 1    
    46   22  145 1    
    47   23  146 1    
    48   23  147 1    
    49   23  148 1    
    50   24   25 am   BACKBONE|DICT|INTERRES
    51   24  149 1    
    52   25   26 2    
    53   25   27 1    
    54   27   28 1    
    55   27   29 1    
    56   27  150 1    
    57   28  151 1    
    58   28  152 1    
    59   28  153 1    
    60   29   30 am   BACKBONE|DICT|INTERRES
    61   29  154 1    
    62   30   31 2    
    63   30   32 1    
    64   32   33 1    
    65   32   34 1    
    66   32  155 1    
    67   33  156 1    
    68   33  157 1    
    69   33  158 1    
    70   34   35 am   BACKBONE|DICT|INTERRES
    71   34  159 1    
    72   35   36 2    
    73   35   37 1    
    74   37   38 1    
    75   37   39 1    
    76   37  160 1    
    77   38  161 1    
    78   38  162 1    
    79   38  163 1    
    80   39   40 am   BACKBONE|DICT|INTERRES
    81   39  164 1    
    82   40   41 2    
    83   40   42 1    
    84   42   43 1    
    85   42   44 1    
    86   42  165 1    
    87   43  166 1    
    88   43  167 1    
    89   43  168 1    
    90   44   45 am   BACKBONE|DICT|INTERRES
    91   44  169 1    
    92   45   46 2    
    93   45   47 1    
    94   47   48 1    
    95   47   49 1    
    96   47  170 1    
    97   48  171 1    
    98   48  172 1    
    99   48  173 1    
   100   49   50 am   BACKBONE|DICT|INTERRES
   101   49  174 1    
   102   50   51 2    
   103   50   52 1    
   104   52   53 1    
   105   52   54 1    
   106   52  175 1    
   107   53  176 1    
   108   53  177 1    
   109   53  178 1    
   110   54   55 am   BACKBONE|DICT|INTERRES
   111   54  179 1    
   112   55   56 2    
   113   55   57 1    
   114   57   58 1    
   115   57   59 1    
   116   57  180 1    
   117   58  181 1    
   118   58  182 1    
   119   58  183 1    
   120   59   60 am   BACKBONE|DICT|INTERRES
   121   59  184 1    
   122   60   61 2    
   123   60   62 1    
   124   62   63 1    
   125   62   64 1    
   126   62  185 1    
   127   63  186 1    
   128   63  187 1    
   129   63  188 1    
   130   64   65 am   BACKBONE|DICT|INTERRES
   131   64  189 1    
   132   65   66 2    
   133   67   68 2    
   134   67   69 am   BACKBONE|DICT|INTERRES
   135   69   70 1    
   136   69  190 1    
   137   70   71 1    
   138   70   72 1    
   139   70  191 1    
   140   71  192 1    
   141   71  193 1    
   142   71  194 1    
   143   72   73 2    
   144   72   74 am   BACKBONE|DICT|INTERRES
   145   74   75 1    
   146   74  195 1    
   147   75   76 1    
   148   75   77 1    
   149   75  196 1    
   150   76  197 1    
   151   76  198 1    
   152   76  199 1    
   153   77   78 2    
   154   77   79 am   BACKBONE|DICT|INTERRES
   155   79   80 1    
   156   79  200 1    
   157   80   81 1    
   158   80   82 1    
   159   80  201 1    
   160   81  202 1    
   161   81  203 1    
   162   81  204 1    
   163   82   83 2    
   164   82   84 am   BACKBONE|DICT|INTERRES
   165   84   85 1    
   166   84  205 1    
   167   85   86 1    
   168   85   87 1    
   169   85  206 1    
   170   86  207 1    
   171   86  208 1    
   172   86  209 1    
   173   87   88 2    
   174   87   89 am   BACKBONE|DICT|INTERRES
   175   89   90 1    
   176   89  210 1    
   177   90   91 1    
   178   90   92 1    
   179   90  211 1    
   180   91  212 1    
   181   91  213 1    
   182   91  214 1    
   183   92   93 2    
   184   92   94 am   BACKBONE|DICT|INTERRES
   185   94   95 1    
   186   94  215 1    
   187   95   96 1    
   188   95   97 1    
   189   95  216 1    
   190   96  217 1    
   191   96  218 1    
   192   96  219 1    
   193   97   98 2    
   194   97   99 am   BACKBONE|DICT|INTERRES
   195   99  100 1    
   196   99  220 1    
   197  100  101 1    
   198  100  102 1    
   199  100  221 1    
   200  101  222 1    
   201  101  223 1    
   202  101  224 1    
   203  102  103 2    
   204  102  104 am   BACKBONE|DICT|INTERRES
   205  104  105 1    
   206  104  225 1    
   207  105  106 1    
   208  105  107 1    
   209  105  226 1    
   210  106  227 1    
   211  106  228 1    
   212  106  229 1    
   213  107  108 2    
   214  107  109 am   BACKBONE|DICT|INTERRES
   215  109  110 1    
   216  109  230 1    
   217  110  111 1    
   218  110  112 1    
   219  110  231 1    
   220  111  232 1    
   221  111  233 1    
   222  111  234 1    
   223  112  113 2    
   224  112  114 am   BACKBONE|DICT|INTERRES
   225  114  115 1    
   226  114  235 1    
   227  115  116 1    
   228  115  117 1    
   229  115  236 1    
   230  116  237 1    
   231  116  238 1    
   232  116  239 1    
   233  117  118 2    
   234  117  119 am   BACKBONE|DICT|INTERRES
   235  119  120 1    
   236  119  240 1    
   237  120  121 1    
   238  120  124 1    
   239  120  241 1    
   240  121  122 am   BACKBONE|DICT|INTERRES
   241  121  123 2    
   242  122  242 1    
   243  122  243 1    
   244  124  125 1    
   245  124  244 1    
   246  124  245 1    
   247  125  126 1    
   248  126  246 1    
   249  126  247 1    
@<TRIPOS>SUBSTRUCTURE
     1 UNK         1 GROUP             0       ****    0 ROOT    
