@<TRIPOS>MOLECULE
3R540
247   249    1
SMALL
USER_CHARGES


@<TRIPOS>ATOM
      1 CA          4.3701  -18.3446  -45.7452 C.3       0 UNK        -0.1800 
      2 C           4.2031  -16.8649  -45.4373 C.2       0 UNK         0.5000 
      3 O           3.8555  -16.5109  -44.3097 O.2       0 UNK        -0.5000 
      4 N           4.4719  -15.9976  -46.4227 N.am      1 UNK        -0.5000 
      5 CA          4.3008  -14.5350  -46.3850 C.3       1 UNK         0.1400 
      6 C6          4.1642  -13.9258  -47.8064 C.3       23 UNK        -0.0398 
      7 S7          2.7986  -14.6759  -48.7565 S.3       23 UNK        -0.2404 
      8 C8          3.6803  -15.4277  -50.1576 C.3       23 UNK        -0.0205 
      9 C9          2.8634  -16.5543  -50.7685 C.ar      23 UNK        -0.0193 
     10 C10         1.9054  -16.2926  -51.7517 C.ar      23 UNK        -0.1150 
     11 C11         1.1596  -17.3361  -52.3108 C.ar      23 UNK        -0.0193 
     12 C12         1.3676  -18.6450  -51.8652 C.ar      23 UNK        -0.1150 
     13 C13         2.3138  -18.9196  -50.8733 C.ar      23 UNK        -0.0193 
     14 C14         3.0701  -17.8680  -50.3439 C.ar      23 UNK        -0.1150 
     15 C15         2.5027  -20.3553  -50.3877 C.3       23 UNK        -0.0205 
     16 S16         2.8162  -20.4964  -48.5940 S.3       23 UNK        -0.2404 
     17 C17         1.3392  -19.6794  -47.9010 C.3       23 UNK        -0.0398 
     18 CA          0.4037  -20.6684  -47.1753 C.3       11 UNK         0.1400 
     19 N          -0.4533  -19.9828  -46.2093 N.am      11 UNK        -0.5000 
     20 C          -1.2528  -20.5997  -45.3299 C.2       10 UNK         0.5000 
     21 O          -1.3167  -21.8214  -45.1980 O.2       10 UNK        -0.5000 
     22 CA         -2.1670  -19.6974  -44.4885 C.3       10 UNK         0.1400 
     23 CB         -1.4139  -19.1518  -43.2690 C.3       10 UNK        -0.1800 
     24 N          -2.7167  -18.5911  -45.2738 N.am      10 UNK        -0.5000 
     25 C          -3.6206  -18.7452  -46.2517 C.2       9 UNK         0.5000 
     26 O          -4.1238  -19.8274  -46.5542 O.2       9 UNK        -0.5000 
     27 CA         -3.9814  -17.4863  -47.0592 C.3       9 UNK         0.1400 
     28 CB         -5.0030  -16.6234  -46.3048 C.3       9 UNK        -0.1800 
     29 N          -2.8042  -16.6819  -47.3920 N.am      9 UNK        -0.5000 
     30 C          -1.8487  -17.0779  -48.2463 C.2       8 UNK         0.5000 
     31 O          -1.8637  -18.1606  -48.8268 O.2       8 UNK        -0.5000 
     32 CA         -0.6563  -16.1325  -48.4672 C.3       8 UNK         0.1400 
     33 CB         -0.9576  -15.1479  -49.6060 C.3       8 UNK        -0.1800 
     34 N          -0.2751  -15.3726  -47.2801 N.am      8 UNK        -0.5000 
     35 C           0.1010  -15.8806  -46.1001 C.2       7 UNK         0.5000 
     36 O           0.1170  -17.0868  -45.8439 O.2       7 UNK        -0.5000 
     37 CA          0.5154  -14.8653  -45.0158 C.3       7 UNK         0.1400 
     38 CB          0.6658  -13.4135  -45.5288 C.3       7 UNK        -0.1800 
     39 N          -0.3766  -14.8735  -43.8575 N.am      7 UNK        -0.5000 
     40 C          -1.7103  -14.7186  -43.8441 C.2       6 UNK         0.5000 
     41 O          -2.4052  -14.6676  -44.8603 O.2       6 UNK        -0.5000 
     42 CA         -2.3877  -14.5846  -42.4629 C.3       6 UNK         0.1400 
     43 CB         -3.3590  -15.7457  -42.2052 C.3       6 UNK        -0.1800 
     44 N          -1.4269  -14.5164  -41.3577 N.am      6 UNK        -0.5000 
     45 C          -0.7712  -13.4106  -40.9760 C.2       5 UNK         0.5000 
     46 O          -0.9675  -12.2958  -41.4598 O.2       5 UNK        -0.5000 
     47 CA          0.3137  -13.5944  -39.8964 C.3       5 UNK         0.1400 
     48 CB         -0.2820  -13.4009  -38.4937 C.3       5 UNK        -0.1800 
     49 N           0.9707  -14.9045  -39.9665 N.am      5 UNK        -0.5000 
     50 C           1.7903  -15.2893  -40.9538 C.2       4 UNK         0.5000 
     51 O           2.0923  -14.5739  -41.9112 O.2       4 UNK        -0.5000 
     52 CA          2.2935  -16.7369  -40.8978 C.3       4 UNK         0.1400 
     53 CB          1.4344  -17.6235  -41.8112 C.3       4 UNK        -0.1800 
     54 N           3.6783  -16.7999  -41.3526 N.am      4 UNK        -0.5000 
     55 C           4.7299  -17.0409  -40.5597 C.2       3 UNK         0.5000 
     56 O           4.6441  -17.2511  -39.3487 O.2       3 UNK        -0.5000 
     57 CA          6.1165  -17.0558  -41.2270 C.3       3 UNK         0.1400 
     58 CB          6.4039  -18.4379  -41.8341 C.3       3 UNK        -0.1800 
     59 N           6.2643  -16.0394  -42.2671 N.am      3 UNK        -0.5000 
     60 C           6.3716  -14.7209  -42.0450 C.2       2 UNK         0.5000 
     61 O           6.3572  -14.2066  -40.9265 O.2       2 UNK        -0.5000 
     62 CA          6.5135  -13.8346  -43.2908 C.3       2 UNK         0.1400 
     63 CB          7.9806  -13.8255  -43.7673 C.3       2 UNK        -0.1800 
     64 N           5.6067  -14.3244  -44.3267 N.am      2 UNK        -0.5000 
     65 C           5.3785  -13.8136  -45.5384 C.2       1 UNK         0.5000 
     66 O           5.9634  -12.8253  -45.9846 O.2       1 UNK        -0.5000 
     67 C          -0.4184  -21.5224  -48.1638 C.2       11 UNK         0.5000 
     68 O          -0.0965  -22.6932  -48.3631 O.2       11 UNK        -0.5000 
     69 N          -1.4976  -20.9484  -48.7165 N.am      12 UNK        -0.5000 
     70 CA         -2.4462  -21.6407  -49.5867 C.3       12 UNK         0.1400 
     71 CB         -3.4502  -20.6417  -50.1801 C.3       12 UNK        -0.1800 
     72 C          -3.1739  -22.7910  -48.8720 C.2       12 UNK         0.5000 
     73 O          -3.3242  -23.8577  -49.4639 O.2       12 UNK        -0.5000 
     74 N          -3.5745  -22.5851  -47.6094 N.am      13 UNK        -0.5000 
     75 CA         -4.1736  -23.6196  -46.7629 C.3       13 UNK         0.1400 
     76 CB         -4.6863  -22.9975  -45.4562 C.3       13 UNK        -0.1800 
     77 C          -3.2157  -24.7933  -46.4864 C.2       13 UNK         0.5000 
     78 O          -3.6272  -25.9474  -46.6074 O.2       13 UNK        -0.5000 
     79 N          -1.9500  -24.4832  -46.1726 N.am      14 UNK        -0.5000 
     80 CA         -0.8795  -25.4614  -45.9648 C.3       14 UNK         0.1400 
     81 CB          0.3592  -24.7506  -45.3985 C.3       14 UNK        -0.1800 
     82 C          -0.5229  -26.2463  -47.2425 C.2       14 UNK         0.5000 
     83 O          -0.2771  -27.4507  -47.1684 O.2       14 UNK        -0.5000 
     84 N          -0.5269  -25.5576  -48.3914 N.am      15 UNK        -0.5000 
     85 CA         -0.2786  -26.1279  -49.7173 C.3       15 UNK         0.1400 
     86 CB          0.0884  -24.9865  -50.6800 C.3       15 UNK        -0.1800 
     87 C          -1.4647  -26.9360  -50.2841 C.2       15 UNK         0.5000 
     88 O          -1.2858  -27.6258  -51.2886 O.2       15 UNK        -0.5000 
     89 N          -2.6474  -26.8147  -49.6610 N.am      16 UNK        -0.5000 
     90 CA         -3.9475  -27.3341  -50.1043 C.3       16 UNK         0.1400 
     91 CB         -3.9621  -28.8767  -50.1212 C.3       16 UNK        -0.1800 
     92 C          -4.4066  -26.6998  -51.4371 C.2       16 UNK         0.5000 
     93 O          -5.0144  -27.3671  -52.2757 O.2       16 UNK        -0.5000 
     94 N          -4.1023  -25.4067  -51.5923 N.am      17 UNK        -0.5000 
     95 CA         -4.3952  -24.5652  -52.7501 C.3       17 UNK         0.1400 
     96 CB         -3.0798  -23.9288  -53.2296 C.3       17 UNK        -0.1800 
     97 C          -5.4347  -23.4791  -52.4127 C.2       17 UNK         0.5000 
     98 O          -5.6645  -22.5865  -53.2291 O.2       17 UNK        -0.5000 
     99 N          -6.0603  -23.5571  -51.2285 N.am      18 UNK        -0.5000 
    100 CA        -7.0511  -22.6035  -50.7128 C.3       18 UNK         0.1400 
    101 CB        -7.3686  -22.9521  -49.2517 C.3       18 UNK        -0.1800 
    102 C         -8.3455  -22.4920  -51.5463 C.2       18 UNK         0.5000 
    103 O         -9.0816  -21.5194  -51.3844 O.2       18 UNK        -0.5000 
    104 N         -8.5895  -23.4595  -52.4411 N.am      19 UNK        -0.5000 
    105 CA        -9.6344  -23.3975  -53.4645 C.3       19 UNK         0.1400 
    106 CB        -9.7915  -24.7843  -54.1064 C.3       19 UNK        -0.1800 
    107 C         -9.3466  -22.3306  -54.5424 C.2       19 UNK         0.5000 
    108 O        -10.2887  -21.7433  -55.0756 O.2       19 UNK        -0.5000 
    109 N         -8.0590  -22.0931  -54.8315 N.am      20 UNK        -0.5000 
    110 CA        -7.5838  -21.0381  -55.7255 C.3       20 UNK         0.1400 
    111 CB        -6.3707  -21.5498  -56.5186 C.3       20 UNK        -0.1800 
    112 C         -7.2128  -19.7716  -54.9364 C.2       20 UNK         0.5000 
    113 O         -7.4756  -18.6674  -55.4140 O.2       20 UNK        -0.5000 
    114 N         -6.6023  -19.9538  -53.7533 N.am      21 UNK        -0.5000 
    115 CA        -6.1893  -18.9208  -52.7927 C.3       21 UNK         0.1400 
    116 CB        -7.4233  -18.3142  -52.0947 C.3       21 UNK        -0.1800 
    117 C         -5.2674  -17.8502  -53.4153 C.2       21 UNK         0.5000 
    118 O         -5.4640  -16.6544  -53.1927 O.2       21 UNK        -0.5000 
    119 N         -4.3031  -18.3160  -54.2202 N.am      22 UNK        -0.5000 
    120 CA        -3.3703  -17.5130  -55.0335 C.3       22 UNK         0.1400 
    121 C         -4.0180  -16.8152  -56.2710 C.2       22 UNK         0.5000 
    122 N         -5.2874  -17.0375  -56.5922 N.am      22 UNK        -0.7600 
    123 O         -3.3431  -16.0782  -56.9849 O.2       22 UNK        -0.5000 
    124 C124       -2.5008  -16.5219  -54.2055 C.3       23 UNK        -0.0398 
    125 S125       -1.5635  -17.3160  -52.8529 S.3       23 UNK        -0.2404 
    126 C126        0.1488  -17.0535  -53.4127 C.3       23 UNK        -0.0205 
    127 H127        5.2169  -18.7500  -45.1920 H         1 UNK         0.0600 
    128 H128        4.5386  -18.5199  -46.8079 H         1 UNK         0.0600 
    129 H129        3.4752  -18.8913  -45.4481 H         1 UNK         0.0600 
    130 H130        4.7855  -16.3610  -47.3104 H         1 UNK         0.3000 
    131 H131        3.3631  -14.3407  -45.8662 H         1 UNK         0.0600 
    132 H132        3.9594  -12.8556  -47.7423 H         1 UNK         0.0800 
    133 H133        5.1011  -14.0208  -48.3573 H         1 UNK         0.0800 
    134 H134        3.8913  -14.6626  -50.9061 H         1 UNK         0.0800 
    135 H135        4.6463  -15.8135  -49.8290 H         1 UNK         0.0800 
    136 H136        1.7458  -15.2760  -52.0829 H         1 UNK         0.1150 
    137 H137        0.7843  -19.4491  -52.2918 H         1 UNK         0.1150 
    138 H138        3.8132  -18.0673  -49.5853 H         1 UNK         0.1150 
    139 H139        1.6252  -20.9574  -50.6297 H         1 UNK         0.0800 
    140 H140        3.3412  -20.7980  -50.9265 H         1 UNK         0.0800 
    141 H141        1.7030  -18.9281  -47.1992 H         1 UNK         0.0800 
    142 H142        0.7989  -19.1224  -48.6670 H         1 UNK         0.0800 
    143 H143        1.0241  -21.3545  -46.5942 H         1 UNK         0.0600 
    144 H144       -0.4281  -18.9677  -46.2124 H         1 UNK         0.3000 
    145 H145       -2.9942  -20.3126  -44.1283 H         1 UNK         0.0600 
    146 H146       -0.8400  -19.9361  -42.7732 H         1 UNK         0.0600 
    147 H147       -0.7187  -18.3612  -43.5503 H         1 UNK         0.0600 
    148 H148       -2.1069  -18.7546  -42.5304 H         1 UNK         0.0600 
    149 H149       -2.3071  -17.6788  -45.1330 H         1 UNK         0.3000 
    150 H150       -4.4421  -17.8138  -47.9939 H         1 UNK         0.0600 
    151 H151       -5.9005  -17.1971  -46.0704 H         1 UNK         0.0600 
    152 H152       -5.3121  -15.7658  -46.9026 H         1 UNK         0.0600 
    153 H153       -4.5991  -16.2475  -45.3650 H         1 UNK         0.0600 
    154 H154       -2.6943  -15.8010  -46.9052 H         1 UNK         0.3000 
    155 H155        0.2017  -16.7410  -48.7600 H         1 UNK         0.0600 
    156 H156       -0.0839  -14.5437  -49.8497 H         1 UNK         0.0600 
    157 H157       -1.7751  -14.4728  -49.3508 H         1 UNK         0.0600 
    158 H158       -1.2427  -15.6782  -50.5132 H         1 UNK         0.0600 
    159 H159       -0.2711  -14.3687  -47.3819 H         1 UNK         0.3000 
    160 H160        1.4890  -15.1951  -44.6533 H         1 UNK         0.0600 
    161 H161       -0.2921  -12.9780  -45.8156 H         1 UNK         0.0600 
    162 H162        1.3275  -13.3520  -46.3924 H         1 UNK         0.0600 
    163 H163        1.0944  -12.7764  -44.7547 H         1 UNK         0.0600 
    164 H164        0.0991  -14.8992  -42.9665 H         1 UNK         0.3000 
    165 H165       -2.9702  -13.6612  -42.4842 H         1 UNK         0.0600 
    166 H166       -2.8344  -16.6954  -42.1304 H         1 UNK         0.0600 
    167 H167       -3.9112  -15.5959  -41.2773 H         1 UNK         0.0600 
    168 H168       -4.0936  -15.8344  -43.0060 H         1 UNK         0.0600 
    169 H169       -1.2125  -15.3850  -40.8907 H         1 UNK         0.3000 
    170 H170        1.0717  -12.8240  -40.0547 H         1 UNK         0.0600 
    171 H171       -0.7584  -12.4236  -38.4036 H         1 UNK         0.0600 
    172 H172       -1.0362  -14.1556  -38.2673 H         1 UNK         0.0600 
    173 H173        0.4902  -13.4560  -37.7262 H         1 UNK         0.0600 
    174 H174        0.7684  -15.5486  -39.2150 H         1 UNK         0.3000 
    175 H175        2.2016  -17.1070  -39.8746 H         1 UNK         0.0600 
    176 H176        1.4717  -17.2916  -42.8502 H         1 UNK         0.0600 
    177 H177        1.7692  -18.6605  -41.7820 H         1 UNK         0.0600 
    178 H178        0.3911  -17.6097  -41.4946 H         1 UNK         0.0600 
    179 H179        3.8269  -16.6005  -42.3375 H         1 UNK         0.3000 
    180 H180        6.8619  -16.8626  -40.4525 H         1 UNK         0.0600 
    181 H181        5.6985  -18.6830  -42.6293 H         1 UNK         0.0600 
    182 H182        6.3291  -19.2196  -41.0771 H         1 UNK         0.0600 
    183 H183        7.4103  -18.4854  -42.2504 H         1 UNK         0.0600 
    184 H184        6.3098  -16.3758  -43.2171 H         1 UNK         0.3000 
    185 H185        6.2150  -12.8194  -43.0225 H         1 UNK         0.0600 
    186 H186        8.1451  -13.0922  -44.5561 H         1 UNK         0.0600 
    187 H187        8.6545  -13.5658  -42.9498 H         1 UNK         0.0600 
    188 H188        8.2863  -14.8008  -44.1475 H         1 UNK         0.0600 
    189 H189        5.0146  -15.1068  -44.0559 H         1 UNK         0.3000 
    190 H190       -1.6779  -19.9597  -48.5536 H         1 UNK         0.3000 
    191 H191       -1.8769  -22.0728  -50.4116 H         1 UNK         0.0600 
    192 H192       -4.1424  -21.1422  -50.8569 H         1 UNK         0.0600 
    193 H193       -2.9419  -19.8663  -50.7541 H         1 UNK         0.0600 
    194 H194       -4.0396  -20.1520  -49.4041 H         1 UNK         0.0600 
    195 H195       -3.4656  -21.6633  -47.2000 H         1 UNK         0.3000 
    196 H196       -5.0329  -24.0294  -47.2958 H         1 UNK         0.0600 
    197 H197       -5.1685  -23.7488  -44.8297 H         1 UNK         0.0600 
    198 H198       -5.4221  -22.2179  -45.6542 H         1 UNK         0.0600 
    199 H199       -3.8789  -22.5549  -44.8738 H         1 UNK         0.0600 
    200 H200       -1.7017  -23.5048  -46.0506 H         1 UNK         0.3000 
    201 H201       -1.2262  -26.1815  -45.2207 H         1 UNK         0.0600 
    202 H202        0.1321  -24.2575  -44.4531 H         1 UNK         0.0600 
    203 H203        0.7393  -23.9942  -46.0857 H         1 UNK         0.0600 
    204 H204        1.1659  -25.4601  -45.2107 H         1 UNK         0.0600 
    205 H205       -0.6624  -24.5509  -48.3526 H         1 UNK         0.3000 
    206 H206        0.5754  -26.8047  -49.6488 H         1 UNK         0.0600 
    207 H207        0.9633  -24.4390  -50.3287 H         1 UNK         0.0600 
    208 H208        0.3228  -25.3686  -51.6742 H         1 UNK         0.0600 
    209 H209       -0.7312  -24.2753  -50.7869 H         1 UNK         0.0600 
    210 H210       -2.6805  -26.2028  -48.8559 H         1 UNK         0.3000 
    211 H211       -4.6688  -27.0099  -49.3529 H         1 UNK         0.0600 
    212 H212       -3.3214  -29.2830  -50.9041 H         1 UNK         0.0600 
    213 H213       -4.9698  -29.2541  -50.2981 H         1 UNK         0.0600 
    214 H214       -3.6267  -29.2837  -49.1673 H         1 UNK         0.0600 
    215 H215       -3.6479  -24.9290  -50.8134 H         1 UNK         0.3000 
    216 H216       -4.8072  -25.1652  -53.5635 H         1 UNK         0.0600 
    217 H217       -3.2340  -23.3341  -54.1309 H         1 UNK         0.0600 
    218 H218       -2.3385  -24.6918  -53.4680 H         1 UNK         0.0600 
    219 H219       -2.6512  -23.2730  -52.4712 H         1 UNK         0.0600 
    220 H220       -5.8066  -24.3174  -50.6153 H         1 UNK         0.3000 
    221 H221       -6.5912  -21.6135  -50.7270 H         1 UNK         0.0600 
    222 H222       -7.7307  -23.9757  -49.1497 H         1 UNK         0.0600 
    223 H223       -6.4851  -22.8380  -48.6260 H         1 UNK         0.0600 
    224 H224       -8.1335  -22.2896  -48.8443 H         1 UNK         0.0600 
    225 H225       -7.9498  -24.2383  -52.4886 H         1 UNK         0.3000 
    226 H226      -10.5768  -23.1358  -52.9785 H         1 UNK         0.0600 
    227 H227      -10.0596  -25.5351  -53.3628 H         1 UNK         0.0600 
    228 H228      -10.5805  -24.7781  -54.8596 H         1 UNK         0.0600 
    229 H229       -8.8725  -25.1087  -54.5962 H         1 UNK         0.0600 
    230 H230       -7.3430  -22.5878  -54.3125 H         1 UNK         0.3000 
    231 H231       -8.3652  -20.7729  -56.4408 H         1 UNK         0.0600 
    232 H232       -6.0008  -20.7841  -57.2019 H         1 UNK         0.0600 
    233 H233       -6.6336  -22.4211  -57.1185 H         1 UNK         0.0600 
    234 H234       -5.5450  -21.8320  -55.8643 H         1 UNK         0.0600 
    235 H235       -6.3540  -20.9070  -53.5001 H         1 UNK         0.3000 
    236 H236       -5.5958  -19.4267  -52.0305 H         1 UNK         0.0600 
    237 H237       -8.0295  -19.0860  -51.6229 H         1 UNK         0.0600 
    238 H238       -7.1273  -17.6151  -51.3116 H         1 UNK         0.0600 
    239 H239       -8.0584  -17.7726  -52.7964 H         1 UNK         0.0600 
    240 H240       -4.2396  -19.3150  -54.3508 H         1 UNK         0.3000 
    241 H241       -2.6854  -18.2419  -55.4680 H         1 UNK         0.0600 
    242 H242       -5.8908  -17.6195  -56.0215 H         1 UNK         0.3800 
    243 H243       -5.6713  -16.5817  -57.4047 H         1 UNK         0.3800 
    244 H244       -1.7981  -16.0058  -54.8611 H         1 UNK         0.0800 
    245 H245       -3.1192  -15.7354  -53.7724 H         1 UNK         0.0800 
    246 H246        0.2619  -16.0269  -53.7644 H         1 UNK         0.0800 
    247 H247        0.3516  -17.6989  -54.2685 H         1 UNK         0.0800 
@<TRIPOS>BOND
     1    1    2 1    
     2    1  127 1    
     3    1  128 1    
     4    1  129 1    
     5    2    3 2    
     6    2    4 am   BACKBONE|DICT|INTERRES
     7    4    5 1    
     8    4  130 1    
     9    5    6 1    
    10    5   65 1    
    11    5  131 1    
    12    6    7 1    
    13    6  132 1    
    14    6  133 1    
    15    7    8 1    
    16    8    9 1    
    17    8  134 1    
    18    8  135 1    
    19    9   10 ar   
    20    9   14 ar   
    21   10   11 ar   
    22   10  136 1    
    23   11   12 ar   
    24   11  126 1    
    25   12   13 ar   
    26   12  137 1    
    27   13   14 ar   
    28   13   15 1    
    29   14  138 1    
    30   15   16 1    
    31   15  139 1    
    32   15  140 1    
    33   16   17 1    
    34   17   18 1    
    35   17  141 1    
    36   17  142 1    
    37   18   19 1    
    38   18   67 1    
    39   18  143 1    
    40   19   20 am   BACKBONE|DICT|INTERRES
    41   19  144 1    
    42   20   21 2    
    43   20   22 1    
    44   22   23 1    
    45   22   24 1    
    46   22  145 1    
    47   23  146 1    
    48   23  147 1    
    49   23  148 1    
    50   24   25 am   BACKBONE|DICT|INTERRES
    51   24  149 1    
    52   25   26 2    
    53   25   27 1    
    54   27   28 1    
    55   27   29 1    
    56   27  150 1    
    57   28  151 1    
    58   28  152 1    
    59   28  153 1    
    60   29   30 am   BACKBONE|DICT|INTERRES
    61   29  154 1    
    62   30   31 2    
    63   30   32 1    
    64   32   33 1    
    65   32   34 1    
    66   32  155 1    
    67   33  156 1    
    68   33  157 1    
    69   33  158 1    
    70   34   35 am   BACKBONE|DICT|INTERRES
    71   34  159 1    
    72   35   36 2    
    73   35   37 1    
    74   37   38 1    
    75   37   39 1    
    76   37  160 1    
    77   38  161 1    
    78   38  162 1    
    79   38  163 1    
    80   39   40 am   BACKBONE|DICT|INTERRES
    81   39  164 1    
    82   40   41 2    
    83   40   42 1    
    84   42   43 1    
    85   42   44 1    
    86   42  165 1    
    87   43  166 1    
    88   43  167 1    
    89   43  168 1    
    90   44   45 am   BACKBONE|DICT|INTERRES
    91   44  169 1    
    92   45   46 2    
    93   45   47 1    
    94   47   48 1    
    95   47   49 1    
    96   47  170 1    
    97   48  171 1    
    98   48  172 1    
    99   48  173 1    
   100   49   50 am   BACKBONE|DICT|INTERRES
   101   49  174 1    
   102   50   51 2    
   103   50   52 1    
   104   52   53 1    
   105   52   54 1    
   106   52  175 1    
   107   53  176 1    
   108   53  177 1    
   109   53  178 1    
   110   54   55 am   BACKBONE|DICT|INTERRES
   111   54  179 1    
   112   55   56 2    
   113   55   57 1    
   114   57   58 1    
   115   57   59 1    
   116   57  180 1    
   117   58  181 1    
   118   58  182 1    
   119   58  183 1    
   120   59   60 am   BACKBONE|DICT|INTERRES
   121   59  184 1    
   122   60   61 2    
   123   60   62 1    
   124   62   63 1    
   125   62   64 1    
   126   62  185 1    
   127   63  186 1    
   128   63  187 1    
   129   63  188 1    
   130   64   65 am   BACKBONE|DICT|INTERRES
   131   64  189 1    
   132   65   66 2    
   133   67   68 2    
   134   67   69 am   BACKBONE|DICT|INTERRES
   135   69   70 1    
   136   69  190 1    
   137   70   71 1    
   138   70   72 1    
   139   70  191 1    
   140   71  192 1    
   141   71  193 1    
   142   71  194 1    
   143   72   73 2    
   144   72   74 am   BACKBONE|DICT|INTERRES
   145   74   75 1    
   146   74  195 1    
   147   75   76 1    
   148   75   77 1    
   149   75  196 1    
   150   76  197 1    
   151   76  198 1    
   152   76  199 1    
   153   77   78 2    
   154   77   79 am   BACKBONE|DICT|INTERRES
   155   79   80 1    
   156   79  200 1    
   157   80   81 1    
   158   80   82 1    
   159   80  201 1    
   160   81  202 1    
   161   81  203 1    
   162   81  204 1    
   163   82   83 2    
   164   82   84 am   BACKBONE|DICT|INTERRES
   165   84   85 1    
   166   84  205 1    
   167   85   86 1    
   168   85   87 1    
   169   85  206 1    
   170   86  207 1    
   171   86  208 1    
   172   86  209 1    
   173   87   88 2    
   174   87   89 am   BACKBONE|DICT|INTERRES
   175   89   90 1    
   176   89  210 1    
   177   90   91 1    
   178   90   92 1    
   179   90  211 1    
   180   91  212 1    
   181   91  213 1    
   182   91  214 1    
   183   92   93 2    
   184   92   94 am   BACKBONE|DICT|INTERRES
   185   94   95 1    
   186   94  215 1    
   187   95   96 1    
   188   95   97 1    
   189   95  216 1    
   190   96  217 1    
   191   96  218 1    
   192   96  219 1    
   193   97   98 2    
   194   97   99 am   BACKBONE|DICT|INTERRES
   195   99  100 1    
   196   99  220 1    
   197  100  101 1    
   198  100  102 1    
   199  100  221 1    
   200  101  222 1    
   201  101  223 1    
   202  101  224 1    
   203  102  103 2    
   204  102  104 am   BACKBONE|DICT|INTERRES
   205  104  105 1    
   206  104  225 1    
   207  105  106 1    
   208  105  107 1    
   209  105  226 1    
   210  106  227 1    
   211  106  228 1    
   212  106  229 1    
   213  107  108 2    
   214  107  109 am   BACKBONE|DICT|INTERRES
   215  109  110 1    
   216  109  230 1    
   217  110  111 1    
   218  110  112 1    
   219  110  231 1    
   220  111  232 1    
   221  111  233 1    
   222  111  234 1    
   223  112  113 2    
   224  112  114 am   BACKBONE|DICT|INTERRES
   225  114  115 1    
   226  114  235 1    
   227  115  116 1    
   228  115  117 1    
   229  115  236 1    
   230  116  237 1    
   231  116  238 1    
   232  116  239 1    
   233  117  118 2    
   234  117  119 am   BACKBONE|DICT|INTERRES
   235  119  120 1    
   236  119  240 1    
   237  120  121 1    
   238  120  124 1    
   239  120  241 1    
   240  121  122 am   BACKBONE|DICT|INTERRES
   241  121  123 2    
   242  122  242 1    
   243  122  243 1    
   244  124  125 1    
   245  124  244 1    
   246  124  245 1    
   247  125  126 1    
   248  126  246 1    
   249  126  247 1    
@<TRIPOS>SUBSTRUCTURE
     1 UNK         1 GROUP             0       ****    0 ROOT    
