@<TRIPOS>MOLECULE
3R540
247   249    1
SMALL
USER_CHARGES


@<TRIPOS>ATOM
      1 CA         -4.8334  -14.8914  -48.1978 C.3       0 UNK        -0.1800 
      2 C          -3.4102  -14.4427  -48.4944 C.2       0 UNK         0.5000 
      3 O          -3.1789  -13.2607  -48.7497 O.2       0 UNK        -0.5000 
      4 N          -2.4499  -15.3737  -48.4423 N.am      1 UNK        -0.5000 
      5 CA         -1.0219  -15.1627  -48.7210 C.3       1 UNK         0.1400 
      6 C6         -0.3227  -16.4754  -49.1603 C.3       23 UNK        -0.0398 
      7 S7         -1.0635  -17.1978  -50.6665 S.3       23 UNK        -0.2404 
      8 C8          0.3187  -17.1265  -51.8536 C.3       23 UNK        -0.0205 
      9 C9          1.2459  -18.3282  -51.7225 C.ar      23 UNK        -0.0193 
     10 C10         1.0972  -19.4283  -52.5724 C.ar      23 UNK        -0.1150 
     11 C11         1.9351  -20.5413  -52.4503 C.ar      23 UNK        -0.0193 
     12 C12         2.9268  -20.5525  -51.4652 C.ar      23 UNK        -0.1150 
     13 C13         3.0903  -19.4570  -50.6133 C.ar      23 UNK        -0.0193 
     14 C14         2.2600  -18.3420  -50.7610 C.ar      23 UNK        -0.1150 
     15 C15         4.1664  -19.4686  -49.5355 C.3       23 UNK        -0.0205 
     16 S16         3.7610  -20.5706  -48.1389 S.3       23 UNK        -0.2404 
     17 C17         2.1836  -19.8843  -47.5288 C.3       23 UNK        -0.0398 
     18 CA          1.1378  -21.0019  -47.2702 C.3       11 UNK         0.1400 
     19 N           1.0949  -21.3977  -45.8592 N.am      11 UNK        -0.5000 
     20 C           0.3654  -22.4058  -45.3603 C.2       10 UNK         0.5000 
     21 O          -0.2985  -23.1805  -46.0493 O.2       10 UNK        -0.5000 
     22 CA          0.3216  -22.5317  -43.8263 C.3       10 UNK         0.1400 
     23 CB          1.5777  -23.2383  -43.2957 C.3       10 UNK        -0.1800 
     24 N           0.1600  -21.2349  -43.1641 N.am      10 UNK        -0.5000 
     25 C          -0.9175  -20.4477  -43.2990 C.2       9 UNK         0.5000 
     26 O          -1.9147  -20.7656  -43.9452 O.2       9 UNK        -0.5000 
     27 CA         -0.8573  -19.0510  -42.6547 C.3       9 UNK         0.1400 
     28 CB         -1.1957  -19.1112  -41.1587 C.3       9 UNK        -0.1800 
     29 N           0.4372  -18.3976  -42.8398 N.am      9 UNK        -0.5000 
     30 C           0.9518  -18.0442  -44.0258 C.2       8 UNK         0.5000 
     31 O           0.3608  -18.1800  -45.0956 O.2       8 UNK        -0.5000 
     32 CA          2.3897  -17.4994  -44.0171 C.3       8 UNK         0.1400 
     33 CB          2.4174  -16.0104  -43.6486 C.3       8 UNK        -0.1800 
     34 N           3.2508  -18.2509  -43.1045 N.am      8 UNK        -0.5000 
     35 C           3.6279  -19.5226  -43.2986 C.2       7 UNK         0.5000 
     36 O           3.3081  -20.1886  -44.2828 O.2       7 UNK        -0.5000 
     37 CA          4.4664  -20.1686  -42.1812 C.3       7 UNK         0.1400 
     38 CB          5.9451  -19.7755  -42.3147 C.3       7 UNK        -0.1800 
     39 N           3.9856  -19.8113  -40.8454 N.am      7 UNK        -0.5000 
     40 C           2.8063  -20.1999  -40.3403 C.2       6 UNK         0.5000 
     41 O           2.0118  -20.9237  -40.9389 O.2       6 UNK        -0.5000 
     42 CA          2.4309  -19.6465  -38.9533 C.3       6 UNK         0.1400 
     43 CB          3.0420  -20.5127  -37.8420 C.3       6 UNK        -0.1800 
     44 N           2.8239  -18.2478  -38.7544 N.am      6 UNK        -0.5000 
     45 C           2.3783  -17.2227  -39.4914 C.2       5 UNK         0.5000 
     46 O           1.6301  -17.3514  -40.4648 O.2       5 UNK        -0.5000 
     47 CA          2.8865  -15.8221  -39.1089 C.3       5 UNK         0.1400 
     48 CB          4.2208  -15.5321  -39.8133 C.3       5 UNK        -0.1800 
     49 N           1.9128  -14.8083  -39.5081 N.am      5 UNK        -0.5000 
     50 C           0.7526  -14.5792  -38.8772 C.2       4 UNK         0.5000 
     51 O           0.4510  -15.0614  -37.7851 O.2       4 UNK        -0.5000 
     52 CA         -0.2623  -13.7268  -39.6458 C.3       4 UNK         0.1400 
     53 CB          0.2237  -12.2691  -39.7834 C.3       4 UNK        -0.1800 
     54 N          -0.4694  -14.3574  -40.9478 N.am      4 UNK        -0.5000 
     55 C          -1.3813  -14.0165  -41.8621 C.2       3 UNK         0.5000 
     56 O          -2.1992  -13.1041  -41.7245 O.2       3 UNK        -0.5000 
     57 CA         -1.3837  -14.8555  -43.1541 C.3       3 UNK         0.1400 
     58 CB         -2.6593  -15.7058  -43.2494 C.3       3 UNK        -0.1800 
     59 N          -1.2643  -14.0354  -44.3594 N.am      3 UNK        -0.5000 
     60 C          -0.2515  -13.2027  -44.6420 C.2       2 UNK         0.5000 
     61 O           0.7109  -13.0156  -43.8952 O.2       2 UNK        -0.5000 
     62 CA         -0.3290  -12.4778  -46.0037 C.3       2 UNK         0.1400 
     63 CB          1.0040  -11.8132  -46.4071 C.3       2 UNK        -0.1800 
     64 N          -0.8228  -13.3339  -47.0904 N.am      2 UNK        -0.5000 
     65 C          -0.2968  -14.4869  -47.5309 C.2       1 UNK         0.5000 
     66 O           0.7015  -15.0134  -47.0375 O.2       1 UNK        -0.5000 
     67 C          -0.2586  -20.6048  -47.7886 C.2       11 UNK         0.5000 
     68 O          -0.6892  -21.1280  -48.8137 O.2       11 UNK        -0.5000 
     69 N          -0.9612  -19.7336  -47.0506 N.am      12 UNK        -0.5000 
     70 CA         -2.3221  -19.2946  -47.3597 C.3       12 UNK         0.1400 
     71 CB         -2.7516  -18.2044  -46.3677 C.3       12 UNK        -0.1800 
     72 C          -3.3430  -20.4451  -47.3814 C.2       12 UNK         0.5000 
     73 O          -4.1966  -20.4691  -48.2673 O.2       12 UNK        -0.5000 
     74 N          -3.2227  -21.3871  -46.4365 N.am      13 UNK        -0.5000 
     75 CA         -4.0364  -22.5999  -46.3676 C.3       13 UNK         0.1400 
     76 CB         -3.7874  -23.3199  -45.0337 C.3       13 UNK        -0.1800 
     77 C          -3.7899  -23.5414  -47.5599 C.2       13 UNK         0.5000 
     78 O          -4.7540  -23.9993  -48.1737 O.2       13 UNK        -0.5000 
     79 N          -2.5126  -23.7791  -47.8935 N.am      14 UNK        -0.5000 
     80 CA         -2.0864  -24.5871  -49.0408 C.3       14 UNK         0.1400 
     81 CB         -0.5639  -24.7869  -48.9894 C.3       14 UNK        -0.1800 
     82 C          -2.5036  -23.9780  -50.3923 C.2       14 UNK         0.5000 
     83 O          -2.8974  -24.7100  -51.3011 O.2       14 UNK        -0.5000 
     84 N          -2.4354  -22.6454  -50.4857 N.am      15 UNK        -0.5000 
     85 CA         -2.8221  -21.8668  -51.6571 C.3       15 UNK         0.1400 
     86 CB         -2.1126  -20.5111  -51.5930 C.3       15 UNK        -0.1800 
     87 C          -4.3398  -21.6608  -51.7959 C.2       15 UNK         0.5000 
     88 O          -4.7716  -21.1483  -52.8310 O.2       15 UNK        -0.5000 
     89 N          -5.1089  -22.0111  -50.7547 N.am      16 UNK        -0.5000 
     90 CA         -6.5496  -21.7916  -50.5936 C.3       16 UNK         0.1400 
     91 CB         -7.3483  -22.6746  -51.5733 C.3       16 UNK        -0.1800 
     92 C          -6.9096  -20.2960  -50.6995 C.2       16 UNK         0.5000 
     93 O          -7.7770  -19.9180  -51.4860 O.2       16 UNK        -0.5000 
     94 N          -6.1690  -19.4624  -49.9548 N.am      17 UNK        -0.5000 
     95 CA         -6.2029  -17.9948  -49.9742 C.3       17 UNK         0.1400 
     96 CB         -7.5318  -17.4679  -49.3950 C.3       17 UNK        -0.1800 
     97 C          -5.8685  -17.4091  -51.3647 C.2       17 UNK         0.5000 
     98 O          -6.4452  -16.4002  -51.7716 O.2       17 UNK        -0.5000 
     99 N          -4.9466  -18.0862  -52.0644 N.am      18 UNK        -0.5000 
    100 CA        -4.4703  -17.8366  -53.4283 C.3       18 UNK         0.1400 
    101 CB        -3.8763  -16.4202  -53.5736 C.3       18 UNK        -0.1800 
    102 C         -5.4913  -18.1757  -54.5360 C.2       18 UNK         0.5000 
    103 O         -5.2368  -17.8493  -55.6961 O.2       18 UNK        -0.5000 
    104 N         -6.6013  -18.8503  -54.1962 N.am      19 UNK        -0.5000 
    105 CA        -7.5958  -19.3149  -55.1666 C.3       19 UNK         0.1400 
    106 CB        -8.9327  -19.5855  -54.4611 C.3       19 UNK        -0.1800 
    107 C         -7.1273  -20.5678  -55.9288 C.2       19 UNK         0.5000 
    108 O         -7.4140  -20.6893  -57.1205 O.2       19 UNK        -0.5000 
    109 N         -6.4135  -21.4678  -55.2379 N.am      20 UNK        -0.5000 
    110 CA        -5.8194  -22.6726  -55.8218 C.3       20 UNK         0.1400 
    111 CB        -5.8982  -23.8264  -54.8093 C.3       20 UNK        -0.1800 
    112 C         -4.3604  -22.4345  -56.2441 C.2       20 UNK         0.5000 
    113 O         -3.8744  -23.1185  -57.1460 O.2       20 UNK        -0.5000 
    114 N         -3.6829  -21.4906  -55.5693 N.am      21 UNK        -0.5000 
    115 CA        -2.3009  -21.0475  -55.8028 C.3       21 UNK         0.1400 
    116 CB        -2.2112  -20.2546  -57.1217 C.3       21 UNK        -0.1800 
    117 C         -1.2639  -22.1901  -55.7153 C.2       21 UNK         0.5000 
    118 O         -0.2483  -22.1647  -56.4115 O.2       21 UNK        -0.5000 
    119 N         -1.5620  -23.1748  -54.8584 N.am      22 UNK        -0.5000 
    120 CA        -0.8029  -24.4127  -54.6179 C.3       22 UNK         0.1400 
    121 C         -0.8701  -25.4411  -55.7894 C.2       22 UNK         0.5000 
    122 N         -1.7487  -25.2802  -56.7736 N.am      22 UNK        -0.7600 
    123 O         -0.1347  -26.4247  -55.7948 O.2       22 UNK        -0.5000 
    124 C124        0.6511  -24.1774  -54.1143 C.3       23 UNK        -0.0398 
    125 S125        0.7585  -23.0421  -52.6843 S.3       23 UNK        -0.2404 
    126 C126        1.7843  -21.7196  -53.3979 C.3       23 UNK        -0.0205 
    127 H127       -5.4216  -14.8961  -49.1154 H         1 UNK         0.0600 
    128 H128       -5.3048  -14.2055  -47.4940 H         1 UNK         0.0600 
    129 H129       -4.8618  -15.8896  -47.7622 H         1 UNK         0.0600 
    130 H130       -2.7034  -16.3240  -48.2234 H         1 UNK         0.3000 
    131 H131       -0.9419  -14.4648  -49.5575 H         1 UNK         0.0600 
    132 H132        0.7330  -16.2802  -49.3426 H         1 UNK         0.0800 
    133 H133       -0.3561  -17.2192  -48.3634 H         1 UNK         0.0800 
    134 H134       -0.0978  -17.0909  -52.8614 H         1 UNK         0.0800 
    135 H135        0.8777  -16.1981  -51.7287 H         1 UNK         0.0800 
    136 H136        0.3232  -19.4220  -53.3267 H         1 UNK         0.1150 
    137 H137        3.5706  -21.4146  -51.3598 H         1 UNK         0.1150 
    138 H138        2.3998  -17.4899  -50.1135 H         1 UNK         0.1150 
    139 H139        5.1103  -19.7924  -49.9761 H         1 UNK         0.0800 
    140 H140        4.3405  -18.4617  -49.1529 H         1 UNK         0.0800 
    141 H141        1.8156  -19.1460  -48.2399 H         1 UNK         0.0800 
    142 H142        2.3838  -19.3142  -46.6230 H         1 UNK         0.0800 
    143 H143        1.4194  -21.8918  -47.8376 H         1 UNK         0.0600 
    144 H144        1.6590  -20.8461  -45.2207 H         1 UNK         0.3000 
    145 H145       -0.5440  -23.1458  -43.5697 H         1 UNK         0.0600 
    146 H146        1.5107  -23.4045  -42.2205 H         1 UNK         0.0600 
    147 H147        1.7061  -24.2129  -43.7682 H         1 UNK         0.0600 
    148 H148        2.4803  -22.6583  -43.4881 H         1 UNK         0.0600 
    149 H149        0.9182  -20.9342  -42.5589 H         1 UNK         0.3000 
    150 H150       -1.6113  -18.4349  -43.1460 H         1 UNK         0.0600 
    151 H151       -2.1775  -19.5583  -40.9987 H         1 UNK         0.0600 
    152 H152       -1.2153  -18.1139  -40.7187 H         1 UNK         0.0600 
    153 H153       -0.4692  -19.7062  -40.6055 H         1 UNK         0.0600 
    154 H154        0.9775  -18.2119  -41.9984 H         1 UNK         0.3000 
    155 H155        2.7939  -17.5997  -45.0261 H         1 UNK         0.0600 
    156 H156        2.0012  -15.8230  -42.6591 H         1 UNK         0.0600 
    157 H157        3.4337  -15.6169  -43.6658 H         1 UNK         0.0600 
    158 H158        1.8364  -15.4317  -44.3669 H         1 UNK         0.0600 
    159 H159        3.5117  -17.7945  -42.2439 H         1 UNK         0.3000 
    160 H160        4.3902  -21.2524  -42.2921 H         1 UNK         0.0600 
    161 H161        6.0925  -18.7026  -42.1849 H         1 UNK         0.0600 
    162 H162        6.3320  -20.0435  -43.2989 H         1 UNK         0.0600 
    163 H163        6.5579  -20.2907  -41.5748 H         1 UNK         0.0600 
    164 H164        4.5781  -19.2155  -40.2864 H         1 UNK         0.3000 
    165 H165        1.3439  -19.6987  -38.8641 H         1 UNK         0.0600 
    166 H166        2.7031  -20.1886  -36.8578 H         1 UNK         0.0600 
    167 H167        2.7499  -21.5575  -37.9564 H         1 UNK         0.0600 
    168 H168        4.1319  -20.4733  -37.8523 H         1 UNK         0.0600 
    169 H169        3.4464  -18.0619  -37.9812 H         1 UNK         0.3000 
    170 H170        3.0333  -15.7745  -38.0279 H         1 UNK         0.0600 
    171 H171        4.1235  -15.5740  -40.8990 H         1 UNK         0.0600 
    172 H172        4.5974  -14.5436  -39.5497 H         1 UNK         0.0600 
    173 H173        4.9836  -16.2558  -39.5235 H         1 UNK         0.0600 
    174 H174        2.0731  -14.3640  -40.3999 H         1 UNK         0.3000 
    175 H175       -1.2056  -13.7394  -39.0960 H         1 UNK         0.0600 
    176 H176       -0.5499  -11.6281  -40.2052 H         1 UNK         0.0600 
    177 H177        1.1026  -12.1931  -40.4245 H         1 UNK         0.0600 
    178 H178        0.4874  -11.8524  -38.8105 H         1 UNK         0.0600 
    179 H179        0.1221  -15.1593  -41.1229 H         1 UNK         0.3000 
    180 H180       -0.5284  -15.5324  -43.1367 H         1 UNK         0.0600 
    181 H181       -3.5529  -15.0845  -43.3202 H         1 UNK         0.0600 
    182 H182       -2.7715  -16.3420  -42.3706 H         1 UNK         0.0600 
    183 H183       -2.6341  -16.3568  -44.1221 H         1 UNK         0.0600 
    184 H184       -2.0157  -14.1098  -45.0279 H         1 UNK         0.3000 
    185 H185       -1.0668  -11.6839  -45.8804 H         1 UNK         0.0600 
    186 H186        1.3159  -11.0782  -45.6641 H         1 UNK         0.0600 
    187 H187        1.8079  -12.5439  -46.5016 H         1 UNK         0.0600 
    188 H188        0.9119  -11.2906  -47.3591 H         1 UNK         0.0600 
    189 H189       -1.6600  -13.0090  -47.5671 H         1 UNK         0.3000 
    190 H190       -0.5234  -19.3168  -46.2313 H         1 UNK         0.3000 
    191 H191       -2.3046  -18.8589  -48.3601 H         1 UNK         0.0600 
    192 H192       -2.0524  -17.3683  -46.3681 H         1 UNK         0.0600 
    193 H193       -3.7387  -17.8138  -46.6164 H         1 UNK         0.0600 
    194 H194       -2.8024  -18.5901  -45.3497 H         1 UNK         0.0600 
    195 H195       -2.5350  -21.2560  -45.6997 H         1 UNK         0.3000 
    196 H196       -5.0855  -22.2978  -46.3952 H         1 UNK         0.0600 
    197 H197       -4.3991  -24.2194  -44.9550 H         1 UNK         0.0600 
    198 H198       -4.0399  -22.6795  -44.1884 H         1 UNK         0.0600 
    199 H199       -2.7453  -23.6203  -44.9240 H         1 UNK         0.0600 
    200 H200       -1.7730  -23.3804  -47.3211 H         1 UNK         0.3000 
    201 H201       -2.5630  -25.5657  -48.9563 H         1 UNK         0.0600 
    202 H202       -0.2626  -25.2888  -48.0698 H         1 UNK         0.0600 
    203 H203       -0.0319  -23.8362  -49.0409 H         1 UNK         0.0600 
    204 H204       -0.2211  -25.3996  -49.8241 H         1 UNK         0.0600 
    205 H205       -2.0100  -22.1253  -49.7212 H         1 UNK         0.3000 
    206 H206       -2.4765  -22.3919  -52.5444 H         1 UNK         0.0600 
    207 H207       -1.0439  -20.6429  -51.4321 H         1 UNK         0.0600 
    208 H208       -2.2297  -19.9537  -52.5202 H         1 UNK         0.0600 
    209 H209       -2.4940  -19.8961  -50.7772 H         1 UNK         0.0600 
    210 H210       -4.6409  -22.3985  -49.9454 H         1 UNK         0.3000 
    211 H211       -6.7998  -22.1045  -49.5789 H         1 UNK         0.0600 
    212 H212       -7.2094  -22.3620  -52.6073 H         1 UNK         0.0600 
    213 H213       -8.4164  -22.6218  -51.3603 H         1 UNK         0.0600 
    214 H214       -7.0511  -23.7204  -51.4952 H         1 UNK         0.0600 
    215 H215       -5.4617  -19.8759  -49.3458 H         1 UNK         0.3000 
    216 H216       -5.4009  -17.6705  -49.3109 H         1 UNK         0.0600 
    217 H217       -7.5103  -16.3831  -49.2868 H         1 UNK         0.0600 
    218 H218       -7.7240  -17.8873  -48.4076 H         1 UNK         0.0600 
    219 H219       -8.3791  -17.7145  -50.0354 H         1 UNK         0.0600 
    220 H220       -4.5864  -18.9286  -51.6411 H         1 UNK         0.3000 
    221 H221       -3.6500  -18.5362  -53.5824 H         1 UNK         0.0600 
    222 H222       -4.6468  -15.6499  -53.5431 H         1 UNK         0.0600 
    223 H223       -3.1578  -16.2096  -52.7815 H         1 UNK         0.0600 
    224 H224       -3.3498  -16.3133  -54.5226 H         1 UNK         0.0600 
    225 H225       -6.7602  -19.0969  -53.2263 H         1 UNK         0.3000 
    226 H226       -7.7628  -18.5198  -55.8966 H         1 UNK         0.0600 
    227 H227       -9.2536  -18.7254  -53.8732 H         1 UNK         0.0600 
    228 H228       -9.7178  -19.7957  -55.1883 H         1 UNK         0.0600 
    229 H229       -8.8715  -20.4460  -53.7944 H         1 UNK         0.0600 
    230 H230       -6.1810  -21.2727  -54.2699 H         1 UNK         0.3000 
    231 H231       -6.3776  -22.9714  -56.7115 H         1 UNK         0.0600 
    232 H232       -5.3359  -23.6132  -53.9003 H         1 UNK         0.0600 
    233 H233       -5.4926  -24.7453  -55.2346 H         1 UNK         0.0600 
    234 H234       -6.9306  -24.0301  -54.5253 H         1 UNK         0.0600 
    235 H235       -4.1630  -21.0481  -54.7946 H         1 UNK         0.3000 
    236 H236       -2.0583  -20.3609  -54.9909 H         1 UNK         0.0600 
    237 H237       -2.9389  -19.4430  -57.1419 H         1 UNK         0.0600 
    238 H238       -1.2244  -19.8071  -57.2454 H         1 UNK         0.0600 
    239 H239       -2.3943  -20.8911  -57.9880 H         1 UNK         0.0600 
    240 H240       -2.4429  -23.1152  -54.3725 H         1 UNK         0.3000 
    241 H241       -1.3350  -24.9045  -53.8028 H         1 UNK         0.0600 
    242 H242       -2.3704  -24.4798  -56.8030 H         1 UNK         0.3800 
    243 H243       -1.7845  -25.9608  -57.5157 H         1 UNK         0.3800 
    244 H244        1.0959  -25.1241  -53.8039 H         1 UNK         0.0800 
    245 H245        1.2778  -23.8109  -54.9283 H         1 UNK         0.0800 
    246 H246        1.3455  -21.3830  -54.3376 H         1 UNK         0.0800 
    247 H247        2.7678  -22.1215  -53.6461 H         1 UNK         0.0800 
@<TRIPOS>BOND
     1    1    2 1    
     2    1  127 1    
     3    1  128 1    
     4    1  129 1    
     5    2    3 2    
     6    2    4 am   BACKBONE|DICT|INTERRES
     7    4    5 1    
     8    4  130 1    
     9    5    6 1    
    10    5   65 1    
    11    5  131 1    
    12    6    7 1    
    13    6  132 1    
    14    6  133 1    
    15    7    8 1    
    16    8    9 1    
    17    8  134 1    
    18    8  135 1    
    19    9   10 ar   
    20    9   14 ar   
    21   10   11 ar   
    22   10  136 1    
    23   11   12 ar   
    24   11  126 1    
    25   12   13 ar   
    26   12  137 1    
    27   13   14 ar   
    28   13   15 1    
    29   14  138 1    
    30   15   16 1    
    31   15  139 1    
    32   15  140 1    
    33   16   17 1    
    34   17   18 1    
    35   17  141 1    
    36   17  142 1    
    37   18   19 1    
    38   18   67 1    
    39   18  143 1    
    40   19   20 am   BACKBONE|DICT|INTERRES
    41   19  144 1    
    42   20   21 2    
    43   20   22 1    
    44   22   23 1    
    45   22   24 1    
    46   22  145 1    
    47   23  146 1    
    48   23  147 1    
    49   23  148 1    
    50   24   25 am   BACKBONE|DICT|INTERRES
    51   24  149 1    
    52   25   26 2    
    53   25   27 1    
    54   27   28 1    
    55   27   29 1    
    56   27  150 1    
    57   28  151 1    
    58   28  152 1    
    59   28  153 1    
    60   29   30 am   BACKBONE|DICT|INTERRES
    61   29  154 1    
    62   30   31 2    
    63   30   32 1    
    64   32   33 1    
    65   32   34 1    
    66   32  155 1    
    67   33  156 1    
    68   33  157 1    
    69   33  158 1    
    70   34   35 am   BACKBONE|DICT|INTERRES
    71   34  159 1    
    72   35   36 2    
    73   35   37 1    
    74   37   38 1    
    75   37   39 1    
    76   37  160 1    
    77   38  161 1    
    78   38  162 1    
    79   38  163 1    
    80   39   40 am   BACKBONE|DICT|INTERRES
    81   39  164 1    
    82   40   41 2    
    83   40   42 1    
    84   42   43 1    
    85   42   44 1    
    86   42  165 1    
    87   43  166 1    
    88   43  167 1    
    89   43  168 1    
    90   44   45 am   BACKBONE|DICT|INTERRES
    91   44  169 1    
    92   45   46 2    
    93   45   47 1    
    94   47   48 1    
    95   47   49 1    
    96   47  170 1    
    97   48  171 1    
    98   48  172 1    
    99   48  173 1    
   100   49   50 am   BACKBONE|DICT|INTERRES
   101   49  174 1    
   102   50   51 2    
   103   50   52 1    
   104   52   53 1    
   105   52   54 1    
   106   52  175 1    
   107   53  176 1    
   108   53  177 1    
   109   53  178 1    
   110   54   55 am   BACKBONE|DICT|INTERRES
   111   54  179 1    
   112   55   56 2    
   113   55   57 1    
   114   57   58 1    
   115   57   59 1    
   116   57  180 1    
   117   58  181 1    
   118   58  182 1    
   119   58  183 1    
   120   59   60 am   BACKBONE|DICT|INTERRES
   121   59  184 1    
   122   60   61 2    
   123   60   62 1    
   124   62   63 1    
   125   62   64 1    
   126   62  185 1    
   127   63  186 1    
   128   63  187 1    
   129   63  188 1    
   130   64   65 am   BACKBONE|DICT|INTERRES
   131   64  189 1    
   132   65   66 2    
   133   67   68 2    
   134   67   69 am   BACKBONE|DICT|INTERRES
   135   69   70 1    
   136   69  190 1    
   137   70   71 1    
   138   70   72 1    
   139   70  191 1    
   140   71  192 1    
   141   71  193 1    
   142   71  194 1    
   143   72   73 2    
   144   72   74 am   BACKBONE|DICT|INTERRES
   145   74   75 1    
   146   74  195 1    
   147   75   76 1    
   148   75   77 1    
   149   75  196 1    
   150   76  197 1    
   151   76  198 1    
   152   76  199 1    
   153   77   78 2    
   154   77   79 am   BACKBONE|DICT|INTERRES
   155   79   80 1    
   156   79  200 1    
   157   80   81 1    
   158   80   82 1    
   159   80  201 1    
   160   81  202 1    
   161   81  203 1    
   162   81  204 1    
   163   82   83 2    
   164   82   84 am   BACKBONE|DICT|INTERRES
   165   84   85 1    
   166   84  205 1    
   167   85   86 1    
   168   85   87 1    
   169   85  206 1    
   170   86  207 1    
   171   86  208 1    
   172   86  209 1    
   173   87   88 2    
   174   87   89 am   BACKBONE|DICT|INTERRES
   175   89   90 1    
   176   89  210 1    
   177   90   91 1    
   178   90   92 1    
   179   90  211 1    
   180   91  212 1    
   181   91  213 1    
   182   91  214 1    
   183   92   93 2    
   184   92   94 am   BACKBONE|DICT|INTERRES
   185   94   95 1    
   186   94  215 1    
   187   95   96 1    
   188   95   97 1    
   189   95  216 1    
   190   96  217 1    
   191   96  218 1    
   192   96  219 1    
   193   97   98 2    
   194   97   99 am   BACKBONE|DICT|INTERRES
   195   99  100 1    
   196   99  220 1    
   197  100  101 1    
   198  100  102 1    
   199  100  221 1    
   200  101  222 1    
   201  101  223 1    
   202  101  224 1    
   203  102  103 2    
   204  102  104 am   BACKBONE|DICT|INTERRES
   205  104  105 1    
   206  104  225 1    
   207  105  106 1    
   208  105  107 1    
   209  105  226 1    
   210  106  227 1    
   211  106  228 1    
   212  106  229 1    
   213  107  108 2    
   214  107  109 am   BACKBONE|DICT|INTERRES
   215  109  110 1    
   216  109  230 1    
   217  110  111 1    
   218  110  112 1    
   219  110  231 1    
   220  111  232 1    
   221  111  233 1    
   222  111  234 1    
   223  112  113 2    
   224  112  114 am   BACKBONE|DICT|INTERRES
   225  114  115 1    
   226  114  235 1    
   227  115  116 1    
   228  115  117 1    
   229  115  236 1    
   230  116  237 1    
   231  116  238 1    
   232  116  239 1    
   233  117  118 2    
   234  117  119 am   BACKBONE|DICT|INTERRES
   235  119  120 1    
   236  119  240 1    
   237  120  121 1    
   238  120  124 1    
   239  120  241 1    
   240  121  122 am   BACKBONE|DICT|INTERRES
   241  121  123 2    
   242  122  242 1    
   243  122  243 1    
   244  124  125 1    
   245  124  244 1    
   246  124  245 1    
   247  125  126 1    
   248  126  246 1    
   249  126  247 1    
@<TRIPOS>SUBSTRUCTURE
     1 UNK         1 GROUP             0       ****    0 ROOT    
