@<TRIPOS>MOLECULE
3R540
247   249    1
SMALL
USER_CHARGES


@<TRIPOS>ATOM
      1 CA         -0.9601  -11.7679  -52.3068 C.3       0 UNK        -0.1800 
      2 C          -0.0701  -11.3459  -51.1492 C.2       0 UNK         0.5000 
      3 O           0.0822  -10.1507  -50.8963 O.2       0 UNK        -0.5000 
      4 N           0.5211  -12.3265  -50.4546 N.am      1 UNK        -0.5000 
      5 CA          1.3886  -12.1259  -49.2863 C.3       1 UNK         0.1400 
      6 C6          2.1798  -13.3898  -48.8566 C.3       23 UNK        -0.0398 
      7 S7          3.0790  -14.1490  -50.2540 S.3       23 UNK        -0.2404 
      8 C8          2.5264  -15.8863  -50.1934 C.3       23 UNK        -0.0205 
      9 C9          1.0149  -16.0520  -50.2977 C.ar      23 UNK        -0.0193 
     10 C10         0.3159  -15.5836  -51.4153 C.ar      23 UNK        -0.1150 
     11 C11        -1.0690  -15.7571  -51.5087 C.ar      23 UNK        -0.0193 
     12 C12        -1.7546  -16.4044  -50.4760 C.ar      23 UNK        -0.1150 
     13 C13        -1.0625  -16.9043  -49.3705 C.ar      23 UNK        -0.0193 
     14 C14         0.3182  -16.7164  -49.2845 C.ar      23 UNK        -0.1150 
     15 C15        -1.7870  -17.6910  -48.2902 C.3       23 UNK        -0.0205 
     16 S16        -1.5943  -19.4716  -48.5969 S.3       23 UNK        -0.2404 
     17 C17        -2.4945  -20.2190  -47.2006 C.3       23 UNK        -0.0398 
     18 CA         -1.9145  -21.6166  -46.8767 C.3       11 UNK         0.1400 
     19 N          -0.6266  -21.5528  -46.1771 N.am      11 UNK        -0.5000 
     20 C           0.1912  -22.6044  -46.0231 C.2       10 UNK         0.5000 
     21 O          -0.0489  -23.7243  -46.4727 O.2       10 UNK        -0.5000 
     22 CA          1.4642  -22.3896  -45.1860 C.3       10 UNK         0.1400 
     23 CB          2.5255  -21.6214  -45.9875 C.3       10 UNK        -0.1800 
     24 N           1.1956  -21.7012  -43.9237 N.am      10 UNK        -0.5000 
     25 C           0.4097  -22.1788  -42.9477 C.2       9 UNK         0.5000 
     26 O          -0.1301  -23.2836  -42.9832 O.2       9 UNK        -0.5000 
     27 CA          0.1296  -21.2444  -41.7570 C.3       9 UNK         0.1400 
     28 CB          1.2720  -21.2953  -40.7322 C.3       9 UNK        -0.1800 
     29 N          -0.1028  -19.8608  -42.1706 N.am      9 UNK        -0.5000 
     30 C          -1.1018  -19.4602  -42.9711 C.2       8 UNK         0.5000 
     31 O          -1.9637  -20.2077  -43.4302 O.2       8 UNK        -0.5000 
     32 CA         -1.1046  -17.9747  -43.3582 C.3       8 UNK         0.1400 
     33 CB         -1.6517  -17.1301  -42.1935 C.3       8 UNK        -0.1800 
     34 N           0.2394  -17.5306  -43.7380 N.am      8 UNK        -0.5000 
     35 C           0.8801  -17.9495  -44.8428 C.2       7 UNK         0.5000 
     36 O           0.3702  -18.6939  -45.6799 O.2       7 UNK        -0.5000 
     37 CA          2.3548  -17.5295  -45.0080 C.3       7 UNK         0.1400 
     38 CB          2.4754  -16.1960  -45.7547 C.3       7 UNK        -0.1800 
     39 N           3.0520  -17.4273  -43.7264 N.am      7 UNK        -0.5000 
     40 C           3.3708  -18.4819  -42.9625 C.2       6 UNK         0.5000 
     41 O           3.1621  -19.6475  -43.2955 O.2       6 UNK        -0.5000 
     42 CA          3.9711  -18.1888  -41.5734 C.3       6 UNK         0.1400 
     43 CB          5.5042  -18.1494  -41.6464 C.3       6 UNK        -0.1800 
     44 N           3.4841  -16.9396  -40.9850 N.am      6 UNK        -0.5000 
     45 C           2.2015  -16.6665  -40.7102 C.2       5 UNK         0.5000 
     46 O           1.2887  -17.4762  -40.8738 O.2       5 UNK        -0.5000 
     47 CA          1.8720  -15.2419  -40.2215 C.3       5 UNK         0.1400 
     48 CB          3.0288  -14.5845  -39.4379 C.3       5 UNK        -0.1800 
     49 N           1.4266  -14.3567  -41.3064 N.am      5 UNK        -0.5000 
     50 C           2.0755  -14.0539  -42.4406 C.2       4 UNK         0.5000 
     51 O           3.1286  -14.5863  -42.7966 O.2       4 UNK        -0.5000 
     52 CA          1.4119  -12.9906  -43.3358 C.3       4 UNK         0.1400 
     53 CB          2.3667  -12.4296  -44.4059 C.3       4 UNK        -0.1800 
     54 N           0.2301  -13.5322  -44.0000 N.am      4 UNK        -0.5000 
     55 C          -0.9988  -13.5992  -43.4781 C.2       3 UNK         0.5000 
     56 O          -1.2627  -13.2221  -42.3350 O.2       3 UNK        -0.5000 
     57 CA         -2.1067  -14.1793  -44.3898 C.3       3 UNK         0.1400 
     58 CB         -3.5183  -13.9773  -43.8118 C.3       3 UNK        -0.1800 
     59 N          -2.0624  -13.6187  -45.7426 N.am      3 UNK        -0.5000 
     60 C          -1.2179  -14.0095  -46.7056 C.2       2 UNK         0.5000 
     61 O          -0.3855  -14.9006  -46.5527 O.2       2 UNK        -0.5000 
     62 CA         -1.2136  -13.1913  -47.9999 C.3       2 UNK         0.1400 
     63 CB         -2.6279  -12.9335  -48.5482 C.3       2 UNK        -0.1800 
     64 N          -0.5541  -11.9218  -47.6902 N.am      2 UNK        -0.5000 
     65 C           0.6470  -11.4756  -48.0924 C.2       1 UNK         0.5000 
     66 O           1.1642  -10.5015  -47.5482 O.2       1 UNK        -0.5000 
     67 C          -2.9377  -22.5145  -46.1527 C.2       11 UNK         0.5000 
     68 O          -3.6690  -23.2428  -46.8251 O.2       11 UNK        -0.5000 
     69 N          -2.9475  -22.4944  -44.8128 N.am      12 UNK        -0.5000 
     70 CA         -3.7616  -23.3818  -43.9813 C.3       12 UNK         0.1400 
     71 CB         -3.6989  -22.9302  -42.5147 C.3       12 UNK        -0.1800 
     72 C          -3.3514  -24.8590  -44.1252 C.2       12 UNK         0.5000 
     73 O          -4.2197  -25.7090  -44.3233 O.2       12 UNK        -0.5000 
     74 N          -2.0395  -25.1346  -44.0781 N.am      13 UNK        -0.5000 
     75 CA         -1.4550  -26.4642  -44.2804 C.3       13 UNK         0.1400 
     76 CB          0.0481  -26.4181  -43.9676 C.3       13 UNK        -0.1800 
     77 C          -1.6987  -27.0214  -45.6960 C.2       13 UNK         0.5000 
     78 O          -1.9297  -28.2213  -45.8476 O.2       13 UNK        -0.5000 
     79 N          -1.6888  -26.1328  -46.6979 N.am      14 UNK        -0.5000 
     80 CA         -2.0278  -26.4237  -48.0914 C.3       14 UNK         0.1400 
     81 CB         -1.4277  -25.3257  -48.9855 C.3       14 UNK        -0.1800 
     82 C          -3.5441  -26.5547  -48.3483 C.2       14 UNK         0.5000 
     83 O          -3.9280  -26.8088  -49.4892 O.2       14 UNK        -0.5000 
     84 N          -4.3837  -26.3444  -47.3218 N.am      15 UNK        -0.5000 
     85 CA         -5.8510  -26.3726  -47.3603 C.3       15 UNK         0.1400 
     86 CB         -6.3597  -27.8110  -47.5888 C.3       15 UNK        -0.1800 
     87 C          -6.4396  -25.3548  -48.3614 C.2       15 UNK         0.5000 
     88 O          -7.3971  -25.6615  -49.0733 O.2       15 UNK        -0.5000 
     89 N          -5.8203  -24.1666  -48.4073 N.am      16 UNK        -0.5000 
     90 CA         -6.1050  -23.0278  -49.2830 C.3       16 UNK         0.1400 
     91 CB         -7.5408  -22.5023  -49.0797 C.3       16 UNK        -0.1800 
     92 C          -5.7650  -23.2541  -50.7715 C.2       16 UNK         0.5000 
     93 O          -6.0886  -22.3917  -51.5880 O.2       16 UNK        -0.5000 
     94 N          -5.0745  -24.3533  -51.1180 N.am      17 UNK        -0.5000 
     95 CA         -4.6021  -24.6128  -52.4832 C.3       17 UNK         0.1400 
     96 CB         -4.0869  -26.0536  -52.6032 C.3       17 UNK        -0.1800 
     97 C          -3.5178  -23.6113  -52.9185 C.2       17 UNK         0.5000 
     98 O          -3.5489  -23.1289  -54.0501 O.2       17 UNK        -0.5000 
     99 N          -2.6186  -23.2598  -51.9879 N.am      18 UNK        -0.5000 
    100 CA        -1.5867  -22.2372  -52.1765 C.3       18 UNK         0.1400 
    101 CB        -0.6198  -22.2634  -50.9849 C.3       18 UNK        -0.1800 
    102 C         -2.1750  -20.8270  -52.3799 C.2       18 UNK         0.5000 
    103 O         -1.6295  -20.0493  -53.1613 O.2       18 UNK        -0.5000 
    104 N         -3.3100  -20.5541  -51.7195 N.am      19 UNK        -0.5000 
    105 CA        -4.0694  -19.3086  -51.8361 C.3       19 UNK         0.1400 
    106 CB        -5.0082  -19.1697  -50.6269 C.3       19 UNK        -0.1800 
    107 C         -4.8494  -19.1868  -53.1619 C.2       19 UNK         0.5000 
    108 O         -5.2828  -18.0859  -53.5021 O.2       19 UNK        -0.5000 
    109 N         -5.0125  -20.2991  -53.8904 N.am      20 UNK        -0.5000 
    110 CA        -5.5086  -20.3155  -55.2641 C.3       20 UNK         0.1400 
    111 CB        -6.3385  -21.5876  -55.4995 C.3       20 UNK        -0.1800 
    112 C         -4.3332  -20.2257  -56.2524 C.2       20 UNK         0.5000 
    113 O         -4.3830  -19.4253  -57.1880 O.2       20 UNK        -0.5000 
    114 N         -3.2853  -21.0300  -56.0137 N.am      21 UNK        -0.5000 
    115 CA        -2.0898  -21.1465  -56.8542 C.3       21 UNK         0.1400 
    116 CB        -1.1975  -22.2726  -56.3125 C.3       21 UNK        -0.1800 
    117 C         -1.2772  -19.8458  -57.0035 C.2       21 UNK         0.5000 
    118 O         -0.6216  -19.6672  -58.0311 O.2       21 UNK        -0.5000 
    119 N         -1.3428  -18.9581  -56.0024 N.am      22 UNK        -0.5000 
    120 CA        -0.7548  -17.6094  -56.0442 C.3       22 UNK         0.1400 
    121 C         -1.4118  -16.6279  -57.0654 C.2       22 UNK         0.5000 
    122 N         -2.5715  -16.9313  -57.6401 N.am      22 UNK        -0.7600 
    123 O         -0.8481  -15.5748  -57.3510 O.2       22 UNK        -0.5000 
    124 C124       -0.6400  -16.9896  -54.6267 C.3       23 UNK        -0.0398 
    125 S125       -2.2542  -16.6198  -53.8568 S.3       23 UNK        -0.2404 
    126 C126       -1.8297  -15.2608  -52.7279 C.3       23 UNK        -0.0205 
    127 H127       -1.7538  -12.4266  -51.9560 H         1 UNK         0.0600 
    128 H128       -0.3751  -12.2881  -53.0650 H         1 UNK         0.0600 
    129 H129       -1.4250  -10.8997  -52.7744 H         1 UNK         0.0600 
    130 H130        0.3789  -13.2878  -50.7292 H         1 UNK         0.3000 
    131 H131        2.1385  -11.3977  -49.6039 H         1 UNK         0.0600 
    132 H132        1.5327  -14.1308  -48.3895 H         1 UNK         0.0800 
    133 H133        2.9161  -13.1259  -48.0956 H         1 UNK         0.0800 
    134 H134        2.9028  -16.3375  -49.2740 H         1 UNK         0.0800 
    135 H135        2.9950  -16.4315  -51.0137 H         1 UNK         0.0800 
    136 H136        0.8540  -15.0937  -52.2149 H         1 UNK         0.1150 
    137 H137       -2.8229  -16.5484  -50.5508 H         1 UNK         0.1150 
    138 H138        0.8472  -17.1181  -48.4331 H         1 UNK         0.1150 
    139 H139       -1.3812  -17.4370  -47.3099 H         1 UNK         0.0800 
    140 H140       -2.8467  -17.4331  -48.2708 H         1 UNK         0.0800 
    141 H141       -3.5455  -20.2804  -47.4889 H         1 UNK         0.0800 
    142 H142       -2.4463  -19.5673  -46.3265 H         1 UNK         0.0800 
    143 H143       -1.7269  -22.1202  -47.8258 H         1 UNK         0.0600 
    144 H144       -0.3471  -20.6467  -45.8157 H         1 UNK         0.3000 
    145 H145        1.8713  -23.3735  -44.9440 H         1 UNK         0.0600 
    146 H146        3.4515  -21.5209  -45.4211 H         1 UNK         0.0600 
    147 H147        2.7659  -22.1432  -46.9146 H         1 UNK         0.0600 
    148 H148        2.1859  -20.6209  -46.2543 H         1 UNK         0.0600 
    149 H149        1.6604  -20.8096  -43.7829 H         1 UNK         0.3000 
    150 H150       -0.7799  -21.5957  -41.2659 H         1 UNK         0.0600 
    151 H151        1.4059  -22.3085  -40.3515 H         1 UNK         0.0600 
    152 H152        1.0662  -20.6502  -39.8778 H         1 UNK         0.0600 
    153 H153        2.2208  -20.9831  -41.1672 H         1 UNK         0.0600 
    154 H154        0.5380  -19.1591  -41.8159 H         1 UNK         0.3000 
    155 H155       -1.7589  -17.8387  -44.2221 H         1 UNK         0.0600 
    156 H156       -1.2683  -17.4570  -41.2268 H         1 UNK         0.0600 
    157 H157       -2.7384  -17.2057  -42.1450 H         1 UNK         0.0600 
    158 H158       -1.4004  -16.0787  -42.2931 H         1 UNK         0.0600 
    159 H159        0.7548  -17.0052  -43.0465 H         1 UNK         0.3000 
    160 H160        2.8540  -18.2944  -45.6064 H         1 UNK         0.0600 
    161 H161        1.9489  -15.4025  -45.2298 H         1 UNK         0.0600 
    162 H162        2.0474  -16.2642  -46.7530 H         1 UNK         0.0600 
    163 H163        3.5166  -15.8936  -45.8671 H         1 UNK         0.0600 
    164 H164        3.2410  -16.4917  -43.3778 H         1 UNK         0.3000 
    165 H165        3.6800  -19.0043  -40.9087 H         1 UNK         0.0600 
    166 H166        5.9435  -18.0241  -40.6566 H         1 UNK         0.0600 
    167 H167        5.8992  -19.0778  -42.0613 H         1 UNK         0.0600 
    168 H168        5.8556  -17.3316  -42.2769 H         1 UNK         0.0600 
    169 H169        4.1615  -16.1992  -40.8725 H         1 UNK         0.3000 
    170 H170        1.0284  -15.3432  -39.5371 H         1 UNK         0.0600 
    171 H171        3.3756  -15.2324  -38.6317 H         1 UNK         0.0600 
    172 H172        3.8855  -14.3562  -40.0727 H         1 UNK         0.0600 
    173 H173        2.7038  -13.6501  -38.9803 H         1 UNK         0.0600 
    174 H174        0.5262  -13.9142  -41.1628 H         1 UNK         0.3000 
    175 H175        1.1171  -12.1573  -42.6942 H         1 UNK         0.0600 
    176 H176        2.6849  -13.1917  -45.1170 H         1 UNK         0.0600 
    177 H177        1.8929  -11.6265  -44.9705 H         1 UNK         0.0600 
    178 H178        3.2651  -12.0151  -43.9471 H         1 UNK         0.0600 
    179 H179        0.3615  -13.9195  -44.9275 H         1 UNK         0.3000 
    180 H180       -1.9326  -15.2542  -44.4603 H         1 UNK         0.0600 
    181 H181       -4.2753  -14.4268  -44.4548 H         1 UNK         0.0600 
    182 H182       -3.7589  -12.9197  -43.6975 H         1 UNK         0.0600 
    183 H183       -3.6115  -14.4449  -42.8307 H         1 UNK         0.0600 
    184 H184       -2.6915  -12.8507  -45.9250 H         1 UNK         0.3000 
    185 H185       -0.6750  -13.7803  -48.7392 H         1 UNK         0.0600 
    186 H186       -2.5828  -12.4296  -49.5133 H         1 UNK         0.0600 
    187 H187       -3.1637  -13.8716  -48.6994 H         1 UNK         0.0600 
    188 H188       -3.2266  -12.3110  -47.8828 H         1 UNK         0.0600 
    189 H189       -0.9881  -11.4062  -46.9394 H         1 UNK         0.3000 
    190 H190       -2.3650  -21.8181  -44.3253 H         1 UNK         0.3000 
    191 H191       -4.7974  -23.2919  -44.3154 H         1 UNK         0.0600 
    192 H192       -4.3284  -23.5605  -41.8854 H         1 UNK         0.0600 
    193 H193       -4.0505  -21.9044  -42.4034 H         1 UNK         0.0600 
    194 H194       -2.6851  -22.9801  -42.1185 H         1 UNK         0.0600 
    195 H195       -1.3865  -24.3825  -43.8707 H         1 UNK         0.3000 
    196 H196       -1.9289  -27.1463  -43.5716 H         1 UNK         0.0600 
    197 H197        0.5734  -25.7205  -44.6207 H         1 UNK         0.0600 
    198 H198        0.2264  -26.1096  -42.9374 H         1 UNK         0.0600 
    199 H199        0.5058  -27.3996  -44.0973 H         1 UNK         0.0600 
    200 H200       -1.4083  -25.1784  -46.4931 H         1 UNK         0.3000 
    201 H201       -1.5696  -27.3751  -48.3685 H         1 UNK         0.0600 
    202 H202       -1.8770  -24.3542  -48.7805 H         1 UNK         0.0600 
    203 H203       -1.5838  -25.5474  -50.0417 H         1 UNK         0.0600 
    204 H204       -0.3521  -25.2357  -48.8326 H         1 UNK         0.0600 
    205 H205       -3.9845  -26.1104  -46.4207 H         1 UNK         0.3000 
    206 H206       -6.1889  -26.0562  -46.3726 H         1 UNK         0.0600 
    207 H207       -5.9362  -28.4984  -46.8565 H         1 UNK         0.0600 
    208 H208       -7.4447  -27.8622  -47.4911 H         1 UNK         0.0600 
    209 H209       -6.1030  -28.1793  -48.5825 H         1 UNK         0.0600 
    210 H210       -5.0311  -24.0210  -47.7788 H         1 UNK         0.3000 
    211 H211       -5.4283  -22.2391  -48.9511 H         1 UNK         0.0600 
    212 H212       -7.6865  -21.5524  -49.5954 H         1 UNK         0.0600 
    213 H213       -7.7528  -22.3314  -48.0243 H         1 UNK         0.0600 
    214 H214       -8.2873  -23.1967  -49.4655 H         1 UNK         0.0600 
    215 H215       -4.8539  -25.0496  -50.4156 H         1 UNK         0.3000 
    216 H216       -5.4512  -24.5010  -53.1610 H         1 UNK         0.0600 
    217 H217       -3.1992  -26.2191  -51.9921 H         1 UNK         0.0600 
    218 H218       -3.8196  -26.2851  -53.6350 H         1 UNK         0.0600 
    219 H219       -4.8462  -26.7722  -52.2941 H         1 UNK         0.0600 
    220 H220       -2.6672  -23.7010  -51.0827 H         1 UNK         0.3000 
    221 H221       -1.0200  -22.4932  -53.0727 H         1 UNK         0.0600 
    222 H222       -0.1108  -23.2243  -50.9093 H         1 UNK         0.0600 
    223 H223       -1.1392  -22.0843  -50.0453 H         1 UNK         0.0600 
    224 H224        0.1481  -21.4951  -51.0860 H         1 UNK         0.0600 
    225 H225       -3.7087  -21.2693  -51.1324 H         1 UNK         0.3000 
    226 H226       -3.3577  -18.4831  -51.8035 H         1 UNK         0.0600 
    227 H227       -5.7683  -19.9501  -50.6111 H         1 UNK         0.0600 
    228 H228       -4.4566  -19.2162  -49.6886 H         1 UNK         0.0600 
    229 H229       -5.5271  -18.2107  -50.6480 H         1 UNK         0.0600 
    230 H230       -4.6583  -21.1722  -53.5247 H         1 UNK         0.3000 
    231 H231       -6.1621  -19.4579  -55.4369 H         1 UNK         0.0600 
    232 H232       -5.7468  -22.4943  -55.3747 H         1 UNK         0.0600 
    233 H233       -6.7486  -21.6015  -56.5100 H         1 UNK         0.0600 
    234 H234       -7.1781  -21.6412  -54.8061 H         1 UNK         0.0600 
    235 H235       -3.3454  -21.6862  -55.2399 H         1 UNK         0.3000 
    236 H236       -2.4268  -21.4330  -57.8523 H         1 UNK         0.0600 
    237 H237       -1.7426  -23.2140  -56.2417 H         1 UNK         0.0600 
    238 H238       -0.3413  -22.4411  -56.9669 H         1 UNK         0.0600 
    239 H239       -0.8097  -22.0305  -55.3237 H         1 UNK         0.0600 
    240 H240       -1.8500  -19.2006  -55.1593 H         1 UNK         0.3000 
    241 H241        0.2688  -17.7400  -56.4005 H         1 UNK         0.0600 
    242 H242       -2.9788  -16.2889  -58.3007 H         1 UNK         0.3800 
    243 H243       -3.0561  -17.7922  -57.4156 H         1 UNK         0.3800 
    244 H244       -0.0443  -16.0766  -54.6697 H         1 UNK         0.0800 
    245 H245       -0.0969  -17.6675  -53.9665 H         1 UNK         0.0800 
    246 H246       -2.7502  -14.7725  -52.4049 H         1 UNK         0.0800 
    247 H247       -1.2565  -14.5096  -53.2708 H         1 UNK         0.0800 
@<TRIPOS>BOND
     1    1    2 1    
     2    1  127 1    
     3    1  128 1    
     4    1  129 1    
     5    2    3 2    
     6    2    4 am   BACKBONE|DICT|INTERRES
     7    4    5 1    
     8    4  130 1    
     9    5    6 1    
    10    5   65 1    
    11    5  131 1    
    12    6    7 1    
    13    6  132 1    
    14    6  133 1    
    15    7    8 1    
    16    8    9 1    
    17    8  134 1    
    18    8  135 1    
    19    9   10 ar   
    20    9   14 ar   
    21   10   11 ar   
    22   10  136 1    
    23   11   12 ar   
    24   11  126 1    
    25   12   13 ar   
    26   12  137 1    
    27   13   14 ar   
    28   13   15 1    
    29   14  138 1    
    30   15   16 1    
    31   15  139 1    
    32   15  140 1    
    33   16   17 1    
    34   17   18 1    
    35   17  141 1    
    36   17  142 1    
    37   18   19 1    
    38   18   67 1    
    39   18  143 1    
    40   19   20 am   BACKBONE|DICT|INTERRES
    41   19  144 1    
    42   20   21 2    
    43   20   22 1    
    44   22   23 1    
    45   22   24 1    
    46   22  145 1    
    47   23  146 1    
    48   23  147 1    
    49   23  148 1    
    50   24   25 am   BACKBONE|DICT|INTERRES
    51   24  149 1    
    52   25   26 2    
    53   25   27 1    
    54   27   28 1    
    55   27   29 1    
    56   27  150 1    
    57   28  151 1    
    58   28  152 1    
    59   28  153 1    
    60   29   30 am   BACKBONE|DICT|INTERRES
    61   29  154 1    
    62   30   31 2    
    63   30   32 1    
    64   32   33 1    
    65   32   34 1    
    66   32  155 1    
    67   33  156 1    
    68   33  157 1    
    69   33  158 1    
    70   34   35 am   BACKBONE|DICT|INTERRES
    71   34  159 1    
    72   35   36 2    
    73   35   37 1    
    74   37   38 1    
    75   37   39 1    
    76   37  160 1    
    77   38  161 1    
    78   38  162 1    
    79   38  163 1    
    80   39   40 am   BACKBONE|DICT|INTERRES
    81   39  164 1    
    82   40   41 2    
    83   40   42 1    
    84   42   43 1    
    85   42   44 1    
    86   42  165 1    
    87   43  166 1    
    88   43  167 1    
    89   43  168 1    
    90   44   45 am   BACKBONE|DICT|INTERRES
    91   44  169 1    
    92   45   46 2    
    93   45   47 1    
    94   47   48 1    
    95   47   49 1    
    96   47  170 1    
    97   48  171 1    
    98   48  172 1    
    99   48  173 1    
   100   49   50 am   BACKBONE|DICT|INTERRES
   101   49  174 1    
   102   50   51 2    
   103   50   52 1    
   104   52   53 1    
   105   52   54 1    
   106   52  175 1    
   107   53  176 1    
   108   53  177 1    
   109   53  178 1    
   110   54   55 am   BACKBONE|DICT|INTERRES
   111   54  179 1    
   112   55   56 2    
   113   55   57 1    
   114   57   58 1    
   115   57   59 1    
   116   57  180 1    
   117   58  181 1    
   118   58  182 1    
   119   58  183 1    
   120   59   60 am   BACKBONE|DICT|INTERRES
   121   59  184 1    
   122   60   61 2    
   123   60   62 1    
   124   62   63 1    
   125   62   64 1    
   126   62  185 1    
   127   63  186 1    
   128   63  187 1    
   129   63  188 1    
   130   64   65 am   BACKBONE|DICT|INTERRES
   131   64  189 1    
   132   65   66 2    
   133   67   68 2    
   134   67   69 am   BACKBONE|DICT|INTERRES
   135   69   70 1    
   136   69  190 1    
   137   70   71 1    
   138   70   72 1    
   139   70  191 1    
   140   71  192 1    
   141   71  193 1    
   142   71  194 1    
   143   72   73 2    
   144   72   74 am   BACKBONE|DICT|INTERRES
   145   74   75 1    
   146   74  195 1    
   147   75   76 1    
   148   75   77 1    
   149   75  196 1    
   150   76  197 1    
   151   76  198 1    
   152   76  199 1    
   153   77   78 2    
   154   77   79 am   BACKBONE|DICT|INTERRES
   155   79   80 1    
   156   79  200 1    
   157   80   81 1    
   158   80   82 1    
   159   80  201 1    
   160   81  202 1    
   161   81  203 1    
   162   81  204 1    
   163   82   83 2    
   164   82   84 am   BACKBONE|DICT|INTERRES
   165   84   85 1    
   166   84  205 1    
   167   85   86 1    
   168   85   87 1    
   169   85  206 1    
   170   86  207 1    
   171   86  208 1    
   172   86  209 1    
   173   87   88 2    
   174   87   89 am   BACKBONE|DICT|INTERRES
   175   89   90 1    
   176   89  210 1    
   177   90   91 1    
   178   90   92 1    
   179   90  211 1    
   180   91  212 1    
   181   91  213 1    
   182   91  214 1    
   183   92   93 2    
   184   92   94 am   BACKBONE|DICT|INTERRES
   185   94   95 1    
   186   94  215 1    
   187   95   96 1    
   188   95   97 1    
   189   95  216 1    
   190   96  217 1    
   191   96  218 1    
   192   96  219 1    
   193   97   98 2    
   194   97   99 am   BACKBONE|DICT|INTERRES
   195   99  100 1    
   196   99  220 1    
   197  100  101 1    
   198  100  102 1    
   199  100  221 1    
   200  101  222 1    
   201  101  223 1    
   202  101  224 1    
   203  102  103 2    
   204  102  104 am   BACKBONE|DICT|INTERRES
   205  104  105 1    
   206  104  225 1    
   207  105  106 1    
   208  105  107 1    
   209  105  226 1    
   210  106  227 1    
   211  106  228 1    
   212  106  229 1    
   213  107  108 2    
   214  107  109 am   BACKBONE|DICT|INTERRES
   215  109  110 1    
   216  109  230 1    
   217  110  111 1    
   218  110  112 1    
   219  110  231 1    
   220  111  232 1    
   221  111  233 1    
   222  111  234 1    
   223  112  113 2    
   224  112  114 am   BACKBONE|DICT|INTERRES
   225  114  115 1    
   226  114  235 1    
   227  115  116 1    
   228  115  117 1    
   229  115  236 1    
   230  116  237 1    
   231  116  238 1    
   232  116  239 1    
   233  117  118 2    
   234  117  119 am   BACKBONE|DICT|INTERRES
   235  119  120 1    
   236  119  240 1    
   237  120  121 1    
   238  120  124 1    
   239  120  241 1    
   240  121  122 am   BACKBONE|DICT|INTERRES
   241  121  123 2    
   242  122  242 1    
   243  122  243 1    
   244  124  125 1    
   245  124  244 1    
   246  124  245 1    
   247  125  126 1    
   248  126  246 1    
   249  126  247 1    
@<TRIPOS>SUBSTRUCTURE
     1 UNK         1 GROUP             0       ****    0 ROOT    
