@<TRIPOS>MOLECULE
3R540
247   249    1
SMALL
USER_CHARGES


@<TRIPOS>ATOM
      1 CA          2.0296  -11.8523  -47.3096 C.3       0 UNK        -0.1800 
      2 C           0.9705  -12.7932  -47.8640 C.2       0 UNK         0.5000 
      3 O          -0.0851  -12.3317  -48.3000 O.2       0 UNK        -0.5000 
      4 N           1.2400  -14.1055  -47.8214 N.am      1 UNK        -0.5000 
      5 CA          0.4479  -15.2364  -48.3405 C.3       1 UNK         0.1400 
      6 C6          0.2880  -15.2231  -49.8806 C.3       23 UNK        -0.0398 
      7 S7          1.8830  -15.4545  -50.7408 S.3       23 UNK        -0.2404 
      8 C8          2.2294  -17.2264  -50.4618 C.3       23 UNK        -0.0205 
      9 C9          1.1122  -18.1197  -50.9773 C.ar      23 UNK        -0.0193 
     10 C10         1.0242  -18.4095  -52.3410 C.ar      23 UNK        -0.1150 
     11 C11        -0.0242  -19.1901  -52.8328 C.ar      23 UNK        -0.0193 
     12 C12        -0.9879  -19.6823  -51.9489 C.ar      23 UNK        -0.1150 
     13 C13        -0.9014  -19.4145  -50.5796 C.ar      23 UNK        -0.0193 
     14 C14         0.1558  -18.6385  -50.0975 C.ar      23 UNK        -0.1150 
     15 C15        -1.9709  -19.9377  -49.6339 C.3       23 UNK        -0.0205 
     16 S16        -1.5801  -21.6040  -49.0236 S.3       23 UNK        -0.2404 
     17 C17        -0.7103  -21.2153  -47.4685 C.3       23 UNK        -0.0398 
     18 CA         -0.0106  -22.4438  -46.8402 C.3       11 UNK         0.1400 
     19 N           0.9165  -22.0515  -45.7783 N.am      11 UNK        -0.5000 
     20 C           1.8160  -22.8651  -45.2086 C.2       10 UNK         0.5000 
     21 O           2.0258  -24.0196  -45.5802 O.2       10 UNK        -0.5000 
     22 CA          2.5748  -22.3111  -43.9877 C.3       10 UNK         0.1400 
     23 CB          3.7871  -21.4773  -44.4275 C.3       10 UNK        -0.1800 
     24 N           1.7185  -21.5151  -43.1044 N.am      10 UNK        -0.5000 
     25 C           0.6660  -22.0055  -42.4332 C.2       9 UNK         0.5000 
     26 O           0.3423  -23.1923  -42.4493 O.2       9 UNK        -0.5000 
     27 CA         -0.1993  -21.0022  -41.6503 C.3       9 UNK         0.1400 
     28 CB          0.4358  -20.6792  -40.2900 C.3       9 UNK        -0.1800 
     29 N          -0.4448  -19.7652  -42.3927 N.am      9 UNK        -0.5000 
     30 C          -1.1262  -19.6885  -43.5452 C.2       8 UNK         0.5000 
     31 O          -1.6635  -20.6546  -44.0850 O.2       8 UNK        -0.5000 
     32 CA         -1.1616  -18.3181  -44.2462 C.3       8 UNK         0.1400 
     33 CB         -2.2129  -17.3950  -43.6137 C.3       8 UNK        -0.1800 
     34 N           0.1439  -17.6601  -44.2346 N.am      8 UNK        -0.5000 
     35 C           1.2367  -18.1412  -44.8443 C.2       7 UNK         0.5000 
     36 O           1.2449  -19.1611  -45.5334 O.2       7 UNK        -0.5000 
     37 CA          2.5535  -17.3880  -44.5926 C.3       7 UNK         0.1400 
     38 CB          2.6898  -16.1866  -45.5352 C.3       7 UNK        -0.1800 
     39 N           2.6621  -16.9366  -43.2063 N.am      7 UNK        -0.5000 
     40 C           2.8717  -17.7549  -42.1660 C.2       6 UNK         0.5000 
     41 O           3.0222  -18.9718  -42.2728 O.2       6 UNK        -0.5000 
     42 CA          2.8711  -17.1057  -40.7704 C.3       6 UNK         0.1400 
     43 CB          4.2443  -16.4940  -40.4557 C.3       6 UNK        -0.1800 
     44 N           1.8368  -16.0789  -40.6305 N.am      6 UNK        -0.5000 
     45 C           0.5201  -16.3290  -40.6469 C.2       5 UNK         0.5000 
     46 O           0.0413  -17.4557  -40.7605 O.2       5 UNK        -0.5000 
     47 CA         -0.4210  -15.1149  -40.5633 C.3       5 UNK         0.1400 
     48 CB         -0.7007  -14.7497  -39.0980 C.3       5 UNK        -0.1800 
     49 N           0.0825  -13.9355  -41.2710 N.am      5 UNK        -0.5000 
     50 C           0.2902  -13.8701  -42.5919 C.2       4 UNK         0.5000 
     51 O           0.1378  -14.8200  -43.3644 O.2       4 UNK        -0.5000 
     52 CA          0.7604  -12.5203  -43.1434 C.3       4 UNK         0.1400 
     53 CB          2.1771  -12.6350  -43.7280 C.3       4 UNK        -0.1800 
     54 N          -0.1661  -12.1139  -44.1936 N.am      4 UNK        -0.5000 
     55 C          -1.0115  -11.0779  -44.1199 C.2       3 UNK         0.5000 
     56 O          -1.0519  -10.2939  -43.1708 O.2       3 UNK        -0.5000 
     57 CA         -1.9788  -10.8739  -45.3026 C.3       3 UNK         0.1400 
     58 CB         -1.4912   -9.7285  -46.2036 C.3       3 UNK        -0.1800 
     59 N          -2.1467  -12.0765  -46.1206 N.am      3 UNK        -0.5000 
     60 C          -2.9323  -13.1165  -45.7957 C.2       2 UNK         0.5000 
     61 O          -3.6195  -13.1533  -44.7751 O.2       2 UNK        -0.5000 
     62 CA         -2.9421  -14.3235  -46.7505 C.3       2 UNK         0.1400 
     63 CB         -4.1260  -14.2437  -47.7268 C.3       2 UNK        -0.1800 
     64 N          -1.6972  -14.3926  -47.5096 N.am      2 UNK        -0.5000 
     65 C          -0.9065  -15.4576  -47.6345 C.2       1 UNK         0.5000 
     66 O          -1.1931  -16.5777  -47.2144 O.2       1 UNK        -0.5000 
     67 C          -1.0121  -23.5087  -46.3406 C.2       11 UNK         0.5000 
     68 O          -1.1739  -24.5389  -46.9939 O.2       11 UNK        -0.5000 
     69 N          -1.6287  -23.2800  -45.1716 N.am      12 UNK        -0.5000 
     70 CA         -2.5640  -24.2067  -44.5260 C.3       12 UNK         0.1400 
     71 CB         -3.1665  -23.5502  -43.2762 C.3       12 UNK        -0.1800 
     72 C          -1.9334  -25.5694  -44.1802 C.2       12 UNK         0.5000 
     73 O          -2.5801  -26.6002  -44.3669 O.2       12 UNK        -0.5000 
     74 N          -0.6639  -25.5610  -43.7499 N.am      13 UNK        -0.5000 
     75 CA          0.1522  -26.7559  -43.5136 C.3       13 UNK         0.1400 
     76 CB          1.4596  -26.3480  -42.8180 C.3       13 UNK        -0.1800 
     77 C           0.4458  -27.5671  -44.7939 C.2       13 UNK         0.5000 
     78 O           0.6740  -28.7736  -44.7043 O.2       13 UNK        -0.5000 
     79 N           0.3924  -26.9077  -45.9590 N.am      14 UNK        -0.5000 
     80 CA          0.4835  -27.5089  -47.2908 C.3       14 UNK         0.1400 
     81 CB          1.2822  -26.5648  -48.2073 C.3       14 UNK        -0.1800 
     82 C          -0.9081  -27.8441  -47.8774 C.2       14 UNK         0.5000 
     83 O          -1.0155  -28.0660  -49.0838 O.2       14 UNK        -0.5000 
     84 N          -1.9402  -27.8826  -47.0196 N.am      15 UNK        -0.5000 
     85 CA         -3.3484  -28.1938  -47.2936 C.3       15 UNK         0.1400 
     86 CB         -3.5126  -29.5681  -47.9776 C.3       15 UNK        -0.1800 
     87 C          -4.1254  -27.0654  -48.0044 C.2       15 UNK         0.5000 
     88 O          -5.2155  -27.3220  -48.5194 O.2       15 UNK        -0.5000 
     89 N          -3.5850  -25.8379  -47.9661 N.am      16 UNK        -0.5000 
     90 CA         -4.1293  -24.5836  -48.4978 C.3       16 UNK         0.1400 
     91 CB         -5.4949  -24.2551  -47.8578 C.3       16 UNK        -0.1800 
     92 C          -4.1814  -24.5147  -50.0380 C.2       16 UNK         0.5000 
     93 O          -3.9918  -25.5141  -50.7351 O.2       16 UNK        -0.5000 
     94 N          -4.4316  -23.3029  -50.5396 N.am      17 UNK        -0.5000 
     95 CA         -4.5415  -22.9455  -51.9479 C.3       17 UNK         0.1400 
     96 CB         -3.1518  -22.9618  -52.6138 C.3       17 UNK        -0.1800 
     97 C          -5.1929  -21.5574  -52.0377 C.2       17 UNK         0.5000 
     98 O          -5.2452  -20.8358  -51.0370 O.2       17 UNK        -0.5000 
     99 N          -5.6808  -21.2034  -53.2312 N.am      18 UNK        -0.5000 
    100 CA        -6.2905  -19.9089  -53.5278 C.3       18 UNK         0.1400 
    101 CB        -7.1908  -20.0549  -54.7679 C.3       18 UNK        -0.1800 
    102 C         -5.2035  -18.8392  -53.7326 C.2       18 UNK         0.5000 
    103 O         -4.7836  -18.6115  -54.8675 O.2       18 UNK        -0.5000 
    104 N         -4.7639  -18.2078  -52.6352 N.am      19 UNK        -0.5000 
    105 CA        -3.6872  -17.2067  -52.5779 C.3       19 UNK         0.1400 
    106 CB        -3.5242  -16.7385  -51.1224 C.3       19 UNK        -0.1800 
    107 C         -3.8710  -15.9816  -53.4980 C.2       19 UNK         0.5000 
    108 O         -2.8862  -15.3367  -53.8577 O.2       19 UNK        -0.5000 
    109 N         -5.1239  -15.6803  -53.8601 N.am      20 UNK        -0.5000 
    110 CA        -5.4942  -14.6066  -54.7799 C.3       20 UNK         0.1400 
    111 CB        -6.9844  -14.2878  -54.5791 C.3       20 UNK        -0.1800 
    112 C         -5.2107  -14.9293  -56.2624 C.2       20 UNK         0.5000 
    113 O         -5.2177  -14.0039  -57.0760 O.2       20 UNK        -0.5000 
    114 N         -4.9985  -16.2099  -56.5994 N.am      21 UNK        -0.5000 
    115 CA        -4.8298  -16.6864  -57.9730 C.3       21 UNK         0.1400 
    116 CB        -6.0822  -17.4769  -58.3882 C.3       21 UNK        -0.1800 
    117 C         -3.5665  -17.5437  -58.1392 C.2       21 UNK         0.5000 
    118 O         -2.8070  -17.3177  -59.0821 O.2       21 UNK        -0.5000 
    119 N         -3.3721  -18.5159  -57.2382 N.am      22 UNK        -0.5000 
    120 CA        -2.2766  -19.5034  -57.2335 C.3       22 UNK         0.1400 
    121 C         -2.2454  -20.4605  -58.4671 C.2       22 UNK         0.5000 
    122 N         -3.3442  -20.6383  -59.1908 N.am      22 UNK        -0.7600 
    123 O         -1.2262  -21.0810  -58.7585 O.2       22 UNK        -0.5000 
    124 C124       -0.8937  -18.8681  -56.9184 C.3       23 UNK        -0.0398 
    125 S125       -0.8499  -18.1304  -55.2504 S.3       23 UNK        -0.2404 
    126 C126       -0.1100  -19.5043  -54.3165 C.3       23 UNK        -0.0205 
    127 H127        2.9011  -12.3929  -46.9397 H         1 UNK         0.0600 
    128 H128        1.6194  -11.2653  -46.4885 H         1 UNK         0.0600 
    129 H129        2.3611  -11.1647  -48.0874 H         1 UNK         0.0600 
    130 H130        2.1321  -14.3792  -47.4362 H         1 UNK         0.3000 
    131 H131        1.0279  -16.1220  -48.0854 H         1 UNK         0.0600 
    132 H132       -0.4079  -15.9905  -50.2186 H         1 UNK         0.0800 
    133 H133       -0.1449  -14.2786  -50.2127 H         1 UNK         0.0800 
    134 H134        2.4099  -17.4096  -49.4021 H         1 UNK         0.0800 
    135 H135        3.1603  -17.4832  -50.9694 H         1 UNK         0.0800 
    136 H136        1.7621  -18.0112  -53.0234 H         1 UNK         0.1150 
    137 H137       -1.8127  -20.2654  -52.3302 H         1 UNK         0.1150 
    138 H138        0.2174  -18.4161  -49.0414 H         1 UNK         0.1150 
    139 H139       -2.1129  -19.2511  -48.7973 H         1 UNK         0.0800 
    140 H140       -2.9270  -19.9772  -50.1554 H         1 UNK         0.0800 
    141 H141       -1.4145  -20.7622  -46.7694 H         1 UNK         0.0800 
    142 H142        0.0342  -20.4491  -47.6877 H         1 UNK         0.0800 
    143 H143        0.5920  -22.9124  -47.6216 H         1 UNK         0.0600 
    144 H144        0.8553  -21.0916  -45.4524 H         1 UNK         0.3000 
    145 H145        2.9422  -23.1637  -43.4129 H         1 UNK         0.0600 
    146 H146        4.3651  -21.1383  -43.5677 H         1 UNK         0.0600 
    147 H147        4.4558  -22.0645  -45.0581 H         1 UNK         0.0600 
    148 H148        3.4877  -20.5978  -44.9971 H         1 UNK         0.0600 
    149 H149        1.9587  -20.5352  -42.9953 H         1 UNK         0.3000 
    150 H150       -1.1665  -21.4733  -41.4653 H         1 UNK         0.0600 
    151 H151        0.6168  -21.5895  -39.7171 H         1 UNK         0.0600 
    152 H152       -0.2176  -20.0437  -39.6920 H         1 UNK         0.0600 
    153 H153        1.3907  -20.1654  -40.4017 H         1 UNK         0.0600 
    154 H154       -0.0845  -18.9101  -41.9777 H         1 UNK         0.3000 
    155 H155       -1.4404  -18.4853  -45.2885 H         1 UNK         0.0600 
    156 H156       -2.0086  -17.2121  -42.5593 H         1 UNK         0.0600 
    157 H157       -3.2084  -17.8345  -43.6841 H         1 UNK         0.0600 
    158 H158       -2.2446  -16.4301  -44.1199 H         1 UNK         0.0600 
    159 H159        0.2086  -16.7801  -43.7333 H         1 UNK         0.3000 
    160 H160        3.3802  -18.0724  -44.7947 H         1 UNK         0.0600 
    161 H161        3.5913  -15.6124  -45.3204 H         1 UNK         0.0600 
    162 H162        1.8330  -15.5180  -45.4524 H         1 UNK         0.0600 
    163 H163        2.7587  -16.5214  -46.5701 H         1 UNK         0.0600 
    164 H164        2.4967  -15.9573  -43.0294 H         1 UNK         0.3000 
    165 H165        2.6715  -17.8913  -40.0384 H         1 UNK         0.0600 
    166 H166        4.2768  -16.1007  -39.4395 H         1 UNK         0.0600 
    167 H167        5.0328  -17.2434  -40.5383 H         1 UNK         0.0600 
    168 H168        4.4914  -15.6806  -41.1391 H         1 UNK         0.0600 
    169 H169        2.1464  -15.1235  -40.5307 H         1 UNK         0.3000 
    170 H170       -1.3671  -15.4003  -41.0275 H         1 UNK         0.0600 
    171 H171       -1.0969  -15.6066  -38.5511 H         1 UNK         0.0600 
    172 H172        0.2035  -14.4217  -38.5838 H         1 UNK         0.0600 
    173 H173       -1.4384  -13.9505  -39.0243 H         1 UNK         0.0600 
    174 H174        0.2329  -13.1088  -40.7107 H         1 UNK         0.3000 
    175 H175        0.7833  -11.7880  -42.3337 H         1 UNK         0.0600 
    176 H176        2.2170  -13.3325  -44.5641 H         1 UNK         0.0600 
    177 H177        2.5313  -11.6679  -44.0850 H         1 UNK         0.0600 
    178 H178        2.8856  -12.9817  -42.9747 H         1 UNK         0.0600 
    179 H179       -0.2638  -12.7571  -44.9650 H         1 UNK         0.3000 
    180 H180       -2.9490  -10.5901  -44.8891 H         1 UNK         0.0600 
    181 H181       -0.5244   -9.9527  -46.6552 H         1 UNK         0.0600 
    182 H182       -1.3818   -8.8033  -45.6363 H         1 UNK         0.0600 
    183 H183       -2.1992   -9.5324  -47.0090 H         1 UNK         0.0600 
    184 H184       -1.6079  -12.0998  -46.9775 H         1 UNK         0.3000 
    185 H185       -3.0581  -15.2180  -46.1353 H         1 UNK         0.0600 
    186 H186       -4.0581  -13.3663  -48.3710 H         1 UNK         0.0600 
    187 H187       -4.1665  -15.1261  -48.3656 H         1 UNK         0.0600 
    188 H188       -5.0734  -14.1871  -47.1893 H         1 UNK         0.0600 
    189 H189       -1.3404  -13.5233  -47.8988 H         1 UNK         0.3000 
    190 H190       -1.4784  -22.3898  -44.7015 H         1 UNK         0.3000 
    191 H191       -3.3756  -24.3932  -45.2319 H         1 UNK         0.0600 
    192 H192       -2.4027  -23.3246  -42.5324 H         1 UNK         0.0600 
    193 H193       -3.8995  -24.2064  -42.8054 H         1 UNK         0.0600 
    194 H194       -3.6761  -22.6195  -43.5262 H         1 UNK         0.0600 
    195 H195       -0.2253  -24.6655  -43.5512 H         1 UNK         0.3000 
    196 H196       -0.4030  -27.4076  -42.8360 H         1 UNK         0.0600 
    197 H197        2.0736  -27.2215  -42.5953 H         1 UNK         0.0600 
    198 H198        1.2622  -25.8403  -41.8737 H         1 UNK         0.0600 
    199 H199        2.0540  -25.6787  -43.4398 H         1 UNK         0.0600 
    200 H200        0.1812  -25.9170  -45.9437 H         1 UNK         0.3000 
    201 H201        1.0339  -28.4495  -47.2270 H         1 UNK         0.0600 
    202 H202        2.2510  -26.3195  -47.7715 H         1 UNK         0.0600 
    203 H203        0.7527  -25.6298  -48.3886 H         1 UNK         0.0600 
    204 H204        1.4716  -27.0263  -49.1771 H         1 UNK         0.0600 
    205 H205       -1.7537  -27.6323  -46.0558 H         1 UNK         0.3000 
    206 H206       -3.8119  -28.2779  -46.3097 H         1 UNK         0.0600 
    207 H207       -2.9489  -30.3407  -47.4548 H         1 UNK         0.0600 
    208 H208       -4.5579  -29.8788  -47.9817 H         1 UNK         0.0600 
    209 H209       -3.1786  -29.5490  -49.0151 H         1 UNK         0.0600 
    210 H210       -2.6607  -25.7428  -47.5572 H         1 UNK         0.3000 
    211 H211       -3.4320  -23.8092  -48.1807 H         1 UNK         0.0600 
    212 H212       -6.2807  -24.9256  -48.2062 H         1 UNK         0.0600 
    213 H213       -5.8085  -23.2388  -48.0983 H         1 UNK         0.0600 
    214 H214       -5.4497  -24.3269  -46.7711 H         1 UNK         0.0600 
    215 H215       -4.5969  -22.5191  -49.9191 H         1 UNK         0.3000 
    216 H216       -5.1981  -23.6607  -52.4474 H         1 UNK         0.0600 
    217 H217       -3.1772  -22.5284  -53.6143 H         1 UNK         0.0600 
    218 H218       -2.7775  -23.9804  -52.7154 H         1 UNK         0.0600 
    219 H219       -2.4231  -22.4045  -52.0265 H         1 UNK         0.0600 
    220 H220       -5.5798  -21.8370  -54.0110 H         1 UNK         0.3000 
    221 H221       -6.9229  -19.6035  -52.6912 H         1 UNK         0.0600 
    222 H222       -6.6334  -20.4056  -55.6376 H         1 UNK         0.0600 
    223 H223       -8.0010  -20.7606  -54.5842 H         1 UNK         0.0600 
    224 H224       -7.6463  -19.1001  -55.0342 H         1 UNK         0.0600 
    225 H225       -5.1408  -18.5035  -51.7445 H         1 UNK         0.3000 
    226 H226       -2.7662  -17.7015  -52.8876 H         1 UNK         0.0600 
    227 H227       -3.2991  -17.5694  -50.4566 H         1 UNK         0.0600 
    228 H228       -2.7079  -16.0214  -51.0303 H         1 UNK         0.0600 
    229 H229       -4.4288  -16.2526  -50.7549 H         1 UNK         0.0600 
    230 H230       -5.8737  -16.2577  -53.5099 H         1 UNK         0.3000 
    231 H231       -4.9178  -13.7153  -54.5232 H         1 UNK         0.0600 
    232 H232       -7.1903  -13.9934  -53.5498 H         1 UNK         0.0600 
    233 H233       -7.6147  -15.1458  -54.8168 H         1 UNK         0.0600 
    234 H234       -7.2986  -13.4627  -55.2197 H         1 UNK         0.0600 
    235 H235       -4.9581  -16.9119  -55.8677 H         1 UNK         0.3000 
    236 H236       -4.7260  -15.8443  -58.6604 H         1 UNK         0.0600 
    237 H237       -5.9817  -17.8679  -59.4015 H         1 UNK         0.0600 
    238 H238       -6.2658  -18.3221  -57.7234 H         1 UNK         0.0600 
    239 H239       -6.9684  -16.8424  -58.3718 H         1 UNK         0.0600 
    240 H240       -4.0198  -18.6023  -56.4575 H         1 UNK         0.3000 
    241 H241       -2.5103  -20.1720  -56.4042 H         1 UNK         0.0600 
    242 H242       -4.1948  -20.1516  -58.9593 H         1 UNK         0.3800 
    243 H243       -3.3225  -21.2653  -59.9799 H         1 UNK         0.3800 
    244 H244       -0.0935  -19.6065  -56.9864 H         1 UNK         0.0800 
    245 H245       -0.6483  -18.0976  -57.6499 H         1 UNK         0.0800 
    246 H246        0.8886  -19.7121  -54.7040 H         1 UNK         0.0800 
    247 H247       -0.6984  -20.4094  -54.4757 H         1 UNK         0.0800 
@<TRIPOS>BOND
     1    1    2 1    
     2    1  127 1    
     3    1  128 1    
     4    1  129 1    
     5    2    3 2    
     6    2    4 am   BACKBONE|DICT|INTERRES
     7    4    5 1    
     8    4  130 1    
     9    5    6 1    
    10    5   65 1    
    11    5  131 1    
    12    6    7 1    
    13    6  132 1    
    14    6  133 1    
    15    7    8 1    
    16    8    9 1    
    17    8  134 1    
    18    8  135 1    
    19    9   10 ar   
    20    9   14 ar   
    21   10   11 ar   
    22   10  136 1    
    23   11   12 ar   
    24   11  126 1    
    25   12   13 ar   
    26   12  137 1    
    27   13   14 ar   
    28   13   15 1    
    29   14  138 1    
    30   15   16 1    
    31   15  139 1    
    32   15  140 1    
    33   16   17 1    
    34   17   18 1    
    35   17  141 1    
    36   17  142 1    
    37   18   19 1    
    38   18   67 1    
    39   18  143 1    
    40   19   20 am   BACKBONE|DICT|INTERRES
    41   19  144 1    
    42   20   21 2    
    43   20   22 1    
    44   22   23 1    
    45   22   24 1    
    46   22  145 1    
    47   23  146 1    
    48   23  147 1    
    49   23  148 1    
    50   24   25 am   BACKBONE|DICT|INTERRES
    51   24  149 1    
    52   25   26 2    
    53   25   27 1    
    54   27   28 1    
    55   27   29 1    
    56   27  150 1    
    57   28  151 1    
    58   28  152 1    
    59   28  153 1    
    60   29   30 am   BACKBONE|DICT|INTERRES
    61   29  154 1    
    62   30   31 2    
    63   30   32 1    
    64   32   33 1    
    65   32   34 1    
    66   32  155 1    
    67   33  156 1    
    68   33  157 1    
    69   33  158 1    
    70   34   35 am   BACKBONE|DICT|INTERRES
    71   34  159 1    
    72   35   36 2    
    73   35   37 1    
    74   37   38 1    
    75   37   39 1    
    76   37  160 1    
    77   38  161 1    
    78   38  162 1    
    79   38  163 1    
    80   39   40 am   BACKBONE|DICT|INTERRES
    81   39  164 1    
    82   40   41 2    
    83   40   42 1    
    84   42   43 1    
    85   42   44 1    
    86   42  165 1    
    87   43  166 1    
    88   43  167 1    
    89   43  168 1    
    90   44   45 am   BACKBONE|DICT|INTERRES
    91   44  169 1    
    92   45   46 2    
    93   45   47 1    
    94   47   48 1    
    95   47   49 1    
    96   47  170 1    
    97   48  171 1    
    98   48  172 1    
    99   48  173 1    
   100   49   50 am   BACKBONE|DICT|INTERRES
   101   49  174 1    
   102   50   51 2    
   103   50   52 1    
   104   52   53 1    
   105   52   54 1    
   106   52  175 1    
   107   53  176 1    
   108   53  177 1    
   109   53  178 1    
   110   54   55 am   BACKBONE|DICT|INTERRES
   111   54  179 1    
   112   55   56 2    
   113   55   57 1    
   114   57   58 1    
   115   57   59 1    
   116   57  180 1    
   117   58  181 1    
   118   58  182 1    
   119   58  183 1    
   120   59   60 am   BACKBONE|DICT|INTERRES
   121   59  184 1    
   122   60   61 2    
   123   60   62 1    
   124   62   63 1    
   125   62   64 1    
   126   62  185 1    
   127   63  186 1    
   128   63  187 1    
   129   63  188 1    
   130   64   65 am   BACKBONE|DICT|INTERRES
   131   64  189 1    
   132   65   66 2    
   133   67   68 2    
   134   67   69 am   BACKBONE|DICT|INTERRES
   135   69   70 1    
   136   69  190 1    
   137   70   71 1    
   138   70   72 1    
   139   70  191 1    
   140   71  192 1    
   141   71  193 1    
   142   71  194 1    
   143   72   73 2    
   144   72   74 am   BACKBONE|DICT|INTERRES
   145   74   75 1    
   146   74  195 1    
   147   75   76 1    
   148   75   77 1    
   149   75  196 1    
   150   76  197 1    
   151   76  198 1    
   152   76  199 1    
   153   77   78 2    
   154   77   79 am   BACKBONE|DICT|INTERRES
   155   79   80 1    
   156   79  200 1    
   157   80   81 1    
   158   80   82 1    
   159   80  201 1    
   160   81  202 1    
   161   81  203 1    
   162   81  204 1    
   163   82   83 2    
   164   82   84 am   BACKBONE|DICT|INTERRES
   165   84   85 1    
   166   84  205 1    
   167   85   86 1    
   168   85   87 1    
   169   85  206 1    
   170   86  207 1    
   171   86  208 1    
   172   86  209 1    
   173   87   88 2    
   174   87   89 am   BACKBONE|DICT|INTERRES
   175   89   90 1    
   176   89  210 1    
   177   90   91 1    
   178   90   92 1    
   179   90  211 1    
   180   91  212 1    
   181   91  213 1    
   182   91  214 1    
   183   92   93 2    
   184   92   94 am   BACKBONE|DICT|INTERRES
   185   94   95 1    
   186   94  215 1    
   187   95   96 1    
   188   95   97 1    
   189   95  216 1    
   190   96  217 1    
   191   96  218 1    
   192   96  219 1    
   193   97   98 2    
   194   97   99 am   BACKBONE|DICT|INTERRES
   195   99  100 1    
   196   99  220 1    
   197  100  101 1    
   198  100  102 1    
   199  100  221 1    
   200  101  222 1    
   201  101  223 1    
   202  101  224 1    
   203  102  103 2    
   204  102  104 am   BACKBONE|DICT|INTERRES
   205  104  105 1    
   206  104  225 1    
   207  105  106 1    
   208  105  107 1    
   209  105  226 1    
   210  106  227 1    
   211  106  228 1    
   212  106  229 1    
   213  107  108 2    
   214  107  109 am   BACKBONE|DICT|INTERRES
   215  109  110 1    
   216  109  230 1    
   217  110  111 1    
   218  110  112 1    
   219  110  231 1    
   220  111  232 1    
   221  111  233 1    
   222  111  234 1    
   223  112  113 2    
   224  112  114 am   BACKBONE|DICT|INTERRES
   225  114  115 1    
   226  114  235 1    
   227  115  116 1    
   228  115  117 1    
   229  115  236 1    
   230  116  237 1    
   231  116  238 1    
   232  116  239 1    
   233  117  118 2    
   234  117  119 am   BACKBONE|DICT|INTERRES
   235  119  120 1    
   236  119  240 1    
   237  120  121 1    
   238  120  124 1    
   239  120  241 1    
   240  121  122 am   BACKBONE|DICT|INTERRES
   241  121  123 2    
   242  122  242 1    
   243  122  243 1    
   244  124  125 1    
   245  124  244 1    
   246  124  245 1    
   247  125  126 1    
   248  126  246 1    
   249  126  247 1    
@<TRIPOS>SUBSTRUCTURE
     1 UNK         1 GROUP             0       ****    0 ROOT    
