@<TRIPOS>MOLECULE
3R540
247   249    1
SMALL
USER_CHARGES


@<TRIPOS>ATOM
      1 CA         -1.6989  -14.1119  -48.7619 C.3       0 UNK        -0.1800 
      2 C          -0.4056  -13.4846  -49.2590 C.2       0 UNK         0.5000 
      3 O          -0.4238  -12.7642  -50.2570 O.2       0 UNK        -0.5000 
      4 N           0.7110  -13.7519  -48.5674 N.am      1 UNK        -0.5000 
      5 CA          2.0076  -13.0981  -48.7867 C.3       1 UNK         0.1400 
      6 C6          3.2128  -14.0061  -48.4020 C.3       23 UNK        -0.0398 
      7 S7          3.1930  -15.7608  -48.9168 S.3       23 UNK        -0.2404 
      8 C8          2.4553  -15.8403  -50.5905 C.3       23 UNK        -0.0205 
      9 C9          2.0721  -17.2537  -51.0550 C.ar      23 UNK        -0.0193 
     10 C10         1.3405  -17.3962  -52.2397 C.ar      23 UNK        -0.1150 
     11 C11         0.9557  -18.6603  -52.7017 C.ar      23 UNK        -0.0193 
     12 C12         1.2881  -19.7968  -51.9583 C.ar      23 UNK        -0.1150 
     13 C13         2.0338  -19.6803  -50.7832 C.ar      23 UNK        -0.0193 
     14 C14         2.4264  -18.4121  -50.3462 C.ar      23 UNK        -0.1150 
     15 C15         2.4799  -20.9213  -50.0177 C.3       23 UNK        -0.0205 
     16 S16         1.9365  -20.9129  -48.2764 S.3       23 UNK        -0.2404 
     17 C17         0.3161  -21.7499  -48.3532 C.3       23 UNK        -0.0398 
     18 CA          0.1816  -22.8393  -47.2645 C.3       11 UNK         0.1400 
     19 N           0.2696  -22.2800  -45.9120 N.am      11 UNK        -0.5000 
     20 C           0.5960  -22.9918  -44.8269 C.2       10 UNK         0.5000 
     21 O           0.7696  -24.2101  -44.8428 O.2       10 UNK        -0.5000 
     22 CA          0.7281  -22.2198  -43.5046 C.3       10 UNK         0.1400 
     23 CB          2.0013  -21.3596  -43.5028 C.3       10 UNK        -0.1800 
     24 N          -0.4361  -21.3810  -43.2208 N.am      10 UNK        -0.5000 
     25 C          -1.6591  -21.8506  -42.9390 C.2       9 UNK         0.5000 
     26 O          -1.9363  -23.0495  -42.8987 O.2       9 UNK        -0.5000 
     27 CA         -2.7616  -20.8105  -42.6622 C.3       9 UNK         0.1400 
     28 CB         -2.6633  -20.2799  -41.2239 C.3       9 UNK        -0.1800 
     29 N          -2.7367  -19.6855  -43.5958 N.am      9 UNK        -0.5000 
     30 C          -2.9972  -19.7840  -44.9071 C.2       8 UNK         0.5000 
     31 O          -3.3053  -20.8309  -45.4741 O.2       8 UNK        -0.5000 
     32 CA         -2.8236  -18.5049  -45.7413 C.3       8 UNK         0.1400 
     33 CB         -4.0237  -17.5625  -45.5746 C.3       8 UNK        -0.1800 
     34 N          -1.5837  -17.7972  -45.4262 N.am      8 UNK        -0.5000 
     35 C          -0.3584  -18.3255  -45.5598 C.2       7 UNK         0.5000 
     36 O          -0.1450  -19.4588  -45.9878 O.2       7 UNK        -0.5000 
     37 CA          0.8233  -17.4544  -45.1091 C.3       7 UNK         0.1400 
     38 CB          1.1182  -16.3759  -46.1565 C.3       7 UNK        -0.1800 
     39 N           0.5962  -16.8203  -43.8134 N.am      7 UNK        -0.5000 
     40 C           0.3878  -17.4731  -42.6623 C.2       6 UNK         0.5000 
     41 O           0.3933  -18.6983  -42.5535 O.2       6 UNK        -0.5000 
     42 CA          0.0671  -16.6057  -41.4359 C.3       6 UNK         0.1400 
     43 CB          1.3438  -15.9802  -40.8540 C.3       6 UNK        -0.1800 
     44 N          -0.8951  -15.5536  -41.7592 N.am      6 UNK        -0.5000 
     45 C          -2.1812  -15.7748  -42.0644 C.2       5 UNK         0.5000 
     46 O          -2.7036  -16.8907  -42.0767 O.2       5 UNK        -0.5000 
     47 CA         -3.0117  -14.5383  -42.4529 C.3       5 UNK         0.1400 
     48 CB         -3.5158  -13.8064  -41.2001 C.3       5 UNK        -0.1800 
     49 N          -2.2738  -13.5995  -43.3023 N.am      5 UNK        -0.5000 
     50 C          -1.8921  -13.8711  -44.5572 C.2       4 UNK         0.5000 
     51 O          -2.0891  -14.9500  -45.1152 O.2       4 UNK        -0.5000 
     52 CA         -1.1380  -12.7628  -45.3114 C.3       4 UNK         0.1400 
     53 CB         -2.1097  -11.6808  -45.8052 C.3       4 UNK        -0.1800 
     54 N          -0.0390  -12.1325  -44.5764 N.am      4 UNK        -0.5000 
     55 C           0.9791  -12.7701  -43.9838 C.2       3 UNK         0.5000 
     56 O           1.0384  -13.9922  -43.8432 O.2       3 UNK        -0.5000 
     57 CA          2.1652  -11.8858  -43.5670 C.3       3 UNK         0.1400 
     58 CB          3.1693  -12.6277  -42.6664 C.3       3 UNK        -0.1800 
     59 N           2.8469  -11.4584  -44.7873 N.am      3 UNK        -0.5000 
     60 C           2.7449  -10.2492  -45.3544 C.2       2 UNK         0.5000 
     61 O           2.1447   -9.3017  -44.8463 O.2       2 UNK        -0.5000 
     62 CA          3.3841  -10.0906  -46.7508 C.3       2 UNK         0.1400 
     63 CB          4.8792   -9.7593  -46.6278 C.3       2 UNK        -0.1800 
     64 N           3.2173  -11.2808  -47.5955 N.am      2 UNK        -0.5000 
     65 C           2.0315  -11.7395  -48.0285 C.2       1 UNK         0.5000 
     66 O           0.9791  -11.1327  -47.8139 O.2       1 UNK        -0.5000 
     67 C          -1.0765  -23.7139  -47.4629 C.2       11 UNK         0.5000 
     68 O          -1.1009  -24.5320  -48.3838 O.2       11 UNK        -0.5000 
     69 N          -2.0820  -23.5868  -46.5817 N.am      12 UNK        -0.5000 
     70 CA         -3.2419  -24.4814  -46.5277 C.3       12 UNK         0.1400 
     71 CB         -4.2962  -23.9329  -45.5562 C.3       12 UNK        -0.1800 
     72 C          -2.8682  -25.9284  -46.1539 C.2       12 UNK         0.5000 
     73 O          -3.5181  -26.8553  -46.6358 O.2       12 UNK        -0.5000 
     74 N          -1.7984  -26.1119  -45.3639 N.am      13 UNK        -0.5000 
     75 CA         -1.2411  -27.4278  -45.0304 C.3       13 UNK         0.1400 
     76 CB         -0.2627  -27.2908  -43.8546 C.3       13 UNK        -0.1800 
     77 C          -0.5571  -28.1085  -46.2343 C.2       13 UNK         0.5000 
     78 O          -0.4825  -29.3366  -46.2748 O.2       13 UNK        -0.5000 
     79 N          -0.1080  -27.3031  -47.2073 N.am      14 UNK        -0.5000 
     80 CA          0.4102  -27.7458  -48.5033 C.3       14 UNK         0.1400 
     81 CB          1.4920  -26.7543  -48.9662 C.3       14 UNK        -0.1800 
     82 C          -0.7034  -27.8868  -49.5650 C.2       14 UNK         0.5000 
     83 O          -0.4003  -28.2412  -50.7047 O.2       14 UNK        -0.5000 
     84 N          -1.9596  -27.6041  -49.1816 N.am      15 UNK        -0.5000 
     85 CA         -3.1788  -27.6280  -49.9959 C.3       15 UNK         0.1400 
     86 CB         -3.4970  -29.0621  -50.4689 C.3       15 UNK        -0.1800 
     87 C          -3.1724  -26.5966  -51.1444 C.2       15 UNK         0.5000 
     88 O          -3.7666  -26.8451  -52.1951 O.2       15 UNK        -0.5000 
     89 N          -2.5153  -25.4512  -50.9241 N.am      16 UNK        -0.5000 
     90 CA         -2.3859  -24.3663  -51.8936 C.3       16 UNK         0.1400 
     91 CB         -1.1684  -24.6227  -52.8035 C.3       16 UNK        -0.1800 
     92 C          -2.3117  -23.0310  -51.1410 C.2       16 UNK         0.5000 
     93 O          -1.3320  -22.3000  -51.2856 O.2       16 UNK        -0.5000 
     94 N          -3.3335  -22.7775  -50.3068 N.am      17 UNK        -0.5000 
     95 CA         -3.4876  -21.6134  -49.4277 C.3       17 UNK         0.1400 
     96 CB         -4.8990  -21.6279  -48.8224 C.3       17 UNK        -0.1800 
     97 C          -3.2208  -20.2716  -50.1313 C.2       17 UNK         0.5000 
     98 O          -3.7744  -20.0323  -51.2059 O.2       17 UNK        -0.5000 
     99 N          -2.3784  -19.4363  -49.5092 N.am      18 UNK        -0.5000 
    100 CA        -1.9027  -18.1658  -50.0509 C.3       18 UNK         0.1400 
    101 CB        -0.9237  -17.5252  -49.0598 C.3       18 UNK        -0.1800 
    102 C         -3.0615  -17.2124  -50.3894 C.2       18 UNK         0.5000 
    103 O         -3.9253  -16.9767  -49.5421 O.2       18 UNK        -0.5000 
    104 N         -3.0754  -16.7345  -51.6394 N.am      19 UNK        -0.5000 
    105 CA        -4.0996  -15.9396  -52.3286 C.3       19 UNK         0.1400 
    106 CB        -4.3315  -14.5842  -51.6347 C.3       19 UNK        -0.1800 
    107 C         -5.4317  -16.6809  -52.5717 C.2       19 UNK         0.5000 
    108 O         -6.0215  -16.5203  -53.6406 O.2       19 UNK        -0.5000 
    109 N         -5.8847  -17.4697  -51.5919 N.am      20 UNK        -0.5000 
    110 CA        -7.1541  -18.1921  -51.5959 C.3       20 UNK         0.1400 
    111 CB        -7.4476  -18.6782  -50.1683 C.3       20 UNK        -0.1800 
    112 C         -7.2120  -19.3689  -52.5879 C.2       20 UNK         0.5000 
    113 O         -8.2785  -19.6203  -53.1512 O.2       20 UNK        -0.5000 
    114 N         -6.0919  -20.0788  -52.7730 N.am      21 UNK        -0.5000 
    115 CA        -6.0130  -21.3124  -53.5554 C.3       21 UNK         0.1400 
    116 CB        -6.3487  -22.5181  -52.6558 C.3       21 UNK        -0.1800 
    117 C         -4.6568  -21.4517  -54.2705 C.2       21 UNK         0.5000 
    118 O         -4.1497  -22.5657  -54.4121 O.2       21 UNK        -0.5000 
    119 N         -4.1000  -20.3261  -54.7356 N.am      22 UNK        -0.5000 
    120 CA        -2.8771  -20.2895  -55.5613 C.3       22 UNK         0.1400 
    121 C         -3.0874  -20.7286  -57.0419 C.2       22 UNK         0.5000 
    122 N         -4.3128  -20.8716  -57.5329 N.am      22 UNK        -0.7600 
    123 O         -2.1161  -20.9513  -57.7593 O.2       22 UNK        -0.5000 
    124 C124       -2.1750  -18.9098  -55.5000 C.3       23 UNK        -0.0398 
    125 S125       -1.5692  -18.5241  -53.8268 S.3       23 UNK        -0.2404 
    126 C126        0.2143  -18.8035  -54.0224 C.3       23 UNK        -0.0205 
    127 H127       -1.5345  -14.7882  -47.9234 H         1 UNK         0.0600 
    128 H128       -2.1705  -14.6708  -49.5658 H         1 UNK         0.0600 
    129 H129       -2.3926  -13.3352  -48.4420 H         1 UNK         0.0600 
    130 H130        0.6681  -14.3657  -47.7689 H         1 UNK         0.3000 
    131 H131        2.1065  -12.8628  -49.8482 H         1 UNK         0.0600 
    132 H132        4.1361  -13.5785  -48.7958 H         1 UNK         0.0800 
    133 H133        3.3309  -14.0282  -47.3170 H         1 UNK         0.0800 
    134 H134        1.5616  -15.2203  -50.6290 H         1 UNK         0.0800 
    135 H135        3.1618  -15.4128  -51.3028 H         1 UNK         0.0800 
    136 H136        1.0735  -16.5184  -52.8116 H         1 UNK         0.1150 
    137 H137        0.9878  -20.7744  -52.3097 H         1 UNK         0.1150 
    138 H138        3.0119  -18.3507  -49.4416 H         1 UNK         0.1150 
    139 H139        2.1464  -21.8343  -50.5130 H         1 UNK         0.0800 
    140 H140        3.5700  -20.9538  -50.0335 H         1 UNK         0.0800 
    141 H141        0.2031  -22.1945  -49.3398 H         1 UNK         0.0800 
    142 H142       -0.4652  -20.9990  -48.2517 H         1 UNK         0.0800 
    143 H143        1.0282  -23.5180  -47.3916 H         1 UNK         0.0600 
    144 H144        0.1421  -21.2720  -45.8331 H         1 UNK         0.3000 
    145 H145        0.8175  -22.9534  -42.7007 H         1 UNK         0.0600 
    146 H146        2.1578  -20.8914  -42.5310 H         1 UNK         0.0600 
    147 H147        2.8832  -21.9642  -43.7182 H         1 UNK         0.0600 
    148 H148        1.9542  -20.5676  -44.2511 H         1 UNK         0.0600 
    149 H149       -0.2734  -20.3780  -43.1859 H         1 UNK         0.3000 
    150 H150       -3.7246  -21.3136  -42.7722 H         1 UNK         0.0600 
    151 H151       -2.6980  -21.0968  -40.5020 H         1 UNK         0.0600 
    152 H152       -3.4904  -19.6074  -40.9952 H         1 UNK         0.0600 
    153 H153       -1.7346  -19.7328  -41.0583 H         1 UNK         0.0600 
    154 H154       -2.4908  -18.7800  -43.2127 H         1 UNK         0.3000 
    155 H155       -2.7785  -18.8022  -46.7893 H         1 UNK         0.0600 
    156 H156       -4.0902  -17.1688  -44.5599 H         1 UNK         0.0600 
    157 H157       -3.9533  -16.7164  -46.2588 H         1 UNK         0.0600 
    158 H158       -4.9597  -18.0781  -45.7928 H         1 UNK         0.0600 
    159 H159       -1.6775  -16.8365  -45.1077 H         1 UNK         0.3000 
    160 H160        1.6998  -18.0992  -45.0213 H         1 UNK         0.0600 
    161 H161        2.0330  -15.8340  -45.9168 H         1 UNK         0.0600 
    162 H162        0.3067  -15.6529  -46.2292 H         1 UNK         0.0600 
    163 H163        1.2473  -16.8281  -47.1393 H         1 UNK         0.0600 
    164 H164        0.6050  -15.8029  -43.8002 H         1 UNK         0.3000 
    165 H165       -0.3748  -17.2510  -40.6737 H         1 UNK         0.0600 
    166 H166        1.1255  -15.3965  -39.9598 H         1 UNK         0.0600 
    167 H167        2.0602  -16.7526  -40.5716 H         1 UNK         0.0600 
    168 H168        1.8368  -15.3241  -41.5717 H         1 UNK         0.0600 
    169 H169       -0.5343  -14.6142  -41.8362 H         1 UNK         0.3000 
    170 H170       -3.8810  -14.8889  -43.0135 H         1 UNK         0.0600 
    171 H171       -2.6929  -13.4030  -40.6088 H         1 UNK         0.0600 
    172 H172       -4.1757  -12.9802  -41.4652 H         1 UNK         0.0600 
    173 H173       -4.0831  -14.4803  -40.5567 H         1 UNK         0.0600 
    174 H174       -2.0594  -12.6931  -42.9131 H         1 UNK         0.3000 
    175 H175       -0.6887  -13.2299  -46.1867 H         1 UNK         0.0600 
    176 H176       -1.6146  -10.9927  -46.4909 H         1 UNK         0.0600 
    177 H177       -2.5173  -11.0974  -44.9790 H         1 UNK         0.0600 
    178 H178       -2.9510  -12.1216  -46.3416 H         1 UNK         0.0600 
    179 H179        0.0263  -11.1281  -44.6641 H         1 UNK         0.3000 
    180 H180        1.7760  -11.0305  -43.0110 H         1 UNK         0.0600 
    181 H181        3.5893  -13.5054  -43.1596 H         1 UNK         0.0600 
    182 H182        2.6912  -12.9634  -41.7456 H         1 UNK         0.0600 
    183 H183        3.9966  -11.9768  -42.3836 H         1 UNK         0.0600 
    184 H184        3.3366  -12.1809  -45.2937 H         1 UNK         0.3000 
    185 H185        2.8904   -9.2524  -47.2473 H         1 UNK         0.0600 
    186 H186        5.4369  -10.5722  -46.1612 H         1 UNK         0.0600 
    187 H187        5.3219   -9.5650  -47.6049 H         1 UNK         0.0600 
    188 H188        5.0317   -8.8661  -46.0204 H         1 UNK         0.0600 
    189 H189        4.0599  -11.7903  -47.8174 H         1 UNK         0.3000 
    190 H190       -2.0217  -22.8759  -45.8642 H         1 UNK         0.3000 
    191 H191       -3.6865  -24.5113  -47.5245 H         1 UNK         0.0600 
    192 H192       -4.6893  -22.9764  -45.8969 H         1 UNK         0.0600 
    193 H193       -5.1446  -24.6135  -45.4737 H         1 UNK         0.0600 
    194 H194       -3.8900  -23.7933  -44.5548 H         1 UNK         0.0600 
    195 H195       -1.2934  -25.3051  -45.0188 H         1 UNK         0.3000 
    196 H196       -2.0635  -28.0714  -44.7106 H         1 UNK         0.0600 
    197 H197        0.0717  -28.2712  -43.5132 H         1 UNK         0.0600 
    198 H198       -0.7296  -26.7919  -43.0051 H         1 UNK         0.0600 
    199 H199        0.6261  -26.7241  -44.1318 H         1 UNK         0.0600 
    200 H200       -0.2294  -26.3059  -47.0988 H         1 UNK         0.3000 
    201 H201        0.8780  -28.7259  -48.3917 H         1 UNK         0.0600 
    202 H202        2.2765  -26.6475  -48.2169 H         1 UNK         0.0600 
    203 H203        1.0803  -25.7648  -49.1645 H         1 UNK         0.0600 
    204 H204        1.9682  -27.0975  -49.8854 H         1 UNK         0.0600 
    205 H205       -2.1041  -27.3305  -48.2184 H         1 UNK         0.3000 
    206 H206       -3.9875  -27.3215  -49.3313 H         1 UNK         0.0600 
    207 H207       -3.5030  -29.7605  -49.6320 H         1 UNK         0.0600 
    208 H208       -4.4810  -29.1108  -50.9364 H         1 UNK         0.0600 
    209 H209       -2.7711  -29.4194  -51.1997 H         1 UNK         0.0600 
    210 H210       -2.0508  -25.3016  -50.0324 H         1 UNK         0.3000 
    211 H211       -3.2799  -24.3209  -52.5187 H         1 UNK         0.0600 
    212 H212       -0.2441  -24.6825  -52.2275 H         1 UNK         0.0600 
    213 H213       -1.0537  -23.8223  -53.5357 H         1 UNK         0.0600 
    214 H214       -1.2786  -25.5551  -53.3571 H         1 UNK         0.0600 
    215 H215       -4.0791  -23.4554  -50.2694 H         1 UNK         0.3000 
    216 H216       -2.7736  -21.7235  -48.6131 H         1 UNK         0.0600 
    217 H217       -5.0329  -20.7997  -48.1249 H         1 UNK         0.0600 
    218 H218       -5.0858  -22.5482  -48.2705 H         1 UNK         0.0600 
    219 H219       -5.6667  -21.5397  -49.5918 H         1 UNK         0.0600 
    220 H220       -1.9961  -19.7000  -48.6155 H         1 UNK         0.3000 
    221 H221       -1.3481  -18.4009  -50.9588 H         1 UNK         0.0600 
    222 H222       -1.4303  -17.1920  -48.1551 H         1 UNK         0.0600 
    223 H223       -0.1356  -18.2219  -48.7726 H         1 UNK         0.0600 
    224 H224       -0.4371  -16.6574  -49.5044 H         1 UNK         0.0600 
    225 H225       -2.3464  -17.0715  -52.2566 H         1 UNK         0.3000 
    226 H226       -3.6842  -15.7301  -53.3156 H         1 UNK         0.0600 
    227 H227       -3.4051  -14.0142  -51.5656 H         1 UNK         0.0600 
    228 H228       -5.0421  -13.9774  -52.1972 H         1 UNK         0.0600 
    229 H229       -4.7323  -14.7010  -50.6276 H         1 UNK         0.0600 
    230 H230       -5.3267  -17.5223  -50.7450 H         1 UNK         0.3000 
    231 H231       -7.9384  -17.4874  -51.8801 H         1 UNK         0.0600 
    232 H232       -6.6590  -19.3341  -49.7996 H         1 UNK         0.0600 
    233 H233       -8.3861  -19.2326  -50.1258 H         1 UNK         0.0600 
    234 H234       -7.5337  -17.8396  -49.4770 H         1 UNK         0.0600 
    235 H235       -5.2484  -19.8382  -52.2517 H         1 UNK         0.3000 
    236 H236       -6.7543  -21.2778  -54.3561 H         1 UNK         0.0600 
    237 H237       -7.3377  -22.4162  -52.2092 H         1 UNK         0.0600 
    238 H238       -6.3467  -23.4495  -53.2232 H         1 UNK         0.0600 
    239 H239       -5.6265  -22.6219  -51.8479 H         1 UNK         0.0600 
    240 H240       -4.5657  -19.4462  -54.5704 H         1 UNK         0.3000 
    241 H241       -2.1801  -21.0194  -55.1439 H         1 UNK         0.0600 
    242 H242       -5.1221  -20.6894  -56.9621 H         1 UNK         0.3800 
    243 H243       -4.4315  -21.1608  -58.4913 H         1 UNK         0.3800 
    244 H244       -1.3328  -18.8657  -56.1932 H         1 UNK         0.0800 
    245 H245       -2.8607  -18.1204  -55.8113 H         1 UNK         0.0800 
    246 H246        0.6154  -18.0945  -54.7483 H         1 UNK         0.0800 
    247 H247        0.3786  -19.7987  -54.4389 H         1 UNK         0.0800 
@<TRIPOS>BOND
     1    1    2 1    
     2    1  127 1    
     3    1  128 1    
     4    1  129 1    
     5    2    3 2    
     6    2    4 am   BACKBONE|DICT|INTERRES
     7    4    5 1    
     8    4  130 1    
     9    5    6 1    
    10    5   65 1    
    11    5  131 1    
    12    6    7 1    
    13    6  132 1    
    14    6  133 1    
    15    7    8 1    
    16    8    9 1    
    17    8  134 1    
    18    8  135 1    
    19    9   10 ar   
    20    9   14 ar   
    21   10   11 ar   
    22   10  136 1    
    23   11   12 ar   
    24   11  126 1    
    25   12   13 ar   
    26   12  137 1    
    27   13   14 ar   
    28   13   15 1    
    29   14  138 1    
    30   15   16 1    
    31   15  139 1    
    32   15  140 1    
    33   16   17 1    
    34   17   18 1    
    35   17  141 1    
    36   17  142 1    
    37   18   19 1    
    38   18   67 1    
    39   18  143 1    
    40   19   20 am   BACKBONE|DICT|INTERRES
    41   19  144 1    
    42   20   21 2    
    43   20   22 1    
    44   22   23 1    
    45   22   24 1    
    46   22  145 1    
    47   23  146 1    
    48   23  147 1    
    49   23  148 1    
    50   24   25 am   BACKBONE|DICT|INTERRES
    51   24  149 1    
    52   25   26 2    
    53   25   27 1    
    54   27   28 1    
    55   27   29 1    
    56   27  150 1    
    57   28  151 1    
    58   28  152 1    
    59   28  153 1    
    60   29   30 am   BACKBONE|DICT|INTERRES
    61   29  154 1    
    62   30   31 2    
    63   30   32 1    
    64   32   33 1    
    65   32   34 1    
    66   32  155 1    
    67   33  156 1    
    68   33  157 1    
    69   33  158 1    
    70   34   35 am   BACKBONE|DICT|INTERRES
    71   34  159 1    
    72   35   36 2    
    73   35   37 1    
    74   37   38 1    
    75   37   39 1    
    76   37  160 1    
    77   38  161 1    
    78   38  162 1    
    79   38  163 1    
    80   39   40 am   BACKBONE|DICT|INTERRES
    81   39  164 1    
    82   40   41 2    
    83   40   42 1    
    84   42   43 1    
    85   42   44 1    
    86   42  165 1    
    87   43  166 1    
    88   43  167 1    
    89   43  168 1    
    90   44   45 am   BACKBONE|DICT|INTERRES
    91   44  169 1    
    92   45   46 2    
    93   45   47 1    
    94   47   48 1    
    95   47   49 1    
    96   47  170 1    
    97   48  171 1    
    98   48  172 1    
    99   48  173 1    
   100   49   50 am   BACKBONE|DICT|INTERRES
   101   49  174 1    
   102   50   51 2    
   103   50   52 1    
   104   52   53 1    
   105   52   54 1    
   106   52  175 1    
   107   53  176 1    
   108   53  177 1    
   109   53  178 1    
   110   54   55 am   BACKBONE|DICT|INTERRES
   111   54  179 1    
   112   55   56 2    
   113   55   57 1    
   114   57   58 1    
   115   57   59 1    
   116   57  180 1    
   117   58  181 1    
   118   58  182 1    
   119   58  183 1    
   120   59   60 am   BACKBONE|DICT|INTERRES
   121   59  184 1    
   122   60   61 2    
   123   60   62 1    
   124   62   63 1    
   125   62   64 1    
   126   62  185 1    
   127   63  186 1    
   128   63  187 1    
   129   63  188 1    
   130   64   65 am   BACKBONE|DICT|INTERRES
   131   64  189 1    
   132   65   66 2    
   133   67   68 2    
   134   67   69 am   BACKBONE|DICT|INTERRES
   135   69   70 1    
   136   69  190 1    
   137   70   71 1    
   138   70   72 1    
   139   70  191 1    
   140   71  192 1    
   141   71  193 1    
   142   71  194 1    
   143   72   73 2    
   144   72   74 am   BACKBONE|DICT|INTERRES
   145   74   75 1    
   146   74  195 1    
   147   75   76 1    
   148   75   77 1    
   149   75  196 1    
   150   76  197 1    
   151   76  198 1    
   152   76  199 1    
   153   77   78 2    
   154   77   79 am   BACKBONE|DICT|INTERRES
   155   79   80 1    
   156   79  200 1    
   157   80   81 1    
   158   80   82 1    
   159   80  201 1    
   160   81  202 1    
   161   81  203 1    
   162   81  204 1    
   163   82   83 2    
   164   82   84 am   BACKBONE|DICT|INTERRES
   165   84   85 1    
   166   84  205 1    
   167   85   86 1    
   168   85   87 1    
   169   85  206 1    
   170   86  207 1    
   171   86  208 1    
   172   86  209 1    
   173   87   88 2    
   174   87   89 am   BACKBONE|DICT|INTERRES
   175   89   90 1    
   176   89  210 1    
   177   90   91 1    
   178   90   92 1    
   179   90  211 1    
   180   91  212 1    
   181   91  213 1    
   182   91  214 1    
   183   92   93 2    
   184   92   94 am   BACKBONE|DICT|INTERRES
   185   94   95 1    
   186   94  215 1    
   187   95   96 1    
   188   95   97 1    
   189   95  216 1    
   190   96  217 1    
   191   96  218 1    
   192   96  219 1    
   193   97   98 2    
   194   97   99 am   BACKBONE|DICT|INTERRES
   195   99  100 1    
   196   99  220 1    
   197  100  101 1    
   198  100  102 1    
   199  100  221 1    
   200  101  222 1    
   201  101  223 1    
   202  101  224 1    
   203  102  103 2    
   204  102  104 am   BACKBONE|DICT|INTERRES
   205  104  105 1    
   206  104  225 1    
   207  105  106 1    
   208  105  107 1    
   209  105  226 1    
   210  106  227 1    
   211  106  228 1    
   212  106  229 1    
   213  107  108 2    
   214  107  109 am   BACKBONE|DICT|INTERRES
   215  109  110 1    
   216  109  230 1    
   217  110  111 1    
   218  110  112 1    
   219  110  231 1    
   220  111  232 1    
   221  111  233 1    
   222  111  234 1    
   223  112  113 2    
   224  112  114 am   BACKBONE|DICT|INTERRES
   225  114  115 1    
   226  114  235 1    
   227  115  116 1    
   228  115  117 1    
   229  115  236 1    
   230  116  237 1    
   231  116  238 1    
   232  116  239 1    
   233  117  118 2    
   234  117  119 am   BACKBONE|DICT|INTERRES
   235  119  120 1    
   236  119  240 1    
   237  120  121 1    
   238  120  124 1    
   239  120  241 1    
   240  121  122 am   BACKBONE|DICT|INTERRES
   241  121  123 2    
   242  122  242 1    
   243  122  243 1    
   244  124  125 1    
   245  124  244 1    
   246  124  245 1    
   247  125  126 1    
   248  126  246 1    
   249  126  247 1    
@<TRIPOS>SUBSTRUCTURE
     1 UNK         1 GROUP             0       ****    0 ROOT    
