@<TRIPOS>MOLECULE
3R540
247   249    1
SMALL
USER_CHARGES


@<TRIPOS>ATOM
      1 CA         -6.4107  -15.6469  -46.5530 C.3       0 UNK        -0.1800 
      2 C          -5.2628  -14.6491  -46.5744 C.2       0 UNK         0.5000 
      3 O          -5.4212  -13.5133  -46.1268 O.2       0 UNK        -0.5000 
      4 N          -4.0982  -15.0706  -47.0747 N.am      1 UNK        -0.5000 
      5 CA         -2.8820  -14.2683  -47.2271 C.3       1 UNK         0.1400 
      6 C6         -2.0556  -14.7188  -48.4573 C.3       23 UNK        -0.0398 
      7 S7         -2.9863  -14.7429  -50.0259 S.3       23 UNK        -0.2404 
      8 C8         -1.6291  -14.9086  -51.2304 C.3       23 UNK        -0.0205 
      9 C9         -0.8819  -16.2294  -51.0932 C.ar      23 UNK        -0.0193 
     10 C10        -1.2691  -17.3458  -51.8396 C.ar      23 UNK        -0.1150 
     11 C11        -0.5477  -18.5416  -51.7560 C.ar      23 UNK        -0.0193 
     12 C12         0.5372  -18.6309  -50.8771 C.ar      23 UNK        -0.1150 
     13 C13         0.9193  -17.5285  -50.1069 C.ar      23 UNK        -0.0193 
     14 C14         0.2204  -16.3262  -50.2396 C.ar      23 UNK        -0.1150 
     15 C15         2.1024  -17.6192  -49.1511 C.3       23 UNK        -0.0205 
     16 S16         1.7747  -18.6770  -47.7018 S.3       23 UNK        -0.2404 
     17 C17         0.3517  -17.8566  -46.9024 C.3       23 UNK        -0.0398 
     18 CA         -0.7630  -18.8663  -46.5479 C.3       11 UNK         0.1400 
     19 N          -0.2980  -19.9421  -45.6603 N.am      11 UNK        -0.5000 
     20 C          -0.9716  -21.0779  -45.4331 C.2       10 UNK         0.5000 
     21 O          -2.0980  -21.2987  -45.8793 O.2       10 UNK        -0.5000 
     22 CA         -0.2897  -22.1153  -44.5263 C.3       10 UNK         0.1400 
     23 CB          0.8841  -22.7897  -45.2531 C.3       10 UNK        -0.1800 
     24 N           0.1756  -21.5468  -43.2589 N.am      10 UNK        -0.5000 
     25 C          -0.6298  -21.0512  -42.3075 C.2       9 UNK         0.5000 
     26 O          -1.8502  -20.9611  -42.4411 O.2       9 UNK        -0.5000 
     27 CA          0.0350  -20.5648  -41.0005 C.3       9 UNK         0.1400 
     28 CB         -0.9136  -20.6396  -39.7862 C.3       9 UNK        -0.1800 
     29 N           1.3190  -21.2101  -40.6993 N.am      9 UNK        -0.5000 
     30 C           1.5433  -22.5094  -40.4384 C.2       8 UNK         0.5000 
     31 O           0.6678  -23.3747  -40.4657 O.2       8 UNK        -0.5000 
     32 CA          2.9922  -22.9250  -40.0994 C.3       8 UNK         0.1400 
     33 CB          3.6531  -23.5877  -41.3186 C.3       8 UNK        -0.1800 
     34 N           3.8370  -21.8136  -39.6565 N.am      8 UNK        -0.5000 
     35 C           3.7044  -21.1514  -38.4981 C.2       7 UNK         0.5000 
     36 O           2.9174  -21.4834  -37.6111 O.2       7 UNK        -0.5000 
     37 CA          4.5738  -19.8876  -38.3062 C.3       7 UNK         0.1400 
     38 CB          5.7637  -20.1924  -37.3830 C.3       7 UNK        -0.1800 
     39 N           5.0805  -19.2843  -39.5481 N.am      7 UNK        -0.5000 
     40 C           4.3281  -18.8390  -40.5640 C.2       6 UNK         0.5000 
     41 O           3.0965  -18.9215  -40.5778 O.2       6 UNK        -0.5000 
     42 CA          5.0805  -18.2645  -41.7825 C.3       6 UNK         0.1400 
     43 CB          6.0411  -19.3062  -42.3840 C.3       6 UNK        -0.1800 
     44 N           4.1302  -17.8704  -42.8201 N.am      6 UNK        -0.5000 
     45 C           3.4948  -16.6956  -42.8778 C.2       5 UNK         0.5000 
     46 O           3.7712  -15.7179  -42.1785 O.2       5 UNK        -0.5000 
     47 CA          2.3040  -16.6480  -43.8482 C.3       5 UNK         0.1400 
     48 CB          0.9992  -17.0042  -43.1172 C.3       5 UNK        -0.1800 
     49 N           2.1470  -15.3471  -44.4902 N.am      5 UNK        -0.5000 
     50 C           2.9251  -14.8921  -45.4810 C.2       4 UNK         0.5000 
     51 O           3.8936  -15.5132  -45.9207 O.2       4 UNK        -0.5000 
     52 CA          2.5475  -13.5430  -46.1229 C.3       4 UNK         0.1400 
     53 CB          2.0910  -13.7565  -47.5760 C.3       4 UNK        -0.1800 
     54 N           1.4735  -12.8593  -45.4005 N.am      4 UNK        -0.5000 
     55 C           1.6561  -11.8926  -44.4902 C.2       3 UNK         0.5000 
     56 O           2.7632  -11.4620  -44.1657 O.2       3 UNK        -0.5000 
     57 CA          0.3951  -11.2967  -43.8289 C.3       3 UNK         0.1400 
     58 CB          0.0171   -9.9670  -44.4995 C.3       3 UNK        -0.1800 
     59 N          -0.7649  -12.1898  -43.8665 N.am      3 UNK        -0.5000 
     60 C          -0.8720  -13.3302  -43.1720 C.2       2 UNK         0.5000 
     61 O          -0.0172  -13.7290  -42.3825 O.2       2 UNK        -0.5000 
     62 CA         -2.1156  -14.1983  -43.4417 C.3       2 UNK         0.1400 
     63 CB         -3.2107  -13.9269  -42.4008 C.3       2 UNK        -0.1800 
     64 N          -2.6822  -14.0473  -44.7859 N.am      2 UNK        -0.5000 
     65 C          -2.0457  -14.3363  -45.9291 C.2       1 UNK         0.5000 
     66 O          -0.8603  -14.6733  -45.9676 O.2       1 UNK        -0.5000 
     67 C          -2.0196  -18.1508  -46.0092 C.2       11 UNK         0.5000 
     68 O          -2.7847  -17.6109  -46.8062 O.2       11 UNK        -0.5000 
     69 N          -2.2764  -18.2324  -44.6942 N.am      12 UNK        -0.5000 
     70 CA         -3.5181  -17.7732  -44.0610 C.3       12 UNK         0.1400 
     71 CB         -3.3505  -17.7913  -42.5339 C.3       12 UNK        -0.1800 
     72 C          -4.7606  -18.5866  -44.4879 C.2       12 UNK         0.5000 
     73 O          -5.8768  -18.0845  -44.3662 O.2       12 UNK        -0.5000 
     74 N          -4.5449  -19.8000  -45.0135 N.am      13 UNK        -0.5000 
     75 CA         -5.5450  -20.6439  -45.6685 C.3       13 UNK         0.1400 
     76 CB         -5.5128  -22.0343  -45.0094 C.3       13 UNK        -0.1800 
     77 C          -5.2816  -20.7331  -47.1886 C.2       13 UNK         0.5000 
     78 O          -5.7540  -21.6719  -47.8320 O.2       13 UNK        -0.5000 
     79 N          -4.4892  -19.7908  -47.7301 N.am      14 UNK        -0.5000 
     80 CA         -4.0153  -19.6896  -49.1183 C.3       14 UNK         0.1400 
     81 CB         -5.1793  -19.3123  -50.0545 C.3       14 UNK        -0.1800 
     82 C          -3.2321  -20.9307  -49.6016 C.2       14 UNK         0.5000 
     83 O          -3.1948  -21.2054  -50.8002 O.2       14 UNK        -0.5000 
     84 N          -2.6412  -21.6709  -48.6500 N.am      15 UNK        -0.5000 
     85 CA         -1.9684  -22.9607  -48.8122 C.3       15 UNK         0.1400 
     86 CB         -0.5867  -22.7713  -49.4681 C.3       15 UNK        -0.1800 
     87 C          -2.8634  -24.0425  -49.4617 C.2       15 UNK         0.5000 
     88 O          -2.3715  -24.9002  -50.1981 O.2       15 UNK        -0.5000 
     89 N          -4.1688  -23.9849  -49.1491 N.am      16 UNK        -0.5000 
     90 CA         -5.2338  -24.8900  -49.5827 C.3       16 UNK         0.1400 
     91 CB         -5.0777  -26.2666  -48.8976 C.3       16 UNK        -0.1800 
     92 C          -5.3455  -24.9538  -51.1199 C.2       16 UNK         0.5000 
     93 O          -5.6779  -23.9443  -51.7420 O.2       16 UNK        -0.5000 
     94 N          -5.0587  -26.1230  -51.7091 N.am      17 UNK        -0.5000 
     95 CA         -5.1250  -26.3949  -53.1478 C.3       17 UNK         0.1400 
     96 CB         -4.8617  -27.8899  -53.3827 C.3       17 UNK        -0.1800 
     97 C          -4.1707  -25.5395  -54.0051 C.2       17 UNK         0.5000 
     98 O          -4.4295  -25.3627  -55.1966 O.2       17 UNK        -0.5000 
     99 N          -3.1073  -24.9981  -53.3922 N.am      18 UNK        -0.5000 
    100 CA        -2.1502  -24.0949  -54.0332 C.3       18 UNK         0.1400 
    101 CB        -0.9589  -23.8687  -53.0973 C.3       18 UNK        -0.1800 
    102 C         -2.7573  -22.7439  -54.4565 C.2       18 UNK         0.5000 
    103 O         -2.1941  -22.0942  -55.3358 O.2       18 UNK        -0.5000 
    104 N         -3.9063  -22.3569  -53.8805 N.am      19 UNK        -0.5000 
    105 CA        -4.6491  -21.1365  -54.2104 C.3       19 UNK         0.1400 
    106 CB        -5.9179  -21.0717  -53.3500 C.3       19 UNK        -0.1800 
    107 C         -5.0137  -21.0139  -55.7034 C.2       19 UNK         0.5000 
    108 O         -5.0238  -19.9043  -56.2371 O.2       19 UNK        -0.5000 
    109 N         -5.2533  -22.1585  -56.3596 N.am      20 UNK        -0.5000 
    110 CA        -5.5097  -22.2615  -57.7962 C.3       20 UNK         0.1400 
    111 CB        -6.0113  -23.6790  -58.1102 C.3       20 UNK        -0.1800 
    112 C         -4.2834  -21.9177  -58.6666 C.2       20 UNK         0.5000 
    113 O         -4.4611  -21.4802  -59.8041 O.2       20 UNK        -0.5000 
    114 N         -3.0722  -22.1141  -58.1272 N.am      21 UNK        -0.5000 
    115 CA        -1.8120  -21.7441  -58.7684 C.3       21 UNK         0.1400 
    116 CB        -0.7107  -22.7330  -58.3529 C.3       21 UNK        -0.1800 
    117 C         -1.4163  -20.3003  -58.4165 C.2       21 UNK         0.5000 
    118 O         -0.9507  -19.5739  -59.2959 O.2       21 UNK        -0.5000 
    119 N         -1.6108  -19.9084  -57.1491 N.am      22 UNK        -0.5000 
    120 CA        -1.3370  -18.5515  -56.6472 C.3       22 UNK         0.1400 
    121 C         -2.2701  -17.4605  -57.2451 C.2       22 UNK         0.5000 
    122 N         -3.5483  -17.7413  -57.4689 N.am      22 UNK        -0.7600 
    123 O         -1.8274  -16.3462  -57.5096 O.2       22 UNK        -0.5000 
    124 C124       -1.3602  -18.4698  -55.1007 C.3       23 UNK        -0.0398 
    125 S125       -0.1955  -19.6158  -54.2872 S.3       23 UNK        -0.2404 
    126 C126       -0.9282  -19.7324  -52.6235 C.3       23 UNK        -0.0205 
    127 H127       -6.0939  -16.6348  -46.8896 H         1 UNK         0.0600 
    128 H128       -7.2154  -15.3065  -47.2044 H         1 UNK         0.0600 
    129 H129       -6.8063  -15.7426  -45.5420 H         1 UNK         0.0600 
    130 H130       -3.9833  -16.0444  -47.3329 H         1 UNK         0.3000 
    131 H131       -3.1565  -13.2224  -47.3787 H         1 UNK         0.0600 
    132 H132       -1.6742  -15.7258  -48.2991 H         1 UNK         0.0800 
    133 H133       -1.1882  -14.0684  -48.5816 H         1 UNK         0.0800 
    134 H134       -0.9381  -14.0717  -51.1171 H         1 UNK         0.0800 
    135 H135       -2.0424  -14.8222  -52.2364 H         1 UNK         0.0800 
    136 H136       -2.1174  -17.2750  -52.5052 H         1 UNK         0.1150 
    137 H137        1.0909  -19.5558  -50.7964 H         1 UNK         0.1150 
    138 H138        0.5301  -15.4622  -49.6704 H         1 UNK         0.1150 
    139 H139        2.9627  -18.0195  -49.6890 H         1 UNK         0.0800 
    140 H140        2.3980  -16.6288  -48.8023 H         1 UNK         0.0800 
    141 H141       -0.0341  -17.0848  -47.5650 H         1 UNK         0.0800 
    142 H142        0.6940  -17.3277  -46.0178 H         1 UNK         0.0800 
    143 H143       -1.0690  -19.3393  -47.4840 H         1 UNK         0.0600 
    144 H144        0.6275  -19.8393  -45.2720 H         1 UNK         0.3000 
    145 H145       -1.0296  -22.8848  -44.2955 H         1 UNK         0.0600 
    146 H146        1.3075  -23.5950  -44.6523 H         1 UNK         0.0600 
    147 H147        0.5588  -23.2277  -46.1979 H         1 UNK         0.0600 
    148 H148        1.6845  -22.0836  -45.4776 H         1 UNK         0.0600 
    149 H149        1.1653  -21.5955  -43.0692 H         1 UNK         0.3000 
    150 H150        0.2643  -19.5112  -41.1567 H         1 UNK         0.0600 
    151 H151       -1.7988  -20.0214  -39.9410 H         1 UNK         0.0600 
    152 H152       -0.4235  -20.2800  -38.8814 H         1 UNK         0.0600 
    153 H153       -1.2555  -21.6582  -39.6009 H         1 UNK         0.0600 
    154 H154        2.1039  -20.5669  -40.6373 H         1 UNK         0.3000 
    155 H155        2.9427  -23.6592  -39.2927 H         1 UNK         0.0600 
    156 H156        3.7464  -22.8928  -42.1542 H         1 UNK         0.0600 
    157 H157        3.0687  -24.4411  -41.6655 H         1 UNK         0.0600 
    158 H158        4.6496  -23.9568  -41.0753 H         1 UNK         0.0600 
    159 H159        4.5233  -21.4779  -40.3152 H         1 UNK         0.3000 
    160 H160        3.9447  -19.1417  -37.8164 H         1 UNK         0.0600 
    161 H161        6.4489  -20.9104  -37.8352 H         1 UNK         0.0600 
    162 H162        5.4266  -20.6129  -36.4345 H         1 UNK         0.0600 
    163 H163        6.3270  -19.2881  -37.1521 H         1 UNK         0.0600 
    164 H164        6.0841  -19.1947  -39.6152 H         1 UNK         0.3000 
    165 H165        5.6557  -17.3958  -41.4558 H         1 UNK         0.0600 
    166 H166        6.5311  -18.9172  -43.2769 H         1 UNK         0.0600 
    167 H167        6.8305  -19.5759  -41.6818 H         1 UNK         0.0600 
    168 H168        5.5206  -20.2234  -42.6632 H         1 UNK         0.0600 
    169 H169        3.8106  -18.6174  -43.4181 H         1 UNK         0.3000 
    170 H170        2.4746  -17.3909  -44.6298 H         1 UNK         0.0600 
    171 H171        0.8370  -16.3624  -42.2502 H         1 UNK         0.0600 
    172 H172        0.1310  -16.9058  -43.7676 H         1 UNK         0.0600 
    173 H173        1.0289  -18.0332  -42.7616 H         1 UNK         0.0600 
    174 H174        1.4087  -14.7532  -44.1408 H         1 UNK         0.3000 
    175 H175        3.4458  -12.9225  -46.1378 H         1 UNK         0.0600 
    176 H176        1.2343  -14.4280  -47.6310 H         1 UNK         0.0600 
    177 H177        1.8106  -12.8139  -48.0461 H         1 UNK         0.0600 
    178 H178        2.8894  -14.1933  -48.1771 H         1 UNK         0.0600 
    179 H179        0.5356  -13.1979  -45.5835 H         1 UNK         0.3000 
    180 H180        0.6370  -11.0959  -42.7830 H         1 UNK         0.0600 
    181 H181       -0.8278   -9.4968  -43.9960 H         1 UNK         0.0600 
    182 H182       -0.2504  -10.1068  -45.5477 H         1 UNK         0.0600 
    183 H183        0.8480   -9.2612  -44.4642 H         1 UNK         0.0600 
    184 H184       -1.5147  -11.9380  -44.4935 H         1 UNK         0.3000 
    185 H185       -1.7994  -15.2376  -43.3402 H         1 UNK         0.0600 
    186 H186       -4.0527  -14.6080  -42.5268 H         1 UNK         0.0600 
    187 H187       -2.8308  -14.0662  -41.3878 H         1 UNK         0.0600 
    188 H188       -3.5896  -12.9068  -42.4734 H         1 UNK         0.0600 
    189 H189       -3.6540  -13.7673  -44.8472 H         1 UNK         0.3000 
    190 H190       -1.6365  -18.7474  -44.1078 H         1 UNK         0.3000 
    191 H191       -3.6872  -16.7406  -44.3714 H         1 UNK         0.0600 
    192 H192       -4.2030  -17.3168  -42.0466 H         1 UNK         0.0600 
    193 H193       -2.4562  -17.2537  -42.2197 H         1 UNK         0.0600 
    194 H194       -3.2828  -18.8077  -42.1475 H         1 UNK         0.0600 
    195 H195       -3.5939  -20.1498  -45.0626 H         1 UNK         0.3000 
    196 H196       -6.5452  -20.2258  -45.5414 H         1 UNK         0.0600 
    197 H197       -4.5518  -22.5279  -45.1607 H         1 UNK         0.0600 
    198 H198       -5.6864  -21.9639  -43.9356 H         1 UNK         0.0600 
    199 H199       -6.2864  -22.6846  -45.4195 H         1 UNK         0.0600 
    200 H200       -4.1363  -19.0636  -47.1189 H         1 UNK         0.3000 
    201 H201       -3.3009  -18.8655  -49.1419 H         1 UNK         0.0600 
    202 H202       -4.8220  -19.1160  -51.0661 H         1 UNK         0.0600 
    203 H203       -5.6823  -18.4086  -49.7105 H         1 UNK         0.0600 
    204 H204       -5.9221  -20.1082  -50.1134 H         1 UNK         0.0600 
    205 H205       -2.7201  -21.3632  -47.6853 H         1 UNK         0.3000 
    206 H206       -1.7856  -23.3299  -47.8023 H         1 UNK         0.0600 
    207 H207        0.0720  -22.1988  -48.8146 H         1 UNK         0.0600 
    208 H208       -0.0963  -23.7256  -49.6627 H         1 UNK         0.0600 
    209 H209       -0.6538  -22.2294  -50.4084 H         1 UNK         0.0600 
    210 H210       -4.4877  -23.1917  -48.6032 H         1 UNK         0.3000 
    211 H211       -6.1687  -24.4516  -49.2305 H         1 UNK         0.0600 
    212 H212       -5.8976  -26.9350  -49.1638 H         1 UNK         0.0600 
    213 H213       -5.0934  -26.1614  -47.8127 H         1 UNK         0.0600 
    214 H214       -4.1423  -26.7598  -49.1642 H         1 UNK         0.0600 
    215 H215       -4.7653  -26.8900  -51.1218 H         1 UNK         0.3000 
    216 H216       -6.1412  -26.1703  -53.4782 H         1 UNK         0.0600 
    217 H217       -3.8666  -28.1805  -53.0435 H         1 UNK         0.0600 
    218 H218       -4.9327  -28.1382  -54.4426 H         1 UNK         0.0600 
    219 H219       -5.5906  -28.5073  -52.8572 H         1 UNK         0.0600 
    220 H220       -2.9762  -25.1686  -52.4021 H         1 UNK         0.3000 
    221 H221       -1.7836  -24.5836  -54.9381 H         1 UNK         0.0600 
    222 H222       -0.4840  -24.8090  -52.8172 H         1 UNK         0.0600 
    223 H223       -1.2801  -23.3671  -52.1876 H         1 UNK         0.0600 
    224 H224       -0.2003  -23.2421  -53.5686 H         1 UNK         0.0600 
    225 H225       -4.3052  -22.9383  -53.1524 H         1 UNK         0.3000 
    226 H226       -4.0154  -20.2878  -53.9509 H         1 UNK         0.0600 
    227 H227       -6.6068  -21.8831  -53.5884 H         1 UNK         0.0600 
    228 H228       -5.6766  -21.1459  -52.2903 H         1 UNK         0.0600 
    229 H229       -6.4478  -20.1306  -53.5014 H         1 UNK         0.0600 
    230 H230       -5.1936  -23.0283  -55.8472 H         1 UNK         0.3000 
    231 H231       -6.3017  -21.5538  -58.0496 H         1 UNK         0.0600 
    232 H232       -5.2663  -24.4340  -57.8552 H         1 UNK         0.0600 
    233 H233       -6.2400  -23.7874  -59.1712 H         1 UNK         0.0600 
    234 H234       -6.9225  -23.9071  -57.5569 H         1 UNK         0.0600 
    235 H235       -3.0081  -22.4119  -57.1610 H         1 UNK         0.3000 
    236 H236       -1.9214  -21.8088  -59.8531 H         1 UNK         0.0600 
    237 H237       -0.5157  -22.7026  -57.2808 H         1 UNK         0.0600 
    238 H238       -0.9808  -23.7560  -58.6152 H         1 UNK         0.0600 
    239 H239        0.2269  -22.5037  -58.8606 H         1 UNK         0.0600 
    240 H240       -1.9285  -20.5908  -56.4666 H         1 UNK         0.3000 
    241 H241       -0.3233  -18.2990  -56.9650 H         1 UNK         0.0600 
    242 H242       -4.1462  -17.0323  -57.8616 H         1 UNK         0.3800 
    243 H243       -3.9531  -18.6267  -57.1769 H         1 UNK         0.3800 
    244 H244       -2.3688  -18.6684  -54.7360 H         1 UNK         0.0800 
    245 H245       -1.1068  -17.4594  -54.7750 H         1 UNK         0.0800 
    246 H246       -2.0122  -19.8171  -52.6961 H         1 UNK         0.0800 
    247 H247       -0.5866  -20.6575  -52.1594 H         1 UNK         0.0800 
@<TRIPOS>BOND
     1    1    2 1    
     2    1  127 1    
     3    1  128 1    
     4    1  129 1    
     5    2    3 2    
     6    2    4 am   BACKBONE|DICT|INTERRES
     7    4    5 1    
     8    4  130 1    
     9    5    6 1    
    10    5   65 1    
    11    5  131 1    
    12    6    7 1    
    13    6  132 1    
    14    6  133 1    
    15    7    8 1    
    16    8    9 1    
    17    8  134 1    
    18    8  135 1    
    19    9   10 ar   
    20    9   14 ar   
    21   10   11 ar   
    22   10  136 1    
    23   11   12 ar   
    24   11  126 1    
    25   12   13 ar   
    26   12  137 1    
    27   13   14 ar   
    28   13   15 1    
    29   14  138 1    
    30   15   16 1    
    31   15  139 1    
    32   15  140 1    
    33   16   17 1    
    34   17   18 1    
    35   17  141 1    
    36   17  142 1    
    37   18   19 1    
    38   18   67 1    
    39   18  143 1    
    40   19   20 am   BACKBONE|DICT|INTERRES
    41   19  144 1    
    42   20   21 2    
    43   20   22 1    
    44   22   23 1    
    45   22   24 1    
    46   22  145 1    
    47   23  146 1    
    48   23  147 1    
    49   23  148 1    
    50   24   25 am   BACKBONE|DICT|INTERRES
    51   24  149 1    
    52   25   26 2    
    53   25   27 1    
    54   27   28 1    
    55   27   29 1    
    56   27  150 1    
    57   28  151 1    
    58   28  152 1    
    59   28  153 1    
    60   29   30 am   BACKBONE|DICT|INTERRES
    61   29  154 1    
    62   30   31 2    
    63   30   32 1    
    64   32   33 1    
    65   32   34 1    
    66   32  155 1    
    67   33  156 1    
    68   33  157 1    
    69   33  158 1    
    70   34   35 am   BACKBONE|DICT|INTERRES
    71   34  159 1    
    72   35   36 2    
    73   35   37 1    
    74   37   38 1    
    75   37   39 1    
    76   37  160 1    
    77   38  161 1    
    78   38  162 1    
    79   38  163 1    
    80   39   40 am   BACKBONE|DICT|INTERRES
    81   39  164 1    
    82   40   41 2    
    83   40   42 1    
    84   42   43 1    
    85   42   44 1    
    86   42  165 1    
    87   43  166 1    
    88   43  167 1    
    89   43  168 1    
    90   44   45 am   BACKBONE|DICT|INTERRES
    91   44  169 1    
    92   45   46 2    
    93   45   47 1    
    94   47   48 1    
    95   47   49 1    
    96   47  170 1    
    97   48  171 1    
    98   48  172 1    
    99   48  173 1    
   100   49   50 am   BACKBONE|DICT|INTERRES
   101   49  174 1    
   102   50   51 2    
   103   50   52 1    
   104   52   53 1    
   105   52   54 1    
   106   52  175 1    
   107   53  176 1    
   108   53  177 1    
   109   53  178 1    
   110   54   55 am   BACKBONE|DICT|INTERRES
   111   54  179 1    
   112   55   56 2    
   113   55   57 1    
   114   57   58 1    
   115   57   59 1    
   116   57  180 1    
   117   58  181 1    
   118   58  182 1    
   119   58  183 1    
   120   59   60 am   BACKBONE|DICT|INTERRES
   121   59  184 1    
   122   60   61 2    
   123   60   62 1    
   124   62   63 1    
   125   62   64 1    
   126   62  185 1    
   127   63  186 1    
   128   63  187 1    
   129   63  188 1    
   130   64   65 am   BACKBONE|DICT|INTERRES
   131   64  189 1    
   132   65   66 2    
   133   67   68 2    
   134   67   69 am   BACKBONE|DICT|INTERRES
   135   69   70 1    
   136   69  190 1    
   137   70   71 1    
   138   70   72 1    
   139   70  191 1    
   140   71  192 1    
   141   71  193 1    
   142   71  194 1    
   143   72   73 2    
   144   72   74 am   BACKBONE|DICT|INTERRES
   145   74   75 1    
   146   74  195 1    
   147   75   76 1    
   148   75   77 1    
   149   75  196 1    
   150   76  197 1    
   151   76  198 1    
   152   76  199 1    
   153   77   78 2    
   154   77   79 am   BACKBONE|DICT|INTERRES
   155   79   80 1    
   156   79  200 1    
   157   80   81 1    
   158   80   82 1    
   159   80  201 1    
   160   81  202 1    
   161   81  203 1    
   162   81  204 1    
   163   82   83 2    
   164   82   84 am   BACKBONE|DICT|INTERRES
   165   84   85 1    
   166   84  205 1    
   167   85   86 1    
   168   85   87 1    
   169   85  206 1    
   170   86  207 1    
   171   86  208 1    
   172   86  209 1    
   173   87   88 2    
   174   87   89 am   BACKBONE|DICT|INTERRES
   175   89   90 1    
   176   89  210 1    
   177   90   91 1    
   178   90   92 1    
   179   90  211 1    
   180   91  212 1    
   181   91  213 1    
   182   91  214 1    
   183   92   93 2    
   184   92   94 am   BACKBONE|DICT|INTERRES
   185   94   95 1    
   186   94  215 1    
   187   95   96 1    
   188   95   97 1    
   189   95  216 1    
   190   96  217 1    
   191   96  218 1    
   192   96  219 1    
   193   97   98 2    
   194   97   99 am   BACKBONE|DICT|INTERRES
   195   99  100 1    
   196   99  220 1    
   197  100  101 1    
   198  100  102 1    
   199  100  221 1    
   200  101  222 1    
   201  101  223 1    
   202  101  224 1    
   203  102  103 2    
   204  102  104 am   BACKBONE|DICT|INTERRES
   205  104  105 1    
   206  104  225 1    
   207  105  106 1    
   208  105  107 1    
   209  105  226 1    
   210  106  227 1    
   211  106  228 1    
   212  106  229 1    
   213  107  108 2    
   214  107  109 am   BACKBONE|DICT|INTERRES
   215  109  110 1    
   216  109  230 1    
   217  110  111 1    
   218  110  112 1    
   219  110  231 1    
   220  111  232 1    
   221  111  233 1    
   222  111  234 1    
   223  112  113 2    
   224  112  114 am   BACKBONE|DICT|INTERRES
   225  114  115 1    
   226  114  235 1    
   227  115  116 1    
   228  115  117 1    
   229  115  236 1    
   230  116  237 1    
   231  116  238 1    
   232  116  239 1    
   233  117  118 2    
   234  117  119 am   BACKBONE|DICT|INTERRES
   235  119  120 1    
   236  119  240 1    
   237  120  121 1    
   238  120  124 1    
   239  120  241 1    
   240  121  122 am   BACKBONE|DICT|INTERRES
   241  121  123 2    
   242  122  242 1    
   243  122  243 1    
   244  124  125 1    
   245  124  244 1    
   246  124  245 1    
   247  125  126 1    
   248  126  246 1    
   249  126  247 1    
@<TRIPOS>SUBSTRUCTURE
     1 UNK         1 GROUP             0       ****    0 ROOT    
