@<TRIPOS>MOLECULE
3R540
247   249    1
SMALL
USER_CHARGES


@<TRIPOS>ATOM
      1 CA          2.9716  -16.8633  -49.3439 C.3       0 UNK        -0.1800 
      2 C           2.1842  -15.8985  -48.4710 C.2       0 UNK         0.5000 
      3 O           2.5616  -15.6636  -47.3242 O.2       0 UNK        -0.5000 
      4 N           1.0970  -15.3282  -49.0086 N.am      1 UNK        -0.5000 
      5 CA          0.1583  -14.4340  -48.3098 C.3       1 UNK         0.1400 
      6 C6         -1.1148  -14.1599  -49.1451 C.3       23 UNK        -0.0398 
      7 S7         -2.0069  -15.6913  -49.6040 S.3       23 UNK        -0.2404 
      8 C8         -3.5322  -15.5470  -48.6130 C.3       23 UNK        -0.0205 
      9 C9         -4.6456  -16.4632  -49.1103 C.ar      23 UNK        -0.0193 
     10 C10        -5.1012  -16.3531  -50.4282 C.ar      23 UNK        -0.1150 
     11 C11        -6.1735  -17.1248  -50.8811 C.ar      23 UNK        -0.0193 
     12 C12        -6.7943  -18.0172  -50.0036 C.ar      23 UNK        -0.1150 
     13 C13        -6.3615  -18.1328  -48.6783 C.ar      23 UNK        -0.0193 
     14 C14        -5.2785  -17.3596  -48.2401 C.ar      23 UNK        -0.1150 
     15 C15        -7.1306  -19.0270  -47.7113 C.3       23 UNK        -0.0205 
     16 S16        -6.4192  -20.6971  -47.5471 S.3       23 UNK        -0.2404 
     17 C17        -5.1474  -20.4340  -46.2703 C.3       23 UNK        -0.0398 
     18 CA         -3.7233  -20.7850  -46.7706 C.3       11 UNK         0.1400 
     19 N          -2.7378  -19.8413  -46.2482 N.am      11 UNK        -0.5000 
     20 C          -1.4253  -19.8358  -46.4959 C.2       10 UNK         0.5000 
     21 O          -0.8658  -20.6489  -47.2288 O.2       10 UNK        -0.5000 
     22 CA         -0.5823  -18.7743  -45.7737 C.3       10 UNK         0.1400 
     23 CB         -0.4281  -17.5187  -46.6369 C.3       10 UNK        -0.1800 
     24 N          -1.0316  -18.4394  -44.4151 N.am      10 UNK        -0.5000 
     25 C          -2.1611  -17.8417  -44.0023 C.2       9 UNK         0.5000 
     26 O          -3.0475  -17.4618  -44.7679 O.2       9 UNK        -0.5000 
     27 CA         -2.3423  -17.6450  -42.4830 C.3       9 UNK         0.1400 
     28 CB         -3.7591  -18.0278  -42.0065 C.3       9 UNK        -0.1800 
     29 N          -1.2956  -18.2929  -41.6834 N.am      9 UNK        -0.5000 
     30 C          -1.1192  -19.6003  -41.4502 C.2       8 UNK         0.5000 
     31 O          -1.8844  -20.4814  -41.8443 O.2       8 UNK        -0.5000 
     32 CA          0.1812  -19.9615  -40.7039 C.3       8 UNK         0.1400 
     33 CB          0.3248  -21.4761  -40.4443 C.3       8 UNK        -0.1800 
     34 N           1.3779  -19.4396  -41.3798 N.am      8 UNK        -0.5000 
     35 C           1.7882  -19.7138  -42.6278 C.2       7 UNK         0.5000 
     36 O           1.1427  -20.4129  -43.4090 O.2       7 UNK        -0.5000 
     37 CA          3.1255  -19.1026  -43.1033 C.3       7 UNK         0.1400 
     38 CB          3.0318  -18.5767  -44.5468 C.3       7 UNK        -0.1800 
     39 N           3.6352  -18.0253  -42.2524 N.am      7 UNK        -0.5000 
     40 C           4.3392  -18.1846  -41.1239 C.2       6 UNK         0.5000 
     41 O           4.5694  -19.2801  -40.6122 O.2       6 UNK        -0.5000 
     42 CA          4.8598  -16.9046  -40.4487 C.3       6 UNK         0.1400 
     43 CB          6.1941  -16.4732  -41.0775 C.3       6 UNK        -0.1800 
     44 N           3.8982  -15.8094  -40.5724 N.am      6 UNK        -0.5000 
     45 C           2.9874  -15.4847  -39.6451 C.2       5 UNK         0.5000 
     46 O           2.8910  -16.0477  -38.5541 O.2       5 UNK        -0.5000 
     47 CA          2.0081  -14.3443  -39.9945 C.3       5 UNK         0.1400 
     48 CB          2.5646  -12.9940  -39.5185 C.3       5 UNK        -0.1800 
     49 N           1.7001  -14.2567  -41.4237 N.am      5 UNK        -0.5000 
     50 C           1.0423  -15.1960  -42.1159 C.2       4 UNK         0.5000 
     51 O           0.5781  -16.2149  -41.6053 O.2       4 UNK        -0.5000 
     52 CA          0.9144  -14.9934  -43.6386 C.3       4 UNK         0.1400 
     53 CB         -0.4222  -14.3209  -43.9834 C.3       4 UNK        -0.1800 
     54 N           2.0067  -14.2396  -44.2658 N.am      4 UNK        -0.5000 
     55 C           3.3145  -14.5312  -44.1872 C.2       3 UNK         0.5000 
     56 O           3.7610  -15.4382  -43.4827 O.2       3 UNK        -0.5000 
     57 CA          4.2778  -13.6643  -45.0197 C.3       3 UNK         0.1400 
     58 CB          5.5520  -14.4326  -45.4140 C.3       3 UNK        -0.1800 
     59 N           3.6218  -13.1837  -46.2348 N.am      3 UNK        -0.5000 
     60 C           3.5105  -11.9043  -46.6173 C.2       2 UNK         0.5000 
     61 O           3.9556  -10.9582  -45.9666 O.2       2 UNK        -0.5000 
     62 CA          2.7822  -11.6206  -47.9504 C.3       2 UNK         0.1400 
     63 CB          3.7977  -11.2901  -49.0552 C.3       2 UNK        -0.1800 
     64 N           1.9394  -12.7287  -48.4051 N.am      2 UNK        -0.5000 
     65 C           0.8001  -13.1175  -47.8161 C.2       1 UNK         0.5000 
     66 O           0.2824  -12.5072  -46.8807 O.2       1 UNK        -0.5000 
     67 C          -3.3572  -22.2471  -46.4411 C.2       11 UNK         0.5000 
     68 O          -3.4568  -23.1096  -47.3131 O.2       11 UNK        -0.5000 
     69 N          -2.8965  -22.4835  -45.2026 N.am      12 UNK        -0.5000 
     70 CA         -2.4387  -23.7839  -44.7142 C.3       12 UNK         0.1400 
     71 CB         -2.2253  -23.7137  -43.1948 C.3       12 UNK        -0.1800 
     72 C          -1.1593  -24.2611  -45.4222 C.2       12 UNK         0.5000 
     73 O          -1.1039  -25.4095  -45.8629 O.2       12 UNK        -0.5000 
     74 N          -0.1746  -23.3606  -45.5612 N.am      13 UNK        -0.5000 
     75 CA          1.0837  -23.6068  -46.2729 C.3       13 UNK         0.1400 
     76 CB          2.0430  -22.4291  -46.0430 C.3       13 UNK        -0.1800 
     77 C           0.8765  -23.8602  -47.7783 C.2       13 UNK         0.5000 
     78 O           1.5841  -24.6796  -48.3641 O.2       13 UNK        -0.5000 
     79 N          -0.1248  -23.1881  -48.3594 N.am      14 UNK        -0.5000 
     80 CA         -0.5790  -23.3558  -49.7376 C.3       14 UNK         0.1400 
     81 CB         -1.2554  -22.0546  -50.1939 C.3       14 UNK        -0.1800 
     82 C          -1.5126  -24.5681  -49.9479 C.2       14 UNK         0.5000 
     83 O          -2.0420  -24.7182  -51.0504 O.2       14 UNK        -0.5000 
     84 N          -1.7117  -25.3968  -48.9108 N.am      15 UNK        -0.5000 
     85 CA         -2.5117  -26.6258  -48.8919 C.3       15 UNK         0.1400 
     86 CB         -1.8889  -27.6952  -49.8140 C.3       15 UNK        -0.1800 
     87 C          -4.0031  -26.3644  -49.1808 C.2       15 UNK         0.5000 
     88 O          -4.5773  -26.9669  -50.0881 O.2       15 UNK        -0.5000 
     89 N          -4.5864  -25.4389  -48.4068 N.am      16 UNK        -0.5000 
     90 CA         -5.9475  -24.9032  -48.5223 C.3       16 UNK         0.1400 
     91 CB         -7.0130  -26.0022  -48.3241 C.3       16 UNK        -0.1800 
     92 C          -6.1278  -24.0900  -49.8189 C.2       16 UNK         0.5000 
     93 O          -7.1520  -24.2094  -50.4936 O.2       16 UNK        -0.5000 
     94 N          -5.1008  -23.2870  -50.1371 N.am      17 UNK        -0.5000 
     95 CA         -4.9754  -22.4307  -51.3215 C.3       17 UNK         0.1400 
     96 CB         -5.9943  -21.2754  -51.2780 C.3       17 UNK        -0.1800 
     97 C          -4.9939  -23.2018  -52.6592 C.2       17 UNK         0.5000 
     98 O          -5.4292  -22.6610  -53.6758 O.2       17 UNK        -0.5000 
     99 N          -4.4950  -24.4443  -52.6477 N.am      18 UNK        -0.5000 
    100 CA        -4.3177  -25.2713  -53.8399 C.3       18 UNK         0.1400 
    101 CB        -4.2153  -26.7465  -53.4267 C.3       18 UNK        -0.1800 
    102 C         -3.0761  -24.8453  -54.6418 C.2       18 UNK         0.5000 
    103 O         -3.1217  -24.8305  -55.8723 O.2       18 UNK        -0.5000 
    104 N         -1.9952  -24.4985  -53.9292 N.am      19 UNK        -0.5000 
    105 CA        -0.7348  -24.0330  -54.5106 C.3       19 UNK         0.1400 
    106 CB         0.4181  -24.4446  -53.5832 C.3       19 UNK        -0.1800 
    107 C         -0.7144  -22.5108  -54.7508 C.2       19 UNK         0.5000 
    108 O          0.1394  -22.0321  -55.4988 O.2       19 UNK        -0.5000 
    109 N         -1.6323  -21.7742  -54.1102 N.am      20 UNK        -0.5000 
    110 CA        -1.7958  -20.3295  -54.2691 C.3       20 UNK         0.1400 
    111 CB        -2.6085  -19.7780  -53.0874 C.3       20 UNK        -0.1800 
    112 C         -2.4870  -19.9911  -55.6017 C.2       20 UNK         0.5000 
    113 O         -3.3495  -20.7469  -56.0549 O.2       20 UNK        -0.5000 
    114 N         -2.1081  -18.8527  -56.1960 N.am      21 UNK        -0.5000 
    115 CA        -2.7035  -18.3429  -57.4322 C.3       21 UNK         0.1400 
    116 CB        -1.7679  -17.2987  -58.0623 C.3       21 UNK        -0.1800 
    117 C         -4.1056  -17.7548  -57.1939 C.2       21 UNK         0.5000 
    118 O         -5.0333  -18.0771  -57.9369 O.2       21 UNK        -0.5000 
    119 N         -4.2247  -16.9136  -56.1552 N.am      22 UNK        -0.5000 
    120 CA        -5.4654  -16.2525  -55.7034 C.3       22 UNK         0.1400 
    121 C         -6.1301  -15.2986  -56.7472 C.2       22 UNK         0.5000 
    122 N         -5.4033  -14.8002  -57.7401 N.am      22 UNK        -0.7600 
    123 O         -7.3092  -14.9710  -56.6422 O.2       22 UNK        -0.5000 
    124 C124       -6.4675  -17.2529  -55.0590 C.3       23 UNK        -0.0398 
    125 S125       -5.8111  -17.9583  -53.5076 S.3       23 UNK        -0.2404 
    126 C126       -6.7019  -16.9370  -52.2949 C.3       23 UNK        -0.0205 
    127 H127        3.9964  -16.5112  -49.4615 H         1 UNK         0.0600 
    128 H128        2.9993  -17.8484  -48.8781 H         1 UNK         0.0600 
    129 H129        2.5294  -16.9669  -50.3350 H         1 UNK         0.0600 
    130 H130        0.8341  -15.5684  -49.9540 H         1 UNK         0.3000 
    131 H131       -0.1604  -14.9472  -47.4045 H         1 UNK         0.0600 
    132 H132       -1.7915  -13.4994  -48.6002 H         1 UNK         0.0800 
    133 H133       -0.8570  -13.6317  -50.0645 H         1 UNK         0.0800 
    134 H134       -3.9002  -14.5212  -48.6564 H         1 UNK         0.0800 
    135 H135       -3.2984  -15.7496  -47.5666 H         1 UNK         0.0800 
    136 H136       -4.6320  -15.6464  -51.0984 H         1 UNK         0.1150 
    137 H137       -7.6376  -18.6011  -50.3453 H         1 UNK         0.1150 
    138 H138       -4.9523  -17.4251  -47.2118 H         1 UNK         0.1150 
    139 H139       -8.1596  -19.1339  -48.0580 H         1 UNK         0.0800 
    140 H140       -7.2040  -18.5491  -46.7334 H         1 UNK         0.0800 
    141 H141       -5.1907  -19.3918  -45.9534 H         1 UNK         0.0800 
    142 H142       -5.4231  -21.0025  -45.3799 H         1 UNK         0.0800 
    143 H143       -3.6882  -20.6767  -47.8569 H         1 UNK         0.0600 
    144 H144       -3.0879  -19.0849  -45.6670 H         1 UNK         0.3000 
    145 H145        0.4091  -19.2115  -45.6626 H         1 UNK         0.0600 
    146 H146        0.2952  -16.8374  -46.1927 H         1 UNK         0.0600 
    147 H147       -0.0683  -17.7732  -47.6344 H         1 UNK         0.0600 
    148 H148       -1.3706  -16.9866  -46.7584 H         1 UNK         0.0600 
    149 H149       -0.4228  -18.7911  -43.6878 H         1 UNK         0.3000 
    150 H150       -2.2243  -16.5769  -42.3021 H         1 UNK         0.0600 
    151 H151       -4.5100  -17.3857  -42.4682 H         1 UNK         0.0600 
    152 H152       -3.8576  -17.9150  -40.9269 H         1 UNK         0.0600 
    153 H153       -4.0150  -19.0557  -42.2637 H         1 UNK         0.0600 
    154 H154       -0.5594  -17.6550  -41.3841 H         1 UNK         0.3000 
    155 H155        0.1290  -19.4651  -39.7338 H         1 UNK         0.0600 
    156 H156       -0.5222  -21.8556  -39.8716 H         1 UNK         0.0600 
    157 H157        1.2269  -21.6930  -39.8723 H         1 UNK         0.0600 
    158 H158        0.3724  -22.0465  -41.3724 H         1 UNK         0.0600 
    159 H159        1.9594  -18.8230  -40.8308 H         1 UNK         0.3000 
    160 H160        3.8540  -19.9159  -43.0992 H         1 UNK         0.0600 
    161 H161        2.2717  -17.8028  -44.6464 H         1 UNK         0.0600 
    162 H162        3.9805  -18.1507  -44.8744 H         1 UNK         0.0600 
    163 H163        2.7850  -19.3776  -45.2442 H         1 UNK         0.0600 
    164 H164        3.5357  -17.0842  -42.6234 H         1 UNK         0.3000 
    165 H165        5.0412  -17.1284  -39.3953 H         1 UNK         0.0600 
    166 H166        6.5956  -15.5903  -40.5799 H         1 UNK         0.0600 
    167 H167        6.9405  -17.2637  -40.9898 H         1 UNK         0.0600 
    168 H168        6.0862  -16.2395  -42.1375 H         1 UNK         0.0600 
    169 H169        3.8727  -15.3375  -41.4693 H         1 UNK         0.3000 
    170 H170        1.0751  -14.5369  -39.4606 H         1 UNK         0.0600 
    171 H171        2.7820  -13.0160  -38.4497 H         1 UNK         0.0600 
    172 H172        3.4890  -12.7345  -40.0362 H         1 UNK         0.0600 
    173 H173        1.8476  -12.1901  -39.6862 H         1 UNK         0.0600 
    174 H174        2.0507  -13.4505  -41.9194 H         1 UNK         0.3000 
    175 H175        0.9128  -15.9889  -44.0824 H         1 UNK         0.0600 
    176 H176       -0.4349  -13.2735  -43.6798 H         1 UNK         0.0600 
    177 H177       -0.6186  -14.3628  -45.0541 H         1 UNK         0.0600 
    178 H178       -1.2579  -14.8139  -43.4882 H         1 UNK         0.0600 
    179 H179        1.7322  -13.4749  -44.8666 H         1 UNK         0.3000 
    180 H180        4.5669  -12.8269  -44.3821 H         1 UNK         0.0600 
    181 H181        6.1050  -14.7603  -44.5328 H         1 UNK         0.0600 
    182 H182        5.3158  -15.3189  -46.0046 H         1 UNK         0.0600 
    183 H183        6.2231  -13.8066  -46.0021 H         1 UNK         0.0600 
    184 H184        3.2027  -13.9138  -46.8055 H         1 UNK         0.3000 
    185 H185        2.1461  -10.7463  -47.7968 H         1 UNK         0.0600 
    186 H186        4.4253  -10.4447  -48.7699 H         1 UNK         0.0600 
    187 H187        4.4575  -12.1341  -49.2602 H         1 UNK         0.0600 
    188 H188        3.2963  -11.0208  -49.9850 H         1 UNK         0.0600 
    189 H189        2.3008  -13.2929  -49.1604 H         1 UNK         0.3000 
    190 H190       -2.8234  -21.7102  -44.5569 H         1 UNK         0.3000 
    191 H191       -3.2252  -24.5147  -44.9148 H         1 UNK         0.0600 
    192 H192       -1.9180  -24.6822  -42.7983 H         1 UNK         0.0600 
    193 H193       -3.1421  -23.4272  -42.6792 H         1 UNK         0.0600 
    194 H194       -1.4534  -22.9906  -42.9286 H         1 UNK         0.0600 
    195 H195       -0.3065  -22.4318  -45.1878 H         1 UNK         0.3000 
    196 H196        1.5389  -24.5039  -45.8482 H         1 UNK         0.0600 
    197 H197        2.9856  -22.5833  -46.5696 H         1 UNK         0.0600 
    198 H198        2.2792  -22.3161  -44.9850 H         1 UNK         0.0600 
    199 H199        1.6202  -21.4879  -46.3951 H         1 UNK         0.0600 
    200 H200       -0.6011  -22.4734  -47.8160 H         1 UNK         0.3000 
    201 H201        0.2979  -23.5162  -50.3660 H         1 UNK         0.0600 
    202 H202       -0.5808  -21.2039  -50.0947 H         1 UNK         0.0600 
    203 H203       -2.1493  -21.8400  -49.6077 H         1 UNK         0.0600 
    204 H204       -1.5461  -22.1136  -51.2420 H         1 UNK         0.0600 
    205 H205       -1.2674  -25.1645  -48.0311 H         1 UNK         0.3000 
    206 H206       -2.4618  -27.0079  -47.8712 H         1 UNK         0.0600 
    207 H207       -0.8512  -27.8901  -49.5434 H         1 UNK         0.0600 
    208 H208       -2.4277  -28.6400  -49.7348 H         1 UNK         0.0600 
    209 H209       -1.9095  -27.3950  -50.8615 H         1 UNK         0.0600 
    210 H210       -3.9929  -24.9216  -47.7648 H         1 UNK         0.3000 
    211 H211       -6.0622  -24.1909  -47.7038 H         1 UNK         0.0600 
    212 H212       -7.0239  -26.7158  -49.1481 H         1 UNK         0.0600 
    213 H213       -8.0107  -25.5666  -48.2601 H         1 UNK         0.0600 
    214 H214       -6.8412  -26.5560  -47.4012 H         1 UNK         0.0600 
    215 H215       -4.3178  -23.2740  -49.4964 H         1 UNK         0.3000 
    216 H216       -3.9851  -21.9813  -51.2619 H         1 UNK         0.0600 
    217 H217       -5.8564  -20.6750  -50.3815 H         1 UNK         0.0600 
    218 H218       -5.8712  -20.6039  -52.1271 H         1 UNK         0.0600 
    219 H219       -7.0235  -21.6333  -51.2926 H         1 UNK         0.0600 
    220 H220       -4.1110  -24.8083  -51.7841 H         1 UNK         0.3000 
    221 H221       -5.1931  -25.1595  -54.4832 H         1 UNK         0.0600 
    222 H222       -3.3648  -26.9214  -52.7671 H         1 UNK         0.0600 
    223 H223       -5.1149  -27.0713  -52.9035 H         1 UNK         0.0600 
    224 H224       -4.0945  -27.3901  -54.2988 H         1 UNK         0.0600 
    225 H225       -2.0342  -24.5707  -52.9145 H         1 UNK         0.3000 
    226 H226       -0.5797  -24.5212  -55.4751 H         1 UNK         0.0600 
    227 H227        0.4177  -25.5198  -53.4029 H         1 UNK         0.0600 
    228 H228        1.3831  -24.1879  -54.0219 H         1 UNK         0.0600 
    229 H229        0.3532  -23.9419  -52.6198 H         1 UNK         0.0600 
    230 H230       -2.3423  -22.2591  -53.5854 H         1 UNK         0.3000 
    231 H231       -0.8080  -19.8637  -54.2541 H         1 UNK         0.0600 
    232 H232       -3.6038  -20.2205  -53.0454 H         1 UNK         0.0600 
    233 H233       -2.1115  -19.9652  -52.1364 H         1 UNK         0.0600 
    234 H234       -2.7376  -18.6983  -53.1726 H         1 UNK         0.0600 
    235 H235       -1.3895  -18.2863  -55.7691 H         1 UNK         0.3000 
    236 H236       -2.8030  -19.1707  -58.1379 H         1 UNK         0.0600 
    237 H237       -1.5955  -16.4514  -57.3976 H         1 UNK         0.0600 
    238 H238       -0.7991  -17.7356  -58.3054 H         1 UNK         0.0600 
    239 H239       -2.1884  -16.9085  -58.9901 H         1 UNK         0.0600 
    240 H240       -3.4029  -16.7162  -55.6042 H         1 UNK         0.3000 
    241 H241       -5.1510  -15.5703  -54.9127 H         1 UNK         0.0600 
    242 H242       -5.8334  -14.1761  -58.4048 H         1 UNK         0.3800 
    243 H243       -4.4311  -15.0446  -57.8383 H         1 UNK         0.3800 
    244 H244       -6.6961  -18.0671  -55.7476 H         1 UNK         0.0800 
    245 H245       -7.4234  -16.7752  -54.8395 H         1 UNK         0.0800 
    246 H246       -7.7652  -17.1790  -52.3343 H         1 UNK         0.0800 
    247 H247       -6.6171  -15.8858  -52.5753 H         1 UNK         0.0800 
@<TRIPOS>BOND
     1    1    2 1    
     2    1  127 1    
     3    1  128 1    
     4    1  129 1    
     5    2    3 2    
     6    2    4 am   BACKBONE|DICT|INTERRES
     7    4    5 1    
     8    4  130 1    
     9    5    6 1    
    10    5   65 1    
    11    5  131 1    
    12    6    7 1    
    13    6  132 1    
    14    6  133 1    
    15    7    8 1    
    16    8    9 1    
    17    8  134 1    
    18    8  135 1    
    19    9   10 ar   
    20    9   14 ar   
    21   10   11 ar   
    22   10  136 1    
    23   11   12 ar   
    24   11  126 1    
    25   12   13 ar   
    26   12  137 1    
    27   13   14 ar   
    28   13   15 1    
    29   14  138 1    
    30   15   16 1    
    31   15  139 1    
    32   15  140 1    
    33   16   17 1    
    34   17   18 1    
    35   17  141 1    
    36   17  142 1    
    37   18   19 1    
    38   18   67 1    
    39   18  143 1    
    40   19   20 am   BACKBONE|DICT|INTERRES
    41   19  144 1    
    42   20   21 2    
    43   20   22 1    
    44   22   23 1    
    45   22   24 1    
    46   22  145 1    
    47   23  146 1    
    48   23  147 1    
    49   23  148 1    
    50   24   25 am   BACKBONE|DICT|INTERRES
    51   24  149 1    
    52   25   26 2    
    53   25   27 1    
    54   27   28 1    
    55   27   29 1    
    56   27  150 1    
    57   28  151 1    
    58   28  152 1    
    59   28  153 1    
    60   29   30 am   BACKBONE|DICT|INTERRES
    61   29  154 1    
    62   30   31 2    
    63   30   32 1    
    64   32   33 1    
    65   32   34 1    
    66   32  155 1    
    67   33  156 1    
    68   33  157 1    
    69   33  158 1    
    70   34   35 am   BACKBONE|DICT|INTERRES
    71   34  159 1    
    72   35   36 2    
    73   35   37 1    
    74   37   38 1    
    75   37   39 1    
    76   37  160 1    
    77   38  161 1    
    78   38  162 1    
    79   38  163 1    
    80   39   40 am   BACKBONE|DICT|INTERRES
    81   39  164 1    
    82   40   41 2    
    83   40   42 1    
    84   42   43 1    
    85   42   44 1    
    86   42  165 1    
    87   43  166 1    
    88   43  167 1    
    89   43  168 1    
    90   44   45 am   BACKBONE|DICT|INTERRES
    91   44  169 1    
    92   45   46 2    
    93   45   47 1    
    94   47   48 1    
    95   47   49 1    
    96   47  170 1    
    97   48  171 1    
    98   48  172 1    
    99   48  173 1    
   100   49   50 am   BACKBONE|DICT|INTERRES
   101   49  174 1    
   102   50   51 2    
   103   50   52 1    
   104   52   53 1    
   105   52   54 1    
   106   52  175 1    
   107   53  176 1    
   108   53  177 1    
   109   53  178 1    
   110   54   55 am   BACKBONE|DICT|INTERRES
   111   54  179 1    
   112   55   56 2    
   113   55   57 1    
   114   57   58 1    
   115   57   59 1    
   116   57  180 1    
   117   58  181 1    
   118   58  182 1    
   119   58  183 1    
   120   59   60 am   BACKBONE|DICT|INTERRES
   121   59  184 1    
   122   60   61 2    
   123   60   62 1    
   124   62   63 1    
   125   62   64 1    
   126   62  185 1    
   127   63  186 1    
   128   63  187 1    
   129   63  188 1    
   130   64   65 am   BACKBONE|DICT|INTERRES
   131   64  189 1    
   132   65   66 2    
   133   67   68 2    
   134   67   69 am   BACKBONE|DICT|INTERRES
   135   69   70 1    
   136   69  190 1    
   137   70   71 1    
   138   70   72 1    
   139   70  191 1    
   140   71  192 1    
   141   71  193 1    
   142   71  194 1    
   143   72   73 2    
   144   72   74 am   BACKBONE|DICT|INTERRES
   145   74   75 1    
   146   74  195 1    
   147   75   76 1    
   148   75   77 1    
   149   75  196 1    
   150   76  197 1    
   151   76  198 1    
   152   76  199 1    
   153   77   78 2    
   154   77   79 am   BACKBONE|DICT|INTERRES
   155   79   80 1    
   156   79  200 1    
   157   80   81 1    
   158   80   82 1    
   159   80  201 1    
   160   81  202 1    
   161   81  203 1    
   162   81  204 1    
   163   82   83 2    
   164   82   84 am   BACKBONE|DICT|INTERRES
   165   84   85 1    
   166   84  205 1    
   167   85   86 1    
   168   85   87 1    
   169   85  206 1    
   170   86  207 1    
   171   86  208 1    
   172   86  209 1    
   173   87   88 2    
   174   87   89 am   BACKBONE|DICT|INTERRES
   175   89   90 1    
   176   89  210 1    
   177   90   91 1    
   178   90   92 1    
   179   90  211 1    
   180   91  212 1    
   181   91  213 1    
   182   91  214 1    
   183   92   93 2    
   184   92   94 am   BACKBONE|DICT|INTERRES
   185   94   95 1    
   186   94  215 1    
   187   95   96 1    
   188   95   97 1    
   189   95  216 1    
   190   96  217 1    
   191   96  218 1    
   192   96  219 1    
   193   97   98 2    
   194   97   99 am   BACKBONE|DICT|INTERRES
   195   99  100 1    
   196   99  220 1    
   197  100  101 1    
   198  100  102 1    
   199  100  221 1    
   200  101  222 1    
   201  101  223 1    
   202  101  224 1    
   203  102  103 2    
   204  102  104 am   BACKBONE|DICT|INTERRES
   205  104  105 1    
   206  104  225 1    
   207  105  106 1    
   208  105  107 1    
   209  105  226 1    
   210  106  227 1    
   211  106  228 1    
   212  106  229 1    
   213  107  108 2    
   214  107  109 am   BACKBONE|DICT|INTERRES
   215  109  110 1    
   216  109  230 1    
   217  110  111 1    
   218  110  112 1    
   219  110  231 1    
   220  111  232 1    
   221  111  233 1    
   222  111  234 1    
   223  112  113 2    
   224  112  114 am   BACKBONE|DICT|INTERRES
   225  114  115 1    
   226  114  235 1    
   227  115  116 1    
   228  115  117 1    
   229  115  236 1    
   230  116  237 1    
   231  116  238 1    
   232  116  239 1    
   233  117  118 2    
   234  117  119 am   BACKBONE|DICT|INTERRES
   235  119  120 1    
   236  119  240 1    
   237  120  121 1    
   238  120  124 1    
   239  120  241 1    
   240  121  122 am   BACKBONE|DICT|INTERRES
   241  121  123 2    
   242  122  242 1    
   243  122  243 1    
   244  124  125 1    
   245  124  244 1    
   246  124  245 1    
   247  125  126 1    
   248  126  246 1    
   249  126  247 1    
@<TRIPOS>SUBSTRUCTURE
     1 UNK         1 GROUP             0       ****    0 ROOT    
