@<TRIPOS>MOLECULE
3R540
247   249    1
SMALL
USER_CHARGES


@<TRIPOS>ATOM
      1 CA         -6.9240  -15.6175  -45.9224 C.3       0 UNK        -0.1800 
      2 C          -6.0653  -15.9401  -47.1369 C.2       0 UNK         0.5000 
      3 O          -6.5852  -16.0164  -48.2490 O.2       0 UNK        -0.5000 
      4 N          -4.7570  -16.1335  -46.9234 N.am      1 UNK        -0.5000 
      5 CA         -3.7652  -16.4264  -47.9637 C.3       1 UNK         0.1400 
      6 C6         -2.4268  -16.8830  -47.3303 C.3       23 UNK        -0.0398 
      7 S7         -1.1208  -17.3089  -48.5349 S.3       23 UNK        -0.2404 
      8 C8         -0.8641  -19.0614  -48.1537 C.3       23 UNK        -0.0205 
      9 C9          0.2921  -19.6403  -48.9469 C.ar      23 UNK        -0.0193 
     10 C10         0.1142  -20.0162  -50.2809 C.ar      23 UNK        -0.1150 
     11 C11         1.1731  -20.5656  -51.0158 C.ar      23 UNK        -0.0193 
     12 C12         2.4069  -20.7547  -50.3860 C.ar      23 UNK        -0.1150 
     13 C13         2.5924  -20.3927  -49.0488 C.ar      23 UNK        -0.0193 
     14 C14         1.5352  -19.8217  -48.3378 C.ar      23 UNK        -0.1150 
     15 C15         3.9349  -20.6278  -48.3771 C.3       23 UNK        -0.0205 
     16 S16         4.0768  -22.3286  -47.7416 S.3       23 UNK        -0.2404 
     17 C17         3.1618  -22.2221  -46.1676 C.3       23 UNK        -0.0398 
     18 CA          2.1833  -23.4043  -45.9514 C.3       11 UNK         0.1400 
     19 N           2.0582  -23.7363  -44.5319 N.am      11 UNK        -0.5000 
     20 C           1.5234  -24.8642  -44.0470 C.2       10 UNK         0.5000 
     21 O           1.1065  -25.7848  -44.7498 O.2       10 UNK        -0.5000 
     22 CA          1.3994  -24.9512  -42.5143 C.3       10 UNK         0.1400 
     23 CB          2.7023  -25.4768  -41.8940 C.3       10 UNK        -0.1800 
     24 N           1.0575  -23.6611  -41.9087 N.am      10 UNK        -0.5000 
     25 C          -0.1240  -23.0498  -42.0716 C.2       9 UNK         0.5000 
     26 O          -1.0540  -23.5292  -42.7173 O.2       9 UNK        -0.5000 
     27 CA         -0.2823  -21.6530  -41.4490 C.3       9 UNK         0.1400 
     28 CB         -0.7040  -21.7592  -39.9765 C.3       9 UNK        -0.1800 
     29 N           0.9134  -20.8153  -41.5482 N.am      9 UNK        -0.5000 
     30 C           1.5012  -20.4143  -42.6830 C.2       8 UNK         0.5000 
     31 O           1.1773  -20.8302  -43.7965 O.2       8 UNK        -0.5000 
     32 CA          2.6172  -19.3563  -42.5394 C.3       8 UNK         0.1400 
     33 CB          3.1234  -18.8419  -43.8995 C.3       8 UNK        -0.1800 
     34 N           2.1618  -18.2158  -41.7406 N.am      8 UNK        -0.5000 
     35 C           2.1165  -18.1782  -40.4001 C.2       7 UNK         0.5000 
     36 O           2.5240  -19.0960  -39.6875 O.2       7 UNK        -0.5000 
     37 CA          1.4638  -16.9476  -39.7388 C.3       7 UNK         0.1400 
     38 CB          2.5356  -15.9250  -39.3337 C.3       7 UNK        -0.1800 
     39 N           0.4764  -16.2851  -40.5898 N.am      7 UNK        -0.5000 
     40 C          -0.6673  -16.8276  -41.0321 C.2       6 UNK         0.5000 
     41 O          -1.0844  -17.9288  -40.6728 O.2       6 UNK        -0.5000 
     42 CA         -1.4655  -16.0159  -42.0744 C.3       6 UNK         0.1400 
     43 CB         -2.7228  -15.4063  -41.4387 C.3       6 UNK        -0.1800 
     44 N          -0.6952  -14.9467  -42.7225 N.am      6 UNK        -0.5000 
     45 C           0.3685  -15.1357  -43.5135 C.2       5 UNK         0.5000 
     46 O           0.8425  -16.2450  -43.7681 O.2       5 UNK        -0.5000 
     47 CA          1.0629  -13.8654  -44.0350 C.3       5 UNK         0.1400 
     48 CB          2.1795  -13.4398  -43.0685 C.3       5 UNK        -0.1800 
     49 N           1.6387  -14.0690  -45.3628 N.am      5 UNK        -0.5000 
     50 C           0.9187  -14.2234  -46.4788 C.2       4 UNK         0.5000 
     51 O          -0.3135  -14.1389  -46.5165 O.2       4 UNK        -0.5000 
     52 CA          1.7124  -14.5098  -47.7627 C.3       4 UNK         0.1400 
     53 CB          2.3466  -15.9131  -47.7370 C.3       4 UNK        -0.1800 
     54 N           0.7991  -14.4065  -48.8916 N.am      4 UNK        -0.5000 
     55 C           1.0782  -13.9209  -50.1038 C.2       3 UNK         0.5000 
     56 O           2.2012  -13.5584  -50.4569 O.2       3 UNK        -0.5000 
     57 CA         -0.1045  -13.8111  -51.0870 C.3       3 UNK         0.1400 
     58 CB         -0.1590  -15.0513  -51.9901 C.3       3 UNK        -0.1800 
     59 N          -1.3980  -13.6706  -50.4174 N.am      3 UNK        -0.5000 
     60 C          -1.8241  -12.6017  -49.7345 C.2       2 UNK         0.5000 
     61 O          -1.1854  -11.5523  -49.6517 O.2       2 UNK        -0.5000 
     62 CA         -3.1770  -12.7234  -48.9974 C.3       2 UNK         0.1400 
     63 CB         -4.3484  -12.3327  -49.9178 C.3       2 UNK        -0.1800 
     64 N          -3.4197  -14.0237  -48.3510 N.am      2 UNK        -0.5000 
     65 C          -3.5752  -15.2295  -48.9195 C.2       1 UNK         0.5000 
     66 O          -3.5542  -15.4197  -50.1362 O.2       1 UNK        -0.5000 
     67 C           0.7941  -23.1498  -46.5715 C.2       11 UNK         0.5000 
     68 O           0.4873  -23.7004  -47.6278 O.2       11 UNK        -0.5000 
     69 N          -0.0479  -22.3866  -45.8578 N.am      12 UNK        -0.5000 
     70 CA         -1.4434  -22.1244  -46.2083 C.3       12 UNK         0.1400 
     71 CB         -2.0380  -21.0960  -45.2334 C.3       12 UNK        -0.1800 
     72 C          -2.3045  -23.3990  -46.2433 C.2       12 UNK         0.5000 
     73 O          -3.1122  -23.5533  -47.1584 O.2       12 UNK        -0.5000 
     74 N          -2.1031  -24.3018  -45.2737 N.am      13 UNK        -0.5000 
     75 CA         -2.7616  -25.6068  -45.2091 C.3       13 UNK         0.1400 
     76 CB         -2.4539  -26.2821  -43.8643 C.3       13 UNK        -0.1800 
     77 C          -2.3731  -26.5217  -46.3837 C.2       13 UNK         0.5000 
     78 O          -3.2523  -27.1494  -46.9741 O.2       13 UNK        -0.5000 
     79 N          -1.0771  -26.5483  -46.7279 N.am      14 UNK        -0.5000 
     80 CA         -0.5392  -27.2850  -47.8738 C.3       14 UNK         0.1400 
     81 CB          0.9958  -27.2828  -47.8100 C.3       14 UNK        -0.1800 
     82 C          -1.0326  -26.7327  -49.2252 C.2       14 UNK         0.5000 
     83 O          -1.3302  -27.5138  -50.1297 O.2       14 UNK        -0.5000 
     84 N          -1.1334  -25.4010  -49.3283 N.am      15 UNK        -0.5000 
     85 CA         -1.6412  -24.6852  -50.4995 C.3       15 UNK         0.1400 
     86 CB         -1.2237  -23.2118  -50.3903 C.3       15 UNK        -0.1800 
     87 C          -3.1692  -24.7842  -50.6780 C.2       15 UNK         0.5000 
     88 O          -3.6565  -24.5213  -51.7771 O.2       15 UNK        -0.5000 
     89 N          -3.8890  -25.1361  -49.6017 N.am      16 UNK        -0.5000 
     90 CA         -5.3481  -25.1125  -49.4570 C.3       16 UNK         0.1400 
     91 CB         -6.0340  -26.0972  -50.4271 C.3       16 UNK        -0.1800 
     92 C          -5.8883  -23.6706  -49.5511 C.2       16 UNK         0.5000 
     93 O          -6.7578  -23.3719  -50.3728 O.2       16 UNK        -0.5000 
     94 N          -5.3147  -22.7972  -48.7123 N.am      17 UNK        -0.5000 
     95 CA         -5.5094  -21.3496  -48.5935 C.3       17 UNK         0.1400 
     96 CB         -6.9773  -20.9696  -48.3175 C.3       17 UNK        -0.1800 
     97 C          -4.9232  -20.5676  -49.7799 C.2       17 UNK         0.5000 
     98 O          -4.0576  -19.7235  -49.5593 O.2       17 UNK        -0.5000 
     99 N          -5.3875  -20.8761  -51.0006 N.am      18 UNK        -0.5000 
    100 CA        -4.9388  -20.3288  -52.2880 C.3       18 UNK         0.1400 
    101 CB        -3.5608  -20.9139  -52.6482 C.3       18 UNK        -0.1800 
    102 C         -4.9661  -18.7848  -52.3375 C.2       18 UNK         0.5000 
    103 O         -3.9792  -18.1606  -52.7321 O.2       18 UNK        -0.5000 
    104 N         -6.1024  -18.2165  -51.9047 N.am      19 UNK        -0.5000 
    105 CA        -6.3691  -16.7902  -51.6942 C.3       19 UNK         0.1400 
    106 CB        -7.8659  -16.6074  -51.3936 C.3       19 UNK        -0.1800 
    107 C         -5.9193  -15.8834  -52.8576 C.2       19 UNK         0.5000 
    108 O         -6.5891  -15.8337  -53.8912 O.2       19 UNK        -0.5000 
    109 N         -4.7706  -15.2209  -52.6628 N.am      20 UNK        -0.5000 
    110 CA        -4.0574  -14.3284  -53.5841 C.3       20 UNK         0.1400 
    111 CB        -4.9098  -13.0826  -53.9027 C.3       20 UNK        -0.1800 
    112 C         -3.5259  -15.0030  -54.8703 C.2       20 UNK         0.5000 
    113 O         -3.0339  -14.2996  -55.7543 O.2       20 UNK        -0.5000 
    114 N         -3.6103  -16.3364  -54.9691 N.am      21 UNK        -0.5000 
    115 CA        -3.2316  -17.1014  -56.1584 C.3       21 UNK         0.1400 
    116 CB        -4.0195  -18.4199  -56.1827 C.3       21 UNK        -0.1800 
    117 C         -1.7195  -17.3723  -56.2301 C.2       21 UNK         0.5000 
    118 O         -1.1782  -17.4919  -57.3299 O.2       21 UNK        -0.5000 
    119 N         -1.0674  -17.4578  -55.0645 N.am      22 UNK        -0.5000 
    120 CA         0.3760  -17.7188  -54.9225 C.3       22 UNK         0.1400 
    121 C          1.2824  -16.4702  -55.1417 C.2       22 UNK         0.5000 
    122 N          0.7429  -15.2882  -55.4169 N.am      22 UNK        -0.7600 
    123 O          2.5038  -16.5772  -55.0749 O.2       22 UNK        -0.5000 
    124 C124        0.6957  -18.4341  -53.5838 C.3       23 UNK        -0.0398 
    125 S125       -0.1724  -20.0329  -53.4469 S.3       23 UNK        -0.2404 
    126 C126        1.0067  -21.0190  -52.4660 C.3       23 UNK        -0.0205 
    127 H127       -6.3352  -15.5835  -45.0052 H         1 UNK         0.0600 
    128 H128       -7.6999  -16.3736  -45.8009 H         1 UNK         0.0600 
    129 H129       -7.4077  -14.6491  -46.0523 H         1 UNK         0.0600 
    130 H130       -4.4016  -16.0619  -45.9809 H         1 UNK         0.3000 
    131 H131       -4.1522  -17.2544  -48.5611 H         1 UNK         0.0600 
    132 H132       -2.0328  -16.1086  -46.6714 H         1 UNK         0.0800 
    133 H133       -2.6121  -17.7448  -46.6878 H         1 UNK         0.0800 
    134 H134       -0.6695  -19.1654  -47.0865 H         1 UNK         0.0800 
    135 H135       -1.7753  -19.6194  -48.3662 H         1 UNK         0.0800 
    136 H136       -0.8557  -19.8818  -50.7376 H         1 UNK         0.1150 
    137 H137        3.2256  -21.2011  -50.9328 H         1 UNK         0.1150 
    138 H138        1.6728  -19.5305  -47.3062 H         1 UNK         0.1150 
    139 H139        4.7357  -20.4555  -49.0977 H         1 UNK         0.0800 
    140 H140        4.0964  -19.9112  -47.5700 H         1 UNK         0.0800 
    141 H141        2.6521  -21.2629  -46.0778 H         1 UNK         0.0800 
    142 H142        3.9209  -22.2181  -45.3842 H         1 UNK         0.0800 
    143 H143        2.5995  -24.2885  -46.4398 H         1 UNK         0.0600 
    144 H144        2.3062  -23.0081  -43.8787 H         1 UNK         0.3000 
    145 H145        0.6015  -25.6604  -42.2841 H         1 UNK         0.0600 
    146 H146        2.6002  -25.6097  -40.8169 H         1 UNK         0.0600 
    147 H147        2.9714  -26.4461  -42.3160 H         1 UNK         0.0600 
    148 H148        3.5375  -24.7981  -42.0714 H         1 UNK         0.0600 
    149 H149        1.7707  -23.2014  -41.3619 H         1 UNK         0.3000 
    150 H150       -1.0798  -21.1420  -41.9920 H         1 UNK         0.0600 
    151 H151       -1.6073  -22.3614  -39.8706 H         1 UNK         0.0600 
    152 H152       -0.9195  -20.7754  -39.5585 H         1 UNK         0.0600 
    153 H153        0.0736  -22.2205  -39.3665 H         1 UNK         0.0600 
    154 H154        1.2622  -20.4201  -40.6827 H         1 UNK         0.3000 
    155 H155        3.4570  -19.8354  -42.0329 H         1 UNK         0.0600 
    156 H156        2.3162  -18.4173  -44.4973 H         1 UNK         0.0600 
    157 H157        3.8848  -18.0723  -43.7726 H         1 UNK         0.0600 
    158 H158        3.5732  -19.6476  -44.4791 H         1 UNK         0.0600 
    159 H159        1.7502  -17.4514  -42.2644 H         1 UNK         0.3000 
    160 H160        0.9536  -17.2905  -38.8367 H         1 UNK         0.0600 
    161 H161        3.0631  -15.5289  -40.2022 H         1 UNK         0.0600 
    162 H162        3.2786  -16.3780  -38.6767 H         1 UNK         0.0600 
    163 H163        2.0973  -15.0851  -38.7952 H         1 UNK         0.0600 
    164 H164        0.7222  -15.3689  -40.9318 H         1 UNK         0.3000 
    165 H165       -1.7801  -16.7160  -42.8503 H         1 UNK         0.0600 
    166 H166       -3.3389  -14.9043  -42.1842 H         1 UNK         0.0600 
    167 H167       -3.3399  -16.1771  -40.9755 H         1 UNK         0.0600 
    168 H168       -2.4705  -14.6800  -40.6662 H         1 UNK         0.0600 
    169 H169       -1.0094  -14.0033  -42.5453 H         1 UNK         0.3000 
    170 H170        0.3282  -13.0598  -44.0984 H         1 UNK         0.0600 
    171 H171        2.9422  -14.2135  -42.9676 H         1 UNK         0.0600 
    172 H172        2.6700  -12.5279  -43.4094 H         1 UNK         0.0600 
    173 H173        1.7822  -13.2390  -42.0728 H         1 UNK         0.0600 
    174 H174        2.6404  -14.1850  -45.4040 H         1 UNK         0.3000 
    175 H175        2.4957  -13.7543  -47.8520 H         1 UNK         0.0600 
    176 H176        2.8459  -16.1397  -48.6792 H         1 UNK         0.0600 
    177 H177        1.6023  -16.6896  -47.5598 H         1 UNK         0.0600 
    178 H178        3.0937  -15.9937  -46.9469 H         1 UNK         0.0600 
    179 H179       -0.1618  -14.6271  -48.6645 H         1 UNK         0.3000 
    180 H180        0.0607  -12.9309  -51.7115 H         1 UNK         0.0600 
    181 H181       -0.4114  -15.9475  -51.4217 H         1 UNK         0.0600 
    182 H182        0.8057  -15.2250  -52.4674 H         1 UNK         0.0600 
    183 H183       -0.8986  -14.9357  -52.7816 H         1 UNK         0.0600 
    184 H184       -2.0155  -14.4781  -50.4371 H         1 UNK         0.3000 
    185 H185       -3.1480  -11.9967  -48.1841 H         1 UNK         0.0600 
    186 H186       -4.4453  -13.0114  -50.7637 H         1 UNK         0.0600 
    187 H187       -5.2939  -12.3383  -49.3757 H         1 UNK         0.0600 
    188 H188       -4.2094  -11.3291  -50.3212 H         1 UNK         0.0600 
    189 H189       -3.4267  -13.9908  -47.3414 H         1 UNK         0.3000 
    190 H190        0.3007  -21.9428  -45.0115 H         1 UNK         0.3000 
    191 H191       -1.4510  -21.6977  -47.2119 H         1 UNK         0.0600 
    192 H192       -1.4142  -20.2061  -45.1558 H         1 UNK         0.0600 
    193 H193       -3.0272  -20.7763  -45.5631 H         1 UNK         0.0600 
    194 H194       -2.1449  -21.5083  -44.2301 H         1 UNK         0.0600 
    195 H195       -1.4831  -24.0661  -44.5039 H         1 UNK         0.3000 
    196 H196       -3.8391  -25.4381  -45.2628 H         1 UNK         0.0600 
    197 H197       -2.9447  -27.2535  -43.7935 H         1 UNK         0.0600 
    198 H198       -2.8095  -25.6774  -43.0300 H         1 UNK         0.0600 
    199 H199       -1.3845  -26.4435  -43.7287 H         1 UNK         0.0600 
    200 H200       -0.4096  -26.0289  -46.1678 H         1 UNK         0.3000 
    201 H201       -0.8792  -28.3197  -47.7954 H         1 UNK         0.0600 
    202 H202        1.3520  -27.7431  -46.8883 H         1 UNK         0.0600 
    203 H203        1.4005  -26.2714  -47.8554 H         1 UNK         0.0600 
    204 H204        1.4224  -27.8453  -48.6413 H         1 UNK         0.0600 
    205 H205       -0.7860  -24.8264  -48.5649 H         1 UNK         0.3000 
    206 H206       -1.1739  -25.1087  -51.3908 H         1 UNK         0.0600 
    207 H207       -0.1434  -23.1159  -50.2822 H         1 UNK         0.0600 
    208 H208       -1.5119  -22.6553  -51.2822 H         1 UNK         0.0600 
    209 H209       -1.6888  -22.7222  -49.5340 H         1 UNK         0.0600 
    210 H210       -3.3754  -25.3004  -48.7457 H         1 UNK         0.3000 
    211 H211       -5.5577  -25.4559  -48.4428 H         1 UNK         0.0600 
    212 H212       -5.9260  -25.7930  -51.4683 H         1 UNK         0.0600 
    213 H213       -7.1024  -26.1626  -50.2188 H         1 UNK         0.0600 
    214 H214       -5.6205  -27.1007  -50.3258 H         1 UNK         0.0600 
    215 H215       -4.5583  -23.1557  -48.1295 H         1 UNK         0.3000 
    216 H216       -4.9339  -21.0567  -47.7136 H         1 UNK         0.0600 
    217 H217       -7.0686  -19.8988  -48.1298 H         1 UNK         0.0600 
    218 H218       -7.3583  -21.4876  -47.4374 H         1 UNK         0.0600 
    219 H219       -7.6325  -21.2069  -49.1556 H         1 UNK         0.0600 
    220 H220       -6.0724  -21.6249  -51.0478 H         1 UNK         0.3000 
    221 H221       -5.6499  -20.6735  -53.0399 H         1 UNK         0.0600 
    222 H222       -2.7977  -20.6050  -51.9341 H         1 UNK         0.0600 
    223 H223       -3.5866  -22.0024  -52.6619 H         1 UNK         0.0600 
    224 H224       -3.2367  -20.5889  -53.6363 H         1 UNK         0.0600 
    225 H225       -6.8411  -18.8388  -51.6132 H         1 UNK         0.3000 
    226 H226       -5.8205  -16.4980  -50.7990 H         1 UNK         0.0600 
    227 H227       -8.1567  -17.1520  -50.4950 H         1 UNK         0.0600 
    228 H228       -8.1025  -15.5564  -51.2228 H         1 UNK         0.0600 
    229 H229       -8.4898  -16.9570  -52.2171 H         1 UNK         0.0600 
    230 H230       -4.2932  -15.3795  -51.7755 H         1 UNK         0.3000 
    231 H231       -3.1763  -13.9893  -53.0382 H         1 UNK         0.0600 
    232 H232       -5.7723  -13.3307  -54.5218 H         1 UNK         0.0600 
    233 H233       -4.3262  -12.3362  -54.4428 H         1 UNK         0.0600 
    234 H234       -5.2769  -12.6070  -52.9937 H         1 UNK         0.0600 
    235 H235       -3.9553  -16.8669  -54.1733 H         1 UNK         0.3000 
    236 H236       -3.5098  -16.5310  -57.0473 H         1 UNK         0.0600 
    237 H237       -5.0939  -18.2389  -56.1463 H         1 UNK         0.0600 
    238 H238       -3.8129  -18.9804  -57.0952 H         1 UNK         0.0600 
    239 H239       -3.7578  -19.0592  -55.3405 H         1 UNK         0.0600 
    240 H240       -1.5966  -17.3696  -54.2089 H         1 UNK         0.3000 
    241 H241        0.6617  -18.4084  -55.7192 H         1 UNK         0.0600 
    242 H242       -0.2555  -15.1881  -55.5088 H         1 UNK         0.3800 
    243 H243        1.3434  -14.4932  -55.5674 H         1 UNK         0.3800 
    244 H244        1.7682  -18.6140  -53.4926 H         1 UNK         0.0800 
    245 H245        0.4154  -17.8143  -52.7323 H         1 UNK         0.0800 
    246 H246        0.6678  -22.0551  -52.4634 H         1 UNK         0.0800 
    247 H247        1.9703  -21.0157  -52.9777 H         1 UNK         0.0800 
@<TRIPOS>BOND
     1    1    2 1    
     2    1  127 1    
     3    1  128 1    
     4    1  129 1    
     5    2    3 2    
     6    2    4 am   BACKBONE|DICT|INTERRES
     7    4    5 1    
     8    4  130 1    
     9    5    6 1    
    10    5   65 1    
    11    5  131 1    
    12    6    7 1    
    13    6  132 1    
    14    6  133 1    
    15    7    8 1    
    16    8    9 1    
    17    8  134 1    
    18    8  135 1    
    19    9   10 ar   
    20    9   14 ar   
    21   10   11 ar   
    22   10  136 1    
    23   11   12 ar   
    24   11  126 1    
    25   12   13 ar   
    26   12  137 1    
    27   13   14 ar   
    28   13   15 1    
    29   14  138 1    
    30   15   16 1    
    31   15  139 1    
    32   15  140 1    
    33   16   17 1    
    34   17   18 1    
    35   17  141 1    
    36   17  142 1    
    37   18   19 1    
    38   18   67 1    
    39   18  143 1    
    40   19   20 am   BACKBONE|DICT|INTERRES
    41   19  144 1    
    42   20   21 2    
    43   20   22 1    
    44   22   23 1    
    45   22   24 1    
    46   22  145 1    
    47   23  146 1    
    48   23  147 1    
    49   23  148 1    
    50   24   25 am   BACKBONE|DICT|INTERRES
    51   24  149 1    
    52   25   26 2    
    53   25   27 1    
    54   27   28 1    
    55   27   29 1    
    56   27  150 1    
    57   28  151 1    
    58   28  152 1    
    59   28  153 1    
    60   29   30 am   BACKBONE|DICT|INTERRES
    61   29  154 1    
    62   30   31 2    
    63   30   32 1    
    64   32   33 1    
    65   32   34 1    
    66   32  155 1    
    67   33  156 1    
    68   33  157 1    
    69   33  158 1    
    70   34   35 am   BACKBONE|DICT|INTERRES
    71   34  159 1    
    72   35   36 2    
    73   35   37 1    
    74   37   38 1    
    75   37   39 1    
    76   37  160 1    
    77   38  161 1    
    78   38  162 1    
    79   38  163 1    
    80   39   40 am   BACKBONE|DICT|INTERRES
    81   39  164 1    
    82   40   41 2    
    83   40   42 1    
    84   42   43 1    
    85   42   44 1    
    86   42  165 1    
    87   43  166 1    
    88   43  167 1    
    89   43  168 1    
    90   44   45 am   BACKBONE|DICT|INTERRES
    91   44  169 1    
    92   45   46 2    
    93   45   47 1    
    94   47   48 1    
    95   47   49 1    
    96   47  170 1    
    97   48  171 1    
    98   48  172 1    
    99   48  173 1    
   100   49   50 am   BACKBONE|DICT|INTERRES
   101   49  174 1    
   102   50   51 2    
   103   50   52 1    
   104   52   53 1    
   105   52   54 1    
   106   52  175 1    
   107   53  176 1    
   108   53  177 1    
   109   53  178 1    
   110   54   55 am   BACKBONE|DICT|INTERRES
   111   54  179 1    
   112   55   56 2    
   113   55   57 1    
   114   57   58 1    
   115   57   59 1    
   116   57  180 1    
   117   58  181 1    
   118   58  182 1    
   119   58  183 1    
   120   59   60 am   BACKBONE|DICT|INTERRES
   121   59  184 1    
   122   60   61 2    
   123   60   62 1    
   124   62   63 1    
   125   62   64 1    
   126   62  185 1    
   127   63  186 1    
   128   63  187 1    
   129   63  188 1    
   130   64   65 am   BACKBONE|DICT|INTERRES
   131   64  189 1    
   132   65   66 2    
   133   67   68 2    
   134   67   69 am   BACKBONE|DICT|INTERRES
   135   69   70 1    
   136   69  190 1    
   137   70   71 1    
   138   70   72 1    
   139   70  191 1    
   140   71  192 1    
   141   71  193 1    
   142   71  194 1    
   143   72   73 2    
   144   72   74 am   BACKBONE|DICT|INTERRES
   145   74   75 1    
   146   74  195 1    
   147   75   76 1    
   148   75   77 1    
   149   75  196 1    
   150   76  197 1    
   151   76  198 1    
   152   76  199 1    
   153   77   78 2    
   154   77   79 am   BACKBONE|DICT|INTERRES
   155   79   80 1    
   156   79  200 1    
   157   80   81 1    
   158   80   82 1    
   159   80  201 1    
   160   81  202 1    
   161   81  203 1    
   162   81  204 1    
   163   82   83 2    
   164   82   84 am   BACKBONE|DICT|INTERRES
   165   84   85 1    
   166   84  205 1    
   167   85   86 1    
   168   85   87 1    
   169   85  206 1    
   170   86  207 1    
   171   86  208 1    
   172   86  209 1    
   173   87   88 2    
   174   87   89 am   BACKBONE|DICT|INTERRES
   175   89   90 1    
   176   89  210 1    
   177   90   91 1    
   178   90   92 1    
   179   90  211 1    
   180   91  212 1    
   181   91  213 1    
   182   91  214 1    
   183   92   93 2    
   184   92   94 am   BACKBONE|DICT|INTERRES
   185   94   95 1    
   186   94  215 1    
   187   95   96 1    
   188   95   97 1    
   189   95  216 1    
   190   96  217 1    
   191   96  218 1    
   192   96  219 1    
   193   97   98 2    
   194   97   99 am   BACKBONE|DICT|INTERRES
   195   99  100 1    
   196   99  220 1    
   197  100  101 1    
   198  100  102 1    
   199  100  221 1    
   200  101  222 1    
   201  101  223 1    
   202  101  224 1    
   203  102  103 2    
   204  102  104 am   BACKBONE|DICT|INTERRES
   205  104  105 1    
   206  104  225 1    
   207  105  106 1    
   208  105  107 1    
   209  105  226 1    
   210  106  227 1    
   211  106  228 1    
   212  106  229 1    
   213  107  108 2    
   214  107  109 am   BACKBONE|DICT|INTERRES
   215  109  110 1    
   216  109  230 1    
   217  110  111 1    
   218  110  112 1    
   219  110  231 1    
   220  111  232 1    
   221  111  233 1    
   222  111  234 1    
   223  112  113 2    
   224  112  114 am   BACKBONE|DICT|INTERRES
   225  114  115 1    
   226  114  235 1    
   227  115  116 1    
   228  115  117 1    
   229  115  236 1    
   230  116  237 1    
   231  116  238 1    
   232  116  239 1    
   233  117  118 2    
   234  117  119 am   BACKBONE|DICT|INTERRES
   235  119  120 1    
   236  119  240 1    
   237  120  121 1    
   238  120  124 1    
   239  120  241 1    
   240  121  122 am   BACKBONE|DICT|INTERRES
   241  121  123 2    
   242  122  242 1    
   243  122  243 1    
   244  124  125 1    
   245  124  244 1    
   246  124  245 1    
   247  125  126 1    
   248  126  246 1    
   249  126  247 1    
@<TRIPOS>SUBSTRUCTURE
     1 UNK         1 GROUP             0       ****    0 ROOT    
