@<TRIPOS>MOLECULE
3R540
247   249    1
SMALL
USER_CHARGES


@<TRIPOS>ATOM
      1 CA         -0.2532  -17.1261  -51.3468 C.3       0 UNK        -0.1800 
      2 C           0.0949  -16.0328  -50.3479 C.2       0 UNK         0.5000 
      3 O           0.8921  -15.1490  -50.6636 O.2       0 UNK        -0.5000 
      4 N          -0.5021  -16.0814  -49.1500 N.am      1 UNK        -0.5000 
      5 CA         -0.3897  -15.0501  -48.1140 C.3       1 UNK         0.1400 
      6 C6         -1.0171  -15.4965  -46.7697 C.3       23 UNK        -0.0398 
      7 S7          0.0009  -16.7238  -45.8892 S.3       23 UNK        -0.2404 
      8 C8         -1.0619  -18.1982  -45.9280 C.3       23 UNK        -0.0205 
      9 C9         -1.0893  -18.8605  -47.2975 C.ar      23 UNK        -0.0193 
     10 C10        -2.2853  -18.9756  -48.0116 C.ar      23 UNK        -0.1150 
     11 C11        -2.3043  -19.6036  -49.2607 C.ar      23 UNK        -0.0193 
     12 C12        -1.1184  -20.1176  -49.7944 C.ar      23 UNK        -0.1150 
     13 C13         0.0869  -19.9849  -49.1016 C.ar      23 UNK        -0.0193 
     14 C14         0.0890  -19.3673  -47.8502 C.ar      23 UNK        -0.1150 
     15 C15         1.3972  -20.4375  -49.7310 C.3       23 UNK        -0.0205 
     16 S16         1.6849  -22.2296  -49.5988 S.3       23 UNK        -0.2404 
     17 C17         1.8860  -22.4529  -47.7945 C.3       23 UNK        -0.0398 
     18 CA          1.0024  -23.5841  -47.2200 C.3       11 UNK         0.1400 
     19 N           1.3118  -23.8670  -45.8186 N.am      11 UNK        -0.5000 
     20 C           0.9661  -24.9957  -45.1831 C.2       10 UNK         0.5000 
     21 O           0.3918  -25.9390  -45.7273 O.2       10 UNK        -0.5000 
     22 CA          1.2667  -25.0547  -43.6738 C.3       10 UNK         0.1400 
     23 CB          2.7283  -25.4551  -43.4253 C.3       10 UNK        -0.1800 
     24 N           0.9872  -23.7851  -43.0000 N.am      10 UNK        -0.5000 
     25 C          -0.2360  -23.2499  -42.8832 C.2       9 UNK         0.5000 
     26 O          -1.2600  -23.8052  -43.2792 O.2       9 UNK        -0.5000 
     27 CA         -0.3342  -21.8458  -42.2589 C.3       9 UNK         0.1400 
     28 CB         -0.5759  -21.9461  -40.7459 C.3       9 UNK        -0.1800 
     29 N           0.8275  -20.9868  -42.5014 N.am      9 UNK        -0.5000 
     30 C           1.3024  -20.6129  -43.6965 C.2       8 UNK         0.5000 
     31 O           0.8579  -21.0352  -44.7661 O.2       8 UNK        -0.5000 
     32 CA          2.4552  -19.5865  -43.6703 C.3       8 UNK         0.1400 
     33 CB          2.9914  -19.2347  -45.0675 C.3       8 UNK        -0.1800 
     34 N           2.0680  -18.3488  -42.9872 N.am      8 UNK        -0.5000 
     35 C           2.0414  -18.1755  -41.6592 C.2       7 UNK         0.5000 
     36 O           2.3122  -19.0802  -40.8661 O.2       7 UNK        -0.5000 
     37 CA          1.6126  -16.7919  -41.1195 C.3       7 UNK         0.1400 
     38 CB          2.2951  -16.4546  -39.7779 C.3       7 UNK        -0.1800 
     39 N           1.7624  -15.6633  -42.0469 N.am      7 UNK        -0.5000 
     40 C           2.8849  -15.2251  -42.6408 C.2       6 UNK         0.5000 
     41 O           3.9592  -15.8260  -42.6221 O.2       6 UNK        -0.5000 
     42 CA          2.8014  -13.8499  -43.3371 C.3       6 UNK         0.1400 
     43 CB          2.4006  -14.0009  -44.8115 C.3       6 UNK        -0.1800 
     44 N           1.8691  -12.9344  -42.6722 N.am      6 UNK        -0.5000 
     45 C           2.0526  -12.4339  -41.4389 C.2       5 UNK         0.5000 
     46 O           3.0818  -12.6061  -40.7846 O.2       5 UNK        -0.5000 
     47 CA          0.9024  -11.6172  -40.8117 C.3       5 UNK         0.1400 
     48 CB          1.2168  -10.1143  -40.8742 C.3       5 UNK        -0.1800 
     49 N          -0.4077  -11.8453  -41.4231 N.am      5 UNK        -0.5000 
     50 C          -1.0744  -13.0079  -41.4592 C.2       4 UNK         0.5000 
     51 O          -0.6746  -14.0445  -40.9288 O.2       4 UNK        -0.5000 
     52 CA         -2.3854  -13.0269  -42.2725 C.3       4 UNK         0.1400 
     53 CB         -3.5970  -12.8826  -41.3394 C.3       4 UNK        -0.1800 
     54 N          -2.4619  -11.9994  -43.3202 N.am      4 UNK        -0.5000 
     55 C          -1.6119  -11.8873  -44.3491 C.2       3 UNK         0.5000 
     56 O          -0.6287  -12.6177  -44.5075 O.2       3 UNK        -0.5000 
     57 CA         -1.8752  -10.7476  -45.3409 C.3       3 UNK         0.1400 
     58 CB         -1.3264   -9.4132  -44.8064 C.3       3 UNK        -0.1800 
     59 N          -1.2085  -11.0964  -46.5860 N.am      3 UNK        -0.5000 
     60 C          -1.5250  -10.6734  -47.8134 C.2       2 UNK         0.5000 
     61 O          -2.4006   -9.8401  -48.0493 O.2       2 UNK        -0.5000 
     62 CA         -0.7358  -11.3081  -48.9760 C.3       2 UNK         0.1400 
     63 CB          0.4662  -10.4288  -49.3535 C.3       2 UNK        -0.1800 
     64 N          -0.2601  -12.6587  -48.6589 N.am      2 UNK        -0.5000 
     65 C          -1.0487  -13.7399  -48.5916 C.2       1 UNK         0.5000 
     66 O          -2.2510  -13.7302  -48.8653 O.2       1 UNK        -0.5000 
     67 C          -0.5047  -23.3228  -47.4066 C.2       11 UNK         0.5000 
     68 O          -1.0679  -23.8060  -48.3866 O.2       11 UNK        -0.5000 
     69 N          -1.1414  -22.6317  -46.4487 N.am      12 UNK        -0.5000 
     70 CA         -2.5879  -22.3948  -46.4402 C.3       12 UNK         0.1400 
     71 CB         -2.9631  -21.4530  -45.2867 C.3       12 UNK        -0.1800 
     72 C          -3.4061  -23.6971  -46.3505 C.2       12 UNK         0.5000 
     73 O          -4.4080  -23.8391  -47.0511 O.2       12 UNK        -0.5000 
     74 N          -2.9522  -24.6289  -45.5008 N.am      13 UNK        -0.5000 
     75 CA         -3.5442  -25.9535  -45.3260 C.3       13 UNK         0.1400 
     76 CB         -2.9460  -26.6179  -44.0764 C.3       13 UNK        -0.1800 
     77 C          -3.3625  -26.8527  -46.5621 C.2       13 UNK         0.5000 
     78 O          -4.3097  -27.5309  -46.9624 O.2       13 UNK        -0.5000 
     79 N          -2.1541  -26.8456  -47.1411 N.am      14 UNK        -0.5000 
     80 CA         -1.8050  -27.6429  -48.3174 C.3       14 UNK         0.1400 
     81 CB         -0.2746  -27.7393  -48.4180 C.3       14 UNK        -0.1800 
     82 C          -2.3840  -27.0884  -49.6325 C.2       14 UNK         0.5000 
     83 O          -2.6540  -27.8703  -50.5447 O.2       14 UNK        -0.5000 
     84 N          -2.5143  -25.7556  -49.7178 N.am      15 UNK        -0.5000 
     85 CA         -2.7883  -24.9562  -50.9179 C.3       15 UNK         0.1400 
     86 CB         -4.2118  -25.2179  -51.4503 C.3       15 UNK        -0.1800 
     87 C          -1.6822  -25.1359  -51.9827 C.2       15 UNK         0.5000 
     88 O          -1.9717  -25.2113  -53.1776 O.2       15 UNK        -0.5000 
     89 N          -0.4283  -25.2374  -51.5135 N.am      16 UNK        -0.5000 
     90 CA          0.7498  -25.6012  -52.3076 C.3       16 UNK         0.1400 
     91 CB          1.9242  -25.8871  -51.3591 C.3       16 UNK        -0.1800 
     92 C           1.1433  -24.5501  -53.3614 C.2       16 UNK         0.5000 
     93 O           1.6374  -24.9121  -54.4299 O.2       16 UNK        -0.5000 
     94 N           0.8926  -23.2768  -53.0480 N.am      17 UNK        -0.5000 
     95 CA          1.0385  -22.1346  -53.9411 C.3       17 UNK         0.1400 
     96 CB          2.3703  -21.4161  -53.6589 C.3       17 UNK        -0.1800 
     97 C          -0.1987  -21.2559  -53.7260 C.2       17 UNK         0.5000 
     98 O          -0.1025  -20.1781  -53.1405 O.2       17 UNK        -0.5000 
     99 N          -1.3569  -21.7975  -54.1312 N.am      18 UNK        -0.5000 
    100 CA        -2.6975  -21.2870  -53.8381 C.3       18 UNK         0.1400 
    101 CB        -3.7415  -22.2143  -54.4786 C.3       18 UNK        -0.1800 
    102 C         -2.9592  -19.8325  -54.2644 C.2       18 UNK         0.5000 
    103 O         -3.6841  -19.1264  -53.5619 O.2       18 UNK        -0.5000 
    104 N         -2.3921  -19.4285  -55.4125 N.am      19 UNK        -0.5000 
    105 CA        -2.3807  -18.0691  -55.9786 C.3       19 UNK         0.1400 
    106 CB        -1.4897  -17.1599  -55.1077 C.3       19 UNK        -0.1800 
    107 C         -3.7762  -17.4420  -56.2122 C.2       19 UNK         0.5000 
    108 O         -3.8868  -16.2182  -56.2973 O.2       19 UNK        -0.5000 
    109 N         -4.8166  -18.2879  -56.2687 N.am      20 UNK        -0.5000 
    110 CA        -6.2496  -17.9616  -56.2526 C.3       20 UNK         0.1400 
    111 CB        -6.6517  -17.1431  -57.4972 C.3       20 UNK        -0.1800 
    112 C         -6.7383  -17.3106  -54.9350 C.2       20 UNK         0.5000 
    113 O         -7.8816  -16.8549  -54.8759 O.2       20 UNK        -0.5000 
    114 N         -5.8895  -17.2947  -53.8978 N.am      21 UNK        -0.5000 
    115 CA        -6.2156  -16.8451  -52.5467 C.3       21 UNK         0.1400 
    116 CB        -4.9460  -16.2986  -51.8720 C.3       21 UNK        -0.1800 
    117 C         -6.8202  -18.0012  -51.7345 C.2       21 UNK         0.5000 
    118 O         -7.8322  -17.8109  -51.0589 O.2       21 UNK        -0.5000 
    119 N         -6.2035  -19.1835  -51.8468 N.am      22 UNK        -0.5000 
    120 CA        -6.7316  -20.4545  -51.3360 C.3       22 UNK         0.1400 
    121 C         -7.7235  -21.0698  -52.3601 C.2       22 UNK         0.5000 
    122 N         -8.8070  -21.6767  -51.8965 N.am      22 UNK        -0.7600 
    123 O         -7.4999  -21.0368  -53.5687 O.2       22 UNK        -0.5000 
    124 C124       -5.5942  -21.4573  -51.0155 C.3       23 UNK        -0.0398 
    125 S125       -4.6531  -21.0528  -49.5050 S.3       23 UNK        -0.2404 
    126 C126       -3.5931  -19.6851  -50.0589 C.3       23 UNK        -0.0205 
    127 H127        0.4938  -17.9183  -51.3177 H         1 UNK         0.0600 
    128 H128       -0.2747  -16.7202  -52.3575 H         1 UNK         0.0600 
    129 H129       -1.2312  -17.5613  -51.1422 H         1 UNK         0.0600 
    130 H130       -1.1213  -16.8504  -48.9368 H         1 UNK         0.3000 
    131 H131        0.6728  -14.8592  -47.9469 H         1 UNK         0.0600 
    132 H132       -1.1215  -14.6483  -46.0923 H         1 UNK         0.0800 
    133 H133       -2.0278  -15.8791  -46.9219 H         1 UNK         0.0800 
    134 H134       -2.0666  -17.9366  -45.5928 H         1 UNK         0.0800 
    135 H135       -0.6759  -18.9122  -45.2019 H         1 UNK         0.0800 
    136 H136       -3.2029  -18.5818  -47.5977 H         1 UNK         0.1150 
    137 H137       -1.1249  -20.5895  -50.7658 H         1 UNK         0.1150 
    138 H138        1.0164  -19.2608  -47.3112 H         1 UNK         0.1150 
    139 H139        2.2396  -19.9057  -49.2861 H         1 UNK         0.0800 
    140 H140        1.3930  -20.1611  -50.7850 H         1 UNK         0.0800 
    141 H141        1.6966  -21.5183  -47.2694 H         1 UNK         0.0800 
    142 H142        2.9363  -22.6841  -47.6133 H         1 UNK         0.0800 
    143 H143        1.2374  -24.4879  -47.7870 H         1 UNK         0.0600 
    144 H144        1.6950  -23.1023  -45.2802 H         1 UNK         0.3000 
    145 H145        0.6228  -25.8206  -43.2362 H         1 UNK         0.0600 
    146 H146        2.9585  -26.4070  -43.9058 H         1 UNK         0.0600 
    147 H147        2.9287  -25.5733  -42.3602 H         1 UNK         0.0600 
    148 H148        3.4239  -24.7123  -43.8178 H         1 UNK         0.0600 
    149 H149        1.7764  -23.2667  -42.6436 H         1 UNK         0.3000 
    150 H150       -1.1972  -21.3509  -42.7071 H         1 UNK         0.0600 
    151 H151        0.2740  -22.3973  -40.2325 H         1 UNK         0.0600 
    152 H152       -1.4537  -22.5566  -40.5292 H         1 UNK         0.0600 
    153 H153       -0.7492  -20.9628  -40.3080 H         1 UNK         0.0600 
    154 H154        1.2610  -20.5675  -41.6848 H         1 UNK         0.3000 
    155 H155        3.2755  -20.0535  -43.1212 H         1 UNK         0.0600 
    156 H156        3.9084  -18.6496  -44.9950 H         1 UNK         0.0600 
    157 H157        2.2730  -18.6457  -45.6333 H         1 UNK         0.0600 
    158 H158        3.2238  -20.1299  -45.6455 H         1 UNK         0.0600 
    159 H159        1.8015  -17.5724  -43.5753 H         1 UNK         0.3000 
    160 H160        0.5420  -16.8731  -40.9271 H         1 UNK         0.0600 
    161 H161        3.3795  -16.4027  -39.8805 H         1 UNK         0.0600 
    162 H162        2.0718  -17.2053  -39.0189 H         1 UNK         0.0600 
    163 H163        1.9491  -15.4952  -39.3922 H         1 UNK         0.0600 
    164 H164        0.9452  -15.0693  -42.1130 H         1 UNK         0.3000 
    165 H165        3.7973  -13.4035  -43.3019 H         1 UNK         0.0600 
    166 H166        2.4540  -13.0457  -45.3340 H         1 UNK         0.0600 
    167 H167        3.0607  -14.6965  -45.3314 H         1 UNK         0.0600 
    168 H168        1.3830  -14.3757  -44.9095 H         1 UNK         0.0600 
    169 H169        1.0003  -12.7418  -43.1585 H         1 UNK         0.3000 
    170 H170        0.8328  -11.9113  -39.7625 H         1 UNK         0.0600 
    171 H171        0.4572   -9.5294  -40.3551 H         1 UNK         0.0600 
    172 H172        1.2712   -9.7582  -41.9038 H         1 UNK         0.0600 
    173 H173        2.1739   -9.8939  -40.3994 H         1 UNK         0.0600 
    174 H174       -0.8215  -11.0561  -41.8961 H         1 UNK         0.3000 
    175 H175       -2.4448  -14.0010  -42.7624 H         1 UNK         0.0600 
    176 H176       -3.5862  -13.6487  -40.5628 H         1 UNK         0.0600 
    177 H177       -3.6084  -11.9117  -40.8426 H         1 UNK         0.0600 
    178 H178       -4.5331  -12.9918  -41.8873 H         1 UNK         0.0600 
    179 H179       -3.2342  -11.3519  -43.2528 H         1 UNK         0.3000 
    180 H180       -2.9510  -10.6702  -45.5115 H         1 UNK         0.0600 
    181 H181       -0.2532   -9.4673  -44.6183 H         1 UNK         0.0600 
    182 H182       -1.8119   -9.1346  -43.8705 H         1 UNK         0.0600 
    183 H183       -1.5004   -8.6024  -45.5140 H         1 UNK         0.0600 
    184 H184       -0.4996  -11.8102  -46.4752 H         1 UNK         0.3000 
    185 H185       -1.4020  -11.3665  -49.8394 H         1 UNK         0.0600 
    186 H186        0.9988  -10.8366  -50.2129 H         1 UNK         0.0600 
    187 H187        0.1437   -9.4214  -49.6205 H         1 UNK         0.0600 
    188 H188        1.1751  -10.3387  -48.5294 H         1 UNK         0.0600 
    189 H189        0.7250  -12.7532  -48.4572 H         1 UNK         0.3000 
    190 H190       -0.5967  -22.2265  -45.6963 H         1 UNK         0.3000 
    191 H191       -2.8368  -21.9009  -47.3799 H         1 UNK         0.0600 
    192 H192       -2.3356  -20.5660  -45.2746 H         1 UNK         0.0600 
    193 H193       -3.9968  -21.1200  -45.3847 H         1 UNK         0.0600 
    194 H194       -2.8702  -21.9403  -44.3169 H         1 UNK         0.0600 
    195 H195       -2.1628  -24.3999  -44.9038 H         1 UNK         0.3000 
    196 H196       -4.6161  -25.8253  -45.1611 H         1 UNK         0.0600 
    197 H197       -3.3764  -27.6069  -43.9145 H         1 UNK         0.0600 
    198 H198       -3.1452  -26.0258  -43.1829 H         1 UNK         0.0600 
    199 H199       -1.8654  -26.7382  -44.1617 H         1 UNK         0.0600 
    200 H200       -1.4094  -26.2995  -46.7214 H         1 UNK         0.3000 
    201 H201       -2.1987  -28.6525  -48.1814 H         1 UNK         0.0600 
    202 H202        0.0260  -28.3364  -49.2799 H         1 UNK         0.0600 
    203 H203        0.1493  -28.2116  -47.5315 H         1 UNK         0.0600 
    204 H204        0.1837  -26.7552  -48.5225 H         1 UNK         0.0600 
    205 H205       -2.2061  -25.2018  -48.9226 H         1 UNK         0.3000 
    206 H206       -2.7442  -23.9115  -50.6055 H         1 UNK         0.0600 
    207 H207       -4.9535  -25.0953  -50.6609 H         1 UNK         0.0600 
    208 H208       -4.4672  -24.5164  -52.2442 H         1 UNK         0.0600 
    209 H209       -4.3164  -26.2239  -51.8571 H         1 UNK         0.0600 
    210 H210       -0.2893  -25.1293  -50.5187 H         1 UNK         0.3000 
    211 H211        0.5144  -26.5239  -52.8422 H         1 UNK         0.0600 
    212 H212        2.1815  -25.0134  -50.7599 H         1 UNK         0.0600 
    213 H213        2.8159  -26.1755  -51.9173 H         1 UNK         0.0600 
    214 H214        1.6916  -26.7053  -50.6776 H         1 UNK         0.0600 
    215 H215        0.4799  -23.0796  -52.1465 H         1 UNK         0.3000 
    216 H216        1.0322  -22.4560  -54.9848 H         1 UNK         0.0600 
    217 H217        2.4670  -20.5175  -54.2692 H         1 UNK         0.0600 
    218 H218        3.2177  -22.0612  -53.8910 H         1 UNK         0.0600 
    219 H219        2.4584  -21.1187  -52.6146 H         1 UNK         0.0600 
    220 H220       -1.3218  -22.7063  -54.5716 H         1 UNK         0.3000 
    221 H221       -2.8120  -21.3358  -52.7554 H         1 UNK         0.0600 
    222 H222       -3.6287  -22.2576  -55.5625 H         1 UNK         0.0600 
    223 H223       -3.6568  -23.2305  -54.0959 H         1 UNK         0.0600 
    224 H224       -4.7568  -21.8733  -54.2704 H         1 UNK         0.0600 
    225 H225       -1.8436  -20.1100  -55.9178 H         1 UNK         0.3000 
    226 H226       -1.9159  -18.1498  -56.9621 H         1 UNK         0.0600 
    227 H227       -1.3190  -16.1953  -55.5868 H         1 UNK         0.0600 
    228 H228       -1.9465  -16.9677  -54.1362 H         1 UNK         0.0600 
    229 H229       -0.5130  -17.6121  -54.9337 H         1 UNK         0.0600 
    230 H230       -4.6025  -19.2715  -56.1866 H         1 UNK         0.3000 
    231 H231       -6.7680  -18.9197  -56.3131 H         1 UNK         0.0600 
    232 H232       -6.2495  -16.1303  -57.4666 H         1 UNK         0.0600 
    233 H233       -7.7362  -17.0577  -57.5744 H         1 UNK         0.0600 
    234 H234       -6.2997  -17.6179  -58.4129 H         1 UNK         0.0600 
    235 H235       -4.9864  -17.7439  -54.0095 H         1 UNK         0.3000 
    236 H236       -6.9498  -16.0380  -52.5944 H         1 UNK         0.0600 
    237 H237       -4.1546  -17.0471  -51.8228 H         1 UNK         0.0600 
    238 H238       -4.5538  -15.4387  -52.4151 H         1 UNK         0.0600 
    239 H239       -5.1543  -15.9725  -50.8522 H         1 UNK         0.0600 
    240 H240       -5.3977  -19.2460  -52.4581 H         1 UNK         0.3000 
    241 H241       -7.2795  -20.2612  -50.4113 H         1 UNK         0.0600 
    242 H242       -9.4513  -22.0926  -52.5513 H         1 UNK         0.3800 
    243 H243       -9.0092  -21.7227  -50.9095 H         1 UNK         0.3800 
    244 H244       -4.9130  -21.5579  -51.8578 H         1 UNK         0.0800 
    245 H245       -6.0066  -22.4547  -50.8515 H         1 UNK         0.0800 
    246 H246       -3.3591  -19.7980  -51.1144 H         1 UNK         0.0800 
    247 H247       -4.1418  -18.7475  -49.9646 H         1 UNK         0.0800 
@<TRIPOS>BOND
     1    1    2 1    
     2    1  127 1    
     3    1  128 1    
     4    1  129 1    
     5    2    3 2    
     6    2    4 am   BACKBONE|DICT|INTERRES
     7    4    5 1    
     8    4  130 1    
     9    5    6 1    
    10    5   65 1    
    11    5  131 1    
    12    6    7 1    
    13    6  132 1    
    14    6  133 1    
    15    7    8 1    
    16    8    9 1    
    17    8  134 1    
    18    8  135 1    
    19    9   10 ar   
    20    9   14 ar   
    21   10   11 ar   
    22   10  136 1    
    23   11   12 ar   
    24   11  126 1    
    25   12   13 ar   
    26   12  137 1    
    27   13   14 ar   
    28   13   15 1    
    29   14  138 1    
    30   15   16 1    
    31   15  139 1    
    32   15  140 1    
    33   16   17 1    
    34   17   18 1    
    35   17  141 1    
    36   17  142 1    
    37   18   19 1    
    38   18   67 1    
    39   18  143 1    
    40   19   20 am   BACKBONE|DICT|INTERRES
    41   19  144 1    
    42   20   21 2    
    43   20   22 1    
    44   22   23 1    
    45   22   24 1    
    46   22  145 1    
    47   23  146 1    
    48   23  147 1    
    49   23  148 1    
    50   24   25 am   BACKBONE|DICT|INTERRES
    51   24  149 1    
    52   25   26 2    
    53   25   27 1    
    54   27   28 1    
    55   27   29 1    
    56   27  150 1    
    57   28  151 1    
    58   28  152 1    
    59   28  153 1    
    60   29   30 am   BACKBONE|DICT|INTERRES
    61   29  154 1    
    62   30   31 2    
    63   30   32 1    
    64   32   33 1    
    65   32   34 1    
    66   32  155 1    
    67   33  156 1    
    68   33  157 1    
    69   33  158 1    
    70   34   35 am   BACKBONE|DICT|INTERRES
    71   34  159 1    
    72   35   36 2    
    73   35   37 1    
    74   37   38 1    
    75   37   39 1    
    76   37  160 1    
    77   38  161 1    
    78   38  162 1    
    79   38  163 1    
    80   39   40 am   BACKBONE|DICT|INTERRES
    81   39  164 1    
    82   40   41 2    
    83   40   42 1    
    84   42   43 1    
    85   42   44 1    
    86   42  165 1    
    87   43  166 1    
    88   43  167 1    
    89   43  168 1    
    90   44   45 am   BACKBONE|DICT|INTERRES
    91   44  169 1    
    92   45   46 2    
    93   45   47 1    
    94   47   48 1    
    95   47   49 1    
    96   47  170 1    
    97   48  171 1    
    98   48  172 1    
    99   48  173 1    
   100   49   50 am   BACKBONE|DICT|INTERRES
   101   49  174 1    
   102   50   51 2    
   103   50   52 1    
   104   52   53 1    
   105   52   54 1    
   106   52  175 1    
   107   53  176 1    
   108   53  177 1    
   109   53  178 1    
   110   54   55 am   BACKBONE|DICT|INTERRES
   111   54  179 1    
   112   55   56 2    
   113   55   57 1    
   114   57   58 1    
   115   57   59 1    
   116   57  180 1    
   117   58  181 1    
   118   58  182 1    
   119   58  183 1    
   120   59   60 am   BACKBONE|DICT|INTERRES
   121   59  184 1    
   122   60   61 2    
   123   60   62 1    
   124   62   63 1    
   125   62   64 1    
   126   62  185 1    
   127   63  186 1    
   128   63  187 1    
   129   63  188 1    
   130   64   65 am   BACKBONE|DICT|INTERRES
   131   64  189 1    
   132   65   66 2    
   133   67   68 2    
   134   67   69 am   BACKBONE|DICT|INTERRES
   135   69   70 1    
   136   69  190 1    
   137   70   71 1    
   138   70   72 1    
   139   70  191 1    
   140   71  192 1    
   141   71  193 1    
   142   71  194 1    
   143   72   73 2    
   144   72   74 am   BACKBONE|DICT|INTERRES
   145   74   75 1    
   146   74  195 1    
   147   75   76 1    
   148   75   77 1    
   149   75  196 1    
   150   76  197 1    
   151   76  198 1    
   152   76  199 1    
   153   77   78 2    
   154   77   79 am   BACKBONE|DICT|INTERRES
   155   79   80 1    
   156   79  200 1    
   157   80   81 1    
   158   80   82 1    
   159   80  201 1    
   160   81  202 1    
   161   81  203 1    
   162   81  204 1    
   163   82   83 2    
   164   82   84 am   BACKBONE|DICT|INTERRES
   165   84   85 1    
   166   84  205 1    
   167   85   86 1    
   168   85   87 1    
   169   85  206 1    
   170   86  207 1    
   171   86  208 1    
   172   86  209 1    
   173   87   88 2    
   174   87   89 am   BACKBONE|DICT|INTERRES
   175   89   90 1    
   176   89  210 1    
   177   90   91 1    
   178   90   92 1    
   179   90  211 1    
   180   91  212 1    
   181   91  213 1    
   182   91  214 1    
   183   92   93 2    
   184   92   94 am   BACKBONE|DICT|INTERRES
   185   94   95 1    
   186   94  215 1    
   187   95   96 1    
   188   95   97 1    
   189   95  216 1    
   190   96  217 1    
   191   96  218 1    
   192   96  219 1    
   193   97   98 2    
   194   97   99 am   BACKBONE|DICT|INTERRES
   195   99  100 1    
   196   99  220 1    
   197  100  101 1    
   198  100  102 1    
   199  100  221 1    
   200  101  222 1    
   201  101  223 1    
   202  101  224 1    
   203  102  103 2    
   204  102  104 am   BACKBONE|DICT|INTERRES
   205  104  105 1    
   206  104  225 1    
   207  105  106 1    
   208  105  107 1    
   209  105  226 1    
   210  106  227 1    
   211  106  228 1    
   212  106  229 1    
   213  107  108 2    
   214  107  109 am   BACKBONE|DICT|INTERRES
   215  109  110 1    
   216  109  230 1    
   217  110  111 1    
   218  110  112 1    
   219  110  231 1    
   220  111  232 1    
   221  111  233 1    
   222  111  234 1    
   223  112  113 2    
   224  112  114 am   BACKBONE|DICT|INTERRES
   225  114  115 1    
   226  114  235 1    
   227  115  116 1    
   228  115  117 1    
   229  115  236 1    
   230  116  237 1    
   231  116  238 1    
   232  116  239 1    
   233  117  118 2    
   234  117  119 am   BACKBONE|DICT|INTERRES
   235  119  120 1    
   236  119  240 1    
   237  120  121 1    
   238  120  124 1    
   239  120  241 1    
   240  121  122 am   BACKBONE|DICT|INTERRES
   241  121  123 2    
   242  122  242 1    
   243  122  243 1    
   244  124  125 1    
   245  124  244 1    
   246  124  245 1    
   247  125  126 1    
   248  126  246 1    
   249  126  247 1    
@<TRIPOS>SUBSTRUCTURE
     1 UNK         1 GROUP             0       ****    0 ROOT    
