@<TRIPOS>MOLECULE
3R540
247   249    1
SMALL
USER_CHARGES


@<TRIPOS>ATOM
      1 CA         -5.3121  -16.5786  -43.8038 C.3       0 UNK        -0.1800 
      2 C          -5.0305  -17.3141  -45.1051 C.2       0 UNK         0.5000 
      3 O          -5.7498  -18.2491  -45.4529 O.2       0 UNK        -0.5000 
      4 N          -3.9998  -16.8832  -45.8382 N.am      1 UNK        -0.5000 
      5 CA         -3.5968  -17.3907  -47.1503 C.3       1 UNK         0.1400 
      6 C6         -2.0797  -17.1747  -47.3503 C.3       23 UNK        -0.0398 
      7 S7         -1.3904  -18.0871  -48.7606 S.3       23 UNK        -0.2404 
      8 C8          0.1167  -17.1190  -49.0777 C.3       23 UNK        -0.0205 
      9 C9          1.1439  -17.9771  -49.7888 C.ar      23 UNK        -0.0193 
     10 C10         1.4651  -17.7551  -51.1275 C.ar      23 UNK        -0.1150 
     11 C11         2.3740  -18.5884  -51.7843 C.ar      23 UNK        -0.0193 
     12 C12         2.9537  -19.6595  -51.0944 C.ar      23 UNK        -0.1150 
     13 C13         2.6473  -19.8811  -49.7469 C.ar      23 UNK        -0.0193 
     14 C14         1.7610  -19.0197  -49.0986 C.ar      23 UNK        -0.1150 
     15 C15         3.2704  -21.0404  -48.9824 C.3       23 UNK        -0.0205 
     16 S16         2.0944  -22.4130  -48.7424 S.3       23 UNK        -0.2404 
     17 C17         1.0202  -21.7725  -47.4096 C.3       23 UNK        -0.0398 
     18 CA          0.2674  -22.8957  -46.6659 C.3       11 UNK         0.1400 
     19 N           1.1679  -23.8662  -46.0444 N.am      11 UNK        -0.5000 
     20 C           0.7992  -25.0904  -45.6468 C.2       10 UNK         0.5000 
     21 O          -0.3376  -25.5415  -45.7864 O.2       10 UNK        -0.5000 
     22 CA          1.8734  -25.9229  -44.9241 C.3       10 UNK         0.1400 
     23 CB          2.7954  -26.6164  -45.9379 C.3       10 UNK        -0.1800 
     24 N           2.6786  -25.1088  -44.0105 N.am      10 UNK        -0.5000 
     25 C           2.1961  -24.5147  -42.9099 C.2       9 UNK         0.5000 
     26 O           1.0357  -24.6441  -42.5215 O.2       9 UNK        -0.5000 
     27 CA          3.1534  -23.5843  -42.1419 C.3       9 UNK         0.1400 
     28 CB          3.9304  -24.3734  -41.0780 C.3       9 UNK        -0.1800 
     29 N           4.1004  -22.8697  -43.0040 N.am      9 UNK        -0.5000 
     30 C           3.7614  -21.9763  -43.9423 C.2       8 UNK         0.5000 
     31 O           2.5971  -21.6846  -44.2297 O.2       8 UNK        -0.5000 
     32 CA          4.9159  -21.3378  -44.7220 C.3       8 UNK         0.1400 
     33 CB          5.3551  -22.2526  -45.8793 C.3       8 UNK        -0.1800 
     34 N           4.4799  -20.0473  -45.2468 N.am      8 UNK        -0.5000 
     35 C           5.2843  -19.0139  -45.5267 C.2       7 UNK         0.5000 
     36 O           6.5058  -19.0469  -45.3715 O.2       7 UNK        -0.5000 
     37 CA          4.6378  -17.7296  -46.0859 C.3       7 UNK         0.1400 
     38 CB          5.0111  -17.5421  -47.5658 C.3       7 UNK        -0.1800 
     39 N           3.1782  -17.7170  -45.9722 N.am      7 UNK        -0.5000 
     40 C           2.4987  -17.2916  -44.9004 C.2       6 UNK         0.5000 
     41 O           3.0250  -16.8679  -43.8696 O.2       6 UNK        -0.5000 
     42 CA          0.9660  -17.3844  -44.9935 C.3       6 UNK         0.1400 
     43 CB          0.4334  -18.5402  -44.1384 C.3       6 UNK        -0.1800 
     44 N           0.3050  -16.1420  -44.5927 N.am      6 UNK        -0.5000 
     45 C           0.3151  -15.0177  -45.3184 C.2       5 UNK         0.5000 
     46 O           0.8984  -14.9084  -46.3991 O.2       5 UNK        -0.5000 
     47 CA         -0.4588  -13.8129  -44.7528 C.3       5 UNK         0.1400 
     48 CB          0.4874  -12.8731  -43.9906 C.3       5 UNK        -0.1800 
     49 N          -1.0826  -13.0764  -45.8525 N.am      5 UNK        -0.5000 
     50 C          -2.2538  -13.4061  -46.4093 C.2       4 UNK         0.5000 
     51 O          -3.0275  -14.2329  -45.9207 O.2       4 UNK        -0.5000 
     52 CA         -2.5740  -12.7301  -47.7551 C.3       4 UNK         0.1400 
     53 CB         -1.6378  -13.2529  -48.8602 C.3       4 UNK        -0.1800 
     54 N          -3.9544  -12.9728  -48.1776 N.am      4 UNK        -0.5000 
     55 C          -4.9716  -12.1219  -47.9871 C.2       3 UNK         0.5000 
     56 O          -4.8575  -11.0604  -47.3719 O.2       3 UNK        -0.5000 
     57 CA         -6.3391  -12.4733  -48.6113 C.3       3 UNK         0.1400 
     58 CB         -6.6083  -11.5804  -49.8336 C.3       3 UNK        -0.1800 
     59 N          -6.4428  -13.8712  -49.0320 N.am      3 UNK        -0.5000 
     60 C          -6.9223  -14.8605  -48.2695 C.2       2 UNK         0.5000 
     61 O          -7.3716  -14.6931  -47.1348 O.2       2 UNK        -0.5000 
     62 CA         -6.8580  -16.2927  -48.8417 C.3       2 UNK         0.1400 
     63 CB         -6.7626  -16.3702  -50.3823 C.3       2 UNK        -0.1800 
     64 N          -5.7669  -17.0259  -48.2007 N.am      2 UNK        -0.5000 
     65 C          -4.4669  -16.6985  -48.2176 C.2       1 UNK         0.5000 
     66 O          -3.9892  -15.8270  -48.9474 O.2       1 UNK        -0.5000 
     67 C          -0.7213  -22.3158  -45.6349 C.2       11 UNK         0.5000 
     68 O          -1.8821  -22.1010  -45.9745 O.2       11 UNK        -0.5000 
     69 N          -0.2728  -22.1194  -44.3859 N.am      12 UNK        -0.5000 
     70 CA         -1.1177  -21.7076  -43.2614 C.3       12 UNK         0.1400 
     71 CB         -0.2444  -21.4052  -42.0333 C.3       12 UNK        -0.1800 
     72 C          -2.1929  -22.7558  -42.9177 C.2       12 UNK         0.5000 
     73 O          -3.3326  -22.3846  -42.6380 O.2       12 UNK        -0.5000 
     74 N          -1.8173  -24.0416  -42.9756 N.am      13 UNK        -0.5000 
     75 CA         -2.7183  -25.1801  -42.7990 C.3       13 UNK         0.1400 
     76 CB         -1.8936  -26.4649  -42.6277 C.3       13 UNK        -0.1800 
     77 C          -3.7276  -25.3230  -43.9542 C.2       13 UNK         0.5000 
     78 O          -4.8951  -25.6226  -43.7007 O.2       13 UNK        -0.5000 
     79 N          -3.2694  -25.0950  -45.1942 N.am      14 UNK        -0.5000 
     80 CA         -4.1045  -25.0906  -46.3982 C.3       14 UNK         0.1400 
     81 CB         -3.2050  -25.1124  -47.6429 C.3       14 UNK        -0.1800 
     82 C          -5.0788  -23.8971  -46.4466 C.2       14 UNK         0.5000 
     83 O          -6.2086  -24.0552  -46.9113 O.2       14 UNK        -0.5000 
     84 N          -4.6301  -22.7342  -45.9544 N.am      15 UNK        -0.5000 
     85 CA         -5.3588  -21.4709  -45.8448 C.3       15 UNK         0.1400 
     86 CB         -6.4684  -21.5817  -44.7752 C.3       15 UNK        -0.1800 
     87 C          -5.8506  -20.9910  -47.2241 C.2       15 UNK         0.5000 
     88 O          -5.0268  -20.6485  -48.0707 O.2       15 UNK        -0.5000 
     89 N          -7.1688  -21.0109  -47.4567 N.am      16 UNK        -0.5000 
     90 CA         -7.7941  -20.6631  -48.7345 C.3       16 UNK         0.1400 
     91 CB         -9.3161  -20.5952  -48.5398 C.3       16 UNK        -0.1800 
     92 C          -7.4343  -21.6190  -49.8930 C.2       16 UNK         0.5000 
     93 O          -7.5730  -21.2278  -51.0521 O.2       16 UNK        -0.5000 
     94 N          -6.9755  -22.8390  -49.5740 N.am      17 UNK        -0.5000 
     95 CA         -6.5104  -23.8297  -50.5468 C.3       17 UNK         0.1400 
     96 CB         -6.7727  -25.2412  -49.9954 C.3       17 UNK        -0.1800 
     97 C          -5.0268  -23.6534  -50.9354 C.2       17 UNK         0.5000 
     98 O          -4.5526  -24.3876  -51.8042 O.2       17 UNK        -0.5000 
     99 N          -4.3095  -22.7111  -50.3028 N.am      18 UNK        -0.5000 
    100 CA        -2.9347  -22.3472  -50.6558 C.3       18 UNK         0.1400 
    101 CB        -2.3309  -21.5039  -49.5251 C.3       18 UNK        -0.1800 
    102 C         -2.8599  -21.5827  -51.9936 C.2       18 UNK         0.5000 
    103 O         -3.8852  -21.1422  -52.5196 O.2       18 UNK        -0.5000 
    104 N         -1.6341  -21.4361  -52.5158 N.am      19 UNK        -0.5000 
    105 CA        -1.3392  -20.7844  -53.7941 C.3       19 UNK         0.1400 
    106 CB         0.1596  -20.9237  -54.1018 C.3       19 UNK        -0.1800 
    107 C         -1.7765  -19.3090  -53.8556 C.2       19 UNK         0.5000 
    108 O         -2.3908  -18.9085  -54.8449 O.2       19 UNK        -0.5000 
    109 N         -1.4594  -18.5453  -52.7975 N.am      20 UNK        -0.5000 
    110 CA        -1.8043  -17.1397  -52.5216 C.3       20 UNK         0.1400 
    111 CB        -3.3243  -16.9751  -52.3418 C.3       20 UNK        -0.1800 
    112 C         -1.2482  -16.0923  -53.5133 C.2       20 UNK         0.5000 
    113 O         -0.7522  -15.0504  -53.0818 O.2       20 UNK        -0.5000 
    114 N         -1.3337  -16.3822  -54.8158 N.am      21 UNK        -0.5000 
    115 CA        -1.0607  -15.4910  -55.9449 C.3       21 UNK         0.1400 
    116 CB        -1.4532  -16.2166  -57.2415 C.3       21 UNK        -0.1800 
    117 C          0.3818  -14.9604  -56.0458 C.2       21 UNK         0.5000 
    118 O          0.5924  -13.9400  -56.7035 O.2       21 UNK        -0.5000 
    119 N          1.3443  -15.6409  -55.4083 N.am      22 UNK        -0.5000 
    120 CA         2.7453  -15.1948  -55.3280 C.3       22 UNK         0.1400 
    121 C          2.9830  -13.9672  -54.3929 C.2       22 UNK         0.5000 
    122 N          2.0292  -13.5719  -53.5551 N.am      22 UNK        -0.7600 
    123 O          4.0462  -13.3546  -54.4431 O.2       22 UNK        -0.5000 
    124 C124        3.7223  -16.3765  -55.0657 C.3       23 UNK        -0.0398 
    125 S125        3.8750  -16.9005  -53.3221 S.3       23 UNK        -0.2404 
    126 C126        2.7287  -18.3053  -53.2336 C.3       23 UNK        -0.0205 
    127 H127       -6.3138  -16.1495  -43.8266 H         1 UNK         0.0600 
    128 H128       -4.5997  -15.7705  -43.6346 H         1 UNK         0.0600 
    129 H129       -5.2528  -17.2686  -42.9622 H         1 UNK         0.0600 
    130 H130       -3.5470  -16.0109  -45.5748 H         1 UNK         0.3000 
    131 H131       -3.7926  -18.4636  -47.1919 H         1 UNK         0.0600 
    132 H132       -1.8372  -16.1172  -47.4463 H         1 UNK         0.0800 
    133 H133       -1.5562  -17.5257  -46.4625 H         1 UNK         0.0800 
    134 H134        0.5450  -16.7652  -48.1428 H         1 UNK         0.0800 
    135 H135       -0.1304  -16.2281  -49.6564 H         1 UNK         0.0800 
    136 H136        1.0209  -16.9267  -51.6595 H         1 UNK         0.1150 
    137 H137        3.6502  -20.3116  -51.6023 H         1 UNK         0.1150 
    138 H138        1.5174  -19.1757  -48.0600 H         1 UNK         0.1150 
    139 H139        3.6420  -20.6941  -48.0179 H         1 UNK         0.0800 
    140 H140        4.1396  -21.4195  -49.5216 H         1 UNK         0.0800 
    141 H141        0.3005  -21.0864  -47.8580 H         1 UNK         0.0800 
    142 H142        1.6216  -21.1901  -46.7105 H         1 UNK         0.0800 
    143 H143       -0.3285  -23.4294  -47.4093 H         1 UNK         0.0600 
    144 H144        2.1098  -23.5547  -45.8622 H         1 UNK         0.3000 
    145 H145        1.3639  -26.6919  -44.3395 H         1 UNK         0.0600 
    146 H146        2.2207  -27.2417  -46.6225 H         1 UNK         0.0600 
    147 H147        3.5167  -27.2623  -45.4371 H         1 UNK         0.0600 
    148 H148        3.3505  -25.8953  -46.5396 H         1 UNK         0.0600 
    149 H149        3.6457  -24.9591  -44.2566 H         1 UNK         0.3000 
    150 H150        2.5443  -22.8366  -41.6308 H         1 UNK         0.0600 
    151 H151        4.5428  -23.7120  -40.4649 H         1 UNK         0.0600 
    152 H152        3.2494  -24.8980  -40.4062 H         1 UNK         0.0600 
    153 H153        4.5870  -25.1191  -41.5281 H         1 UNK         0.0600 
    154 H154        5.0791  -23.0606  -42.8435 H         1 UNK         0.3000 
    155 H155        5.7516  -21.1866  -44.0353 H         1 UNK         0.0600 
    156 H156        4.5297  -22.4687  -46.5582 H         1 UNK         0.0600 
    157 H157        5.7287  -23.2064  -45.5053 H         1 UNK         0.0600 
    158 H158        6.1569  -21.7990  -46.4620 H         1 UNK         0.0600 
    159 H159        3.4779  -19.9395  -45.3177 H         1 UNK         0.3000 
    160 H160        5.0489  -16.8868  -45.5262 H         1 UNK         0.0600 
    161 H161        4.6596  -18.3699  -48.1815 H         1 UNK         0.0600 
    162 H162        6.0927  -17.4791  -47.6915 H         1 UNK         0.0600 
    163 H163        4.5854  -16.6223  -47.9676 H         1 UNK         0.0600 
    164 H164        2.6725  -18.0124  -46.7924 H         1 UNK         0.3000 
    165 H165        0.6989  -17.5963  -46.0285 H         1 UNK         0.0600 
    166 H166        0.8961  -19.4831  -44.4306 H         1 UNK         0.0600 
    167 H167        0.6405  -18.3855  -43.0789 H         1 UNK         0.0600 
    168 H168       -0.6437  -18.6555  -44.2586 H         1 UNK         0.0600 
    169 H169       -0.1490  -16.1455  -43.6909 H         1 UNK         0.3000 
    170 H170       -1.2278  -14.1676  -44.0630 H         1 UNK         0.0600 
    171 H171        1.2840  -12.4942  -44.6325 H         1 UNK         0.0600 
    172 H172        0.9586  -13.3892  -43.1531 H         1 UNK         0.0600 
    173 H173       -0.0513  -12.0172  -43.5836 H         1 UNK         0.0600 
    174 H174       -0.4820  -12.4257  -46.3377 H         1 UNK         0.3000 
    175 H175       -2.4001  -11.6580  -47.6417 H         1 UNK         0.0600 
    176 H176       -1.8309  -12.7496  -49.8076 H         1 UNK         0.0600 
    177 H177       -0.5897  -13.0809  -48.6129 H         1 UNK         0.0600 
    178 H178       -1.7617  -14.3231  -49.0250 H         1 UNK         0.0600 
    179 H179       -4.1319  -13.8789  -48.6005 H         1 UNK         0.3000 
    180 H180       -7.1041  -12.2551  -47.8631 H         1 UNK         0.0600 
    181 H181       -5.8699  -11.7410  -50.6201 H         1 UNK         0.0600 
    182 H182       -6.5754  -10.5242  -49.5630 H         1 UNK         0.0600 
    183 H183       -7.5951  -11.7752  -50.2543 H         1 UNK         0.0600 
    184 H184       -6.0552  -14.1040  -49.9350 H         1 UNK         0.3000 
    185 H185       -7.7831  -16.7887  -48.5444 H         1 UNK         0.0600 
    186 H186       -7.6041  -15.8574  -50.8497 H         1 UNK         0.0600 
    187 H187       -5.8480  -15.9262  -50.7741 H         1 UNK         0.0600 
    188 H188       -6.7907  -17.4068  -50.7188 H         1 UNK         0.0600 
    189 H189       -6.0504  -17.6923  -47.4909 H         1 UNK         0.3000 
    190 H190        0.7149  -22.2533  -44.1950 H         1 UNK         0.3000 
    191 H191       -1.6292  -20.7881  -43.5523 H         1 UNK         0.0600 
    192 H192        0.5821  -20.7392  -42.2779 H         1 UNK         0.0600 
    193 H193       -0.8332  -20.9227  -41.2525 H         1 UNK         0.0600 
    194 H194        0.1780  -22.3125  -41.6034 H         1 UNK         0.0600 
    195 H195       -0.8380  -24.2549  -43.1352 H         1 UNK         0.3000 
    196 H196       -3.2862  -25.0194  -41.8802 H         1 UNK         0.0600 
    197 H197       -1.2839  -26.6747  -43.5066 H         1 UNK         0.0600 
    198 H198       -2.5423  -27.3263  -42.4644 H         1 UNK         0.0600 
    199 H199       -1.2260  -26.3923  -41.7689 H         1 UNK         0.0600 
    200 H200       -2.2785  -24.9242  -45.3238 H         1 UNK         0.3000 
    201 H201       -4.7019  -26.0047  -46.3981 H         1 UNK         0.0600 
    202 H202       -3.7979  -25.1612  -48.5558 H         1 UNK         0.0600 
    203 H203       -2.5455  -25.9804  -47.6380 H         1 UNK         0.0600 
    204 H204       -2.5824  -24.2210  -47.7039 H         1 UNK         0.0600 
    205 H205       -3.6441  -22.6740  -45.7134 H         1 UNK         0.3000 
    206 H206       -4.6351  -20.7310  -45.5001 H         1 UNK         0.0600 
    207 H207       -7.2089  -22.3439  -45.0189 H         1 UNK         0.0600 
    208 H208       -6.0416  -21.8390  -43.8056 H         1 UNK         0.0600 
    209 H209       -6.9916  -20.6327  -44.6521 H         1 UNK         0.0600 
    210 H210       -7.7819  -21.3323  -46.7220 H         1 UNK         0.3000 
    211 H211       -7.4421  -19.6686  -49.0169 H         1 UNK         0.0600 
    212 H212       -9.8164  -20.3051  -49.4648 H         1 UNK         0.0600 
    213 H213       -9.5849  -19.8584  -47.7825 H         1 UNK         0.0600 
    214 H214       -9.7250  -21.5588  -48.2334 H         1 UNK         0.0600 
    215 H215       -6.8771  -23.0912  -48.5954 H         1 UNK         0.3000 
    216 H216       -7.0931  -23.7251  -51.4643 H         1 UNK         0.0600 
    217 H217       -6.1603  -25.4578  -49.1211 H         1 UNK         0.0600 
    218 H218       -7.8179  -25.3679  -49.7130 H         1 UNK         0.0600 
    219 H219       -6.5462  -26.0004  -50.7449 H         1 UNK         0.0600 
    220 H220       -4.7680  -22.1120  -49.6265 H         1 UNK         0.3000 
    221 H221       -2.3519  -23.2658  -50.7509 H         1 UNK         0.0600 
    222 H222       -2.8226  -20.5342  -49.4531 H         1 UNK         0.0600 
    223 H223       -2.4318  -21.9986  -48.5608 H         1 UNK         0.0600 
    224 H224       -1.2691  -21.3198  -49.6899 H         1 UNK         0.0600 
    225 H225       -0.8440  -21.8216  -52.0193 H         1 UNK         0.3000 
    226 H226       -1.8926  -21.3187  -54.5693 H         1 UNK         0.0600 
    227 H227        0.4390  -21.9699  -54.2277 H         1 UNK         0.0600 
    228 H228        0.4232  -20.4053  -55.0248 H         1 UNK         0.0600 
    229 H229        0.7741  -20.5100  -53.3027 H         1 UNK         0.0600 
    230 H230       -0.9444  -18.9984  -52.0557 H         1 UNK         0.3000 
    231 H231       -1.3545  -16.9107  -51.5576 H         1 UNK         0.0600 
    232 H232       -3.8714  -17.1989  -53.2579 H         1 UNK         0.0600 
    233 H233       -3.5731  -15.9537  -52.0507 H         1 UNK         0.0600 
    234 H234       -3.6992  -17.6328  -51.5569 H         1 UNK         0.0600 
    235 H235       -1.7526  -17.2823  -55.0459 H         1 UNK         0.3000 
    236 H236       -1.7106  -14.6211  -55.8319 H         1 UNK         0.0600 
    237 H237       -0.8605  -17.1204  -57.3890 H         1 UNK         0.0600 
    238 H238       -2.5047  -16.5041  -57.2299 H         1 UNK         0.0600 
    239 H239       -1.3022  -15.5774  -58.1125 H         1 UNK         0.0600 
    240 H240        1.0874  -16.4533  -54.8706 H         1 UNK         0.3000 
    241 H241        2.9990  -14.8297  -56.3254 H         1 UNK         0.0600 
    242 H242        2.1923  -12.7746  -52.9614 H         1 UNK         0.3800 
    243 H243        1.1488  -14.0688  -53.4961 H         1 UNK         0.3800 
    244 H244        4.7218  -16.0853  -55.3923 H         1 UNK         0.0800 
    245 H245        3.4586  -17.2345  -55.6856 H         1 UNK         0.0800 
    246 H246        3.1826  -19.1788  -53.7042 H         1 UNK         0.0800 
    247 H247        1.8184  -18.0848  -53.7918 H         1 UNK         0.0800 
@<TRIPOS>BOND
     1    1    2 1    
     2    1  127 1    
     3    1  128 1    
     4    1  129 1    
     5    2    3 2    
     6    2    4 am   BACKBONE|DICT|INTERRES
     7    4    5 1    
     8    4  130 1    
     9    5    6 1    
    10    5   65 1    
    11    5  131 1    
    12    6    7 1    
    13    6  132 1    
    14    6  133 1    
    15    7    8 1    
    16    8    9 1    
    17    8  134 1    
    18    8  135 1    
    19    9   10 ar   
    20    9   14 ar   
    21   10   11 ar   
    22   10  136 1    
    23   11   12 ar   
    24   11  126 1    
    25   12   13 ar   
    26   12  137 1    
    27   13   14 ar   
    28   13   15 1    
    29   14  138 1    
    30   15   16 1    
    31   15  139 1    
    32   15  140 1    
    33   16   17 1    
    34   17   18 1    
    35   17  141 1    
    36   17  142 1    
    37   18   19 1    
    38   18   67 1    
    39   18  143 1    
    40   19   20 am   BACKBONE|DICT|INTERRES
    41   19  144 1    
    42   20   21 2    
    43   20   22 1    
    44   22   23 1    
    45   22   24 1    
    46   22  145 1    
    47   23  146 1    
    48   23  147 1    
    49   23  148 1    
    50   24   25 am   BACKBONE|DICT|INTERRES
    51   24  149 1    
    52   25   26 2    
    53   25   27 1    
    54   27   28 1    
    55   27   29 1    
    56   27  150 1    
    57   28  151 1    
    58   28  152 1    
    59   28  153 1    
    60   29   30 am   BACKBONE|DICT|INTERRES
    61   29  154 1    
    62   30   31 2    
    63   30   32 1    
    64   32   33 1    
    65   32   34 1    
    66   32  155 1    
    67   33  156 1    
    68   33  157 1    
    69   33  158 1    
    70   34   35 am   BACKBONE|DICT|INTERRES
    71   34  159 1    
    72   35   36 2    
    73   35   37 1    
    74   37   38 1    
    75   37   39 1    
    76   37  160 1    
    77   38  161 1    
    78   38  162 1    
    79   38  163 1    
    80   39   40 am   BACKBONE|DICT|INTERRES
    81   39  164 1    
    82   40   41 2    
    83   40   42 1    
    84   42   43 1    
    85   42   44 1    
    86   42  165 1    
    87   43  166 1    
    88   43  167 1    
    89   43  168 1    
    90   44   45 am   BACKBONE|DICT|INTERRES
    91   44  169 1    
    92   45   46 2    
    93   45   47 1    
    94   47   48 1    
    95   47   49 1    
    96   47  170 1    
    97   48  171 1    
    98   48  172 1    
    99   48  173 1    
   100   49   50 am   BACKBONE|DICT|INTERRES
   101   49  174 1    
   102   50   51 2    
   103   50   52 1    
   104   52   53 1    
   105   52   54 1    
   106   52  175 1    
   107   53  176 1    
   108   53  177 1    
   109   53  178 1    
   110   54   55 am   BACKBONE|DICT|INTERRES
   111   54  179 1    
   112   55   56 2    
   113   55   57 1    
   114   57   58 1    
   115   57   59 1    
   116   57  180 1    
   117   58  181 1    
   118   58  182 1    
   119   58  183 1    
   120   59   60 am   BACKBONE|DICT|INTERRES
   121   59  184 1    
   122   60   61 2    
   123   60   62 1    
   124   62   63 1    
   125   62   64 1    
   126   62  185 1    
   127   63  186 1    
   128   63  187 1    
   129   63  188 1    
   130   64   65 am   BACKBONE|DICT|INTERRES
   131   64  189 1    
   132   65   66 2    
   133   67   68 2    
   134   67   69 am   BACKBONE|DICT|INTERRES
   135   69   70 1    
   136   69  190 1    
   137   70   71 1    
   138   70   72 1    
   139   70  191 1    
   140   71  192 1    
   141   71  193 1    
   142   71  194 1    
   143   72   73 2    
   144   72   74 am   BACKBONE|DICT|INTERRES
   145   74   75 1    
   146   74  195 1    
   147   75   76 1    
   148   75   77 1    
   149   75  196 1    
   150   76  197 1    
   151   76  198 1    
   152   76  199 1    
   153   77   78 2    
   154   77   79 am   BACKBONE|DICT|INTERRES
   155   79   80 1    
   156   79  200 1    
   157   80   81 1    
   158   80   82 1    
   159   80  201 1    
   160   81  202 1    
   161   81  203 1    
   162   81  204 1    
   163   82   83 2    
   164   82   84 am   BACKBONE|DICT|INTERRES
   165   84   85 1    
   166   84  205 1    
   167   85   86 1    
   168   85   87 1    
   169   85  206 1    
   170   86  207 1    
   171   86  208 1    
   172   86  209 1    
   173   87   88 2    
   174   87   89 am   BACKBONE|DICT|INTERRES
   175   89   90 1    
   176   89  210 1    
   177   90   91 1    
   178   90   92 1    
   179   90  211 1    
   180   91  212 1    
   181   91  213 1    
   182   91  214 1    
   183   92   93 2    
   184   92   94 am   BACKBONE|DICT|INTERRES
   185   94   95 1    
   186   94  215 1    
   187   95   96 1    
   188   95   97 1    
   189   95  216 1    
   190   96  217 1    
   191   96  218 1    
   192   96  219 1    
   193   97   98 2    
   194   97   99 am   BACKBONE|DICT|INTERRES
   195   99  100 1    
   196   99  220 1    
   197  100  101 1    
   198  100  102 1    
   199  100  221 1    
   200  101  222 1    
   201  101  223 1    
   202  101  224 1    
   203  102  103 2    
   204  102  104 am   BACKBONE|DICT|INTERRES
   205  104  105 1    
   206  104  225 1    
   207  105  106 1    
   208  105  107 1    
   209  105  226 1    
   210  106  227 1    
   211  106  228 1    
   212  106  229 1    
   213  107  108 2    
   214  107  109 am   BACKBONE|DICT|INTERRES
   215  109  110 1    
   216  109  230 1    
   217  110  111 1    
   218  110  112 1    
   219  110  231 1    
   220  111  232 1    
   221  111  233 1    
   222  111  234 1    
   223  112  113 2    
   224  112  114 am   BACKBONE|DICT|INTERRES
   225  114  115 1    
   226  114  235 1    
   227  115  116 1    
   228  115  117 1    
   229  115  236 1    
   230  116  237 1    
   231  116  238 1    
   232  116  239 1    
   233  117  118 2    
   234  117  119 am   BACKBONE|DICT|INTERRES
   235  119  120 1    
   236  119  240 1    
   237  120  121 1    
   238  120  124 1    
   239  120  241 1    
   240  121  122 am   BACKBONE|DICT|INTERRES
   241  121  123 2    
   242  122  242 1    
   243  122  243 1    
   244  124  125 1    
   245  124  244 1    
   246  124  245 1    
   247  125  126 1    
   248  126  246 1    
   249  126  247 1    
@<TRIPOS>SUBSTRUCTURE
     1 UNK         1 GROUP             0       ****    0 ROOT    
