@<TRIPOS>MOLECULE
3R540
247   249    1
SMALL
USER_CHARGES


@<TRIPOS>ATOM
      1 CA         -0.9083  -17.2526  -48.7759 C.3       0 UNK        -0.1800 
      2 C          -0.0976  -15.9777  -48.9682 C.2       0 UNK         0.5000 
      3 O          -0.6628  -14.8850  -48.9986 O.2       0 UNK        -0.5000 
      4 N           1.2295  -16.1082  -49.0869 N.am      1 UNK        -0.5000 
      5 CA          2.1802  -15.0118  -49.3225 C.3       1 UNK         0.1400 
      6 C6          3.5914  -15.5147  -49.7313 C.3       23 UNK        -0.0398 
      7 S7          4.1652  -17.0011  -48.8318 S.3       23 UNK        -0.2404 
      8 C8          4.5272  -18.1658  -50.1877 C.3       23 UNK        -0.0205 
      9 C9          3.2748  -18.8247  -50.7525 C.ar      23 UNK        -0.0193 
     10 C10         2.5489  -18.2019  -51.7710 C.ar      23 UNK        -0.1150 
     11 C11         1.4104  -18.8052  -52.3051 C.ar      23 UNK        -0.0193 
     12 C12         1.0213  -20.0632  -51.8396 C.ar      23 UNK        -0.1150 
     13 C13         1.7329  -20.7117  -50.8242 C.ar      23 UNK        -0.0193 
     14 C14         2.8606  -20.0761  -50.2818 C.ar      23 UNK        -0.1150 
     15 C15         1.2375  -22.0922  -50.3749 C.3       23 UNK        -0.0205 
     16 S16         2.1483  -22.9007  -49.0139 S.3       23 UNK        -0.2404 
     17 C17         1.6470  -21.8739  -47.5926 C.3       23 UNK        -0.0398 
     18 CA          0.7142  -22.5808  -46.5769 C.3       11 UNK         0.1400 
     19 N           0.7440  -21.8691  -45.2952 N.am      11 UNK        -0.5000 
     20 C           0.0596  -22.1823  -44.1835 C.2       10 UNK         0.5000 
     21 O          -0.5871  -23.2209  -44.0558 O.2       10 UNK        -0.5000 
     22 CA          0.0244  -21.1218  -43.0590 C.3       10 UNK         0.1400 
     23 CB          0.9730  -21.5158  -41.9182 C.3       10 UNK        -0.1800 
     24 N           0.3526  -19.7664  -43.5202 N.am      10 UNK        -0.5000 
     25 C          -0.3174  -19.0998  -44.4757 C.2       9 UNK         0.5000 
     26 O          -1.3665  -19.5114  -44.9689 O.2       9 UNK        -0.5000 
     27 CA          0.3228  -17.8289  -45.0673 C.3       9 UNK         0.1400 
     28 CB         -0.5060  -16.5777  -44.7554 C.3       9 UNK        -0.1800 
     29 N           1.7215  -17.6222  -44.6832 N.am      9 UNK        -0.5000 
     30 C           2.7402  -18.3998  -45.0767 C.2       8 UNK         0.5000 
     31 O           2.6061  -19.3248  -45.8765 O.2       8 UNK        -0.5000 
     32 CA          4.1191  -18.1540  -44.4289 C.3       8 UNK         0.1400 
     33 CB          5.0597  -17.4306  -45.4008 C.3       8 UNK        -0.1800 
     34 N           4.0923  -17.4172  -43.1596 N.am      8 UNK        -0.5000 
     35 C           3.4943  -17.8296  -42.0328 C.2       7 UNK         0.5000 
     36 O           2.7862  -18.8361  -41.9893 O.2       7 UNK        -0.5000 
     37 CA          3.7277  -16.9892  -40.7553 C.3       7 UNK         0.1400 
     38 CB          4.4181  -15.6347  -41.0187 C.3       7 UNK        -0.1800 
     39 N           2.4752  -16.7336  -40.0491 N.am      7 UNK        -0.5000 
     40 C           1.8304  -17.5808  -39.2348 C.2       6 UNK         0.5000 
     41 O           2.2728  -18.6815  -38.9027 O.2       6 UNK        -0.5000 
     42 CA          0.4704  -17.1109  -38.6680 C.3       6 UNK         0.1400 
     43 CB          0.5366  -16.9734  -37.1379 C.3       6 UNK        -0.1800 
     44 N           0.0003  -15.8385  -39.2294 N.am      6 UNK        -0.5000 
     45 C          -0.4864  -15.6801  -40.4664 C.2       5 UNK         0.5000 
     46 O          -0.6201  -16.6075  -41.2667 O.2       5 UNK        -0.5000 
     47 CA         -0.7979  -14.2282  -40.8838 C.3       5 UNK         0.1400 
     48 CB          0.5090  -13.4656  -41.1549 C.3       5 UNK        -0.1800 
     49 N          -1.6417  -14.1469  -42.0771 N.am      5 UNK        -0.5000 
     50 C          -2.9326  -14.5094  -42.1197 C.2       4 UNK         0.5000 
     51 O          -3.5572  -14.8939  -41.1291 O.2       4 UNK        -0.5000 
     52 CA         -3.6550  -14.4156  -43.4779 C.3       4 UNK         0.1400 
     53 CB         -5.0979  -13.8955  -43.3395 C.3       4 UNK        -0.1800 
     54 N          -2.9300  -13.5664  -44.4227 N.am      4 UNK        -0.5000 
     55 C          -2.7426  -13.8374  -45.7185 C.2       3 UNK         0.5000 
     56 O          -3.1611  -14.8529  -46.2748 O.2       3 UNK        -0.5000 
     57 CA         -1.9477  -12.8035  -46.5373 C.3       3 UNK         0.1400 
     58 CB         -2.2316  -11.3413  -46.1277 C.3       3 UNK        -0.1800 
     59 N          -0.5115  -13.0903  -46.5364 N.am      3 UNK        -0.5000 
     60 C           0.3335  -13.0904  -45.4939 C.2       2 UNK         0.5000 
     61 O          -0.0120  -12.8306  -44.3400 O.2       2 UNK        -0.5000 
     62 CA          1.8000  -13.4818  -45.7833 C.3       2 UNK         0.1400 
     63 CB          2.4804  -14.1415  -44.5705 C.3       2 UNK        -0.1800 
     64 N           1.9057  -14.3714  -46.9468 N.am      2 UNK        -0.5000 
     65 C           2.2542  -13.9741  -48.1788 C.2       1 UNK         0.5000 
     66 O           2.5928  -12.8206  -48.4471 O.2       1 UNK        -0.5000 
     67 C          -0.7203  -22.7546  -47.1389 C.2       11 UNK         0.5000 
     68 O          -0.9883  -23.7565  -47.7999 O.2       11 UNK        -0.5000 
     69 N          -1.6361  -21.8223  -46.8223 N.am      12 UNK        -0.5000 
     70 CA         -3.0482  -21.8605  -47.2164 C.3       12 UNK         0.1400 
     71 CB         -3.6705  -20.4675  -47.0322 C.3       12 UNK        -0.1800 
     72 C          -3.8886  -22.9420  -46.5101 C.2       12 UNK         0.5000 
     73 O          -5.0438  -23.1366  -46.8885 O.2       12 UNK        -0.5000 
     74 N          -3.3103  -23.6547  -45.5319 N.am      13 UNK        -0.5000 
     75 CA         -3.8913  -24.8679  -44.9508 C.3       13 UNK         0.1400 
     76 CB         -3.1427  -25.2144  -43.6550 C.3       13 UNK        -0.1800 
     77 C          -3.8730  -26.0689  -45.9231 C.2       13 UNK         0.5000 
     78 O          -4.5809  -27.0478  -45.6820 O.2       13 UNK        -0.5000 
     79 N          -3.0757  -25.9790  -46.9948 N.am      14 UNK        -0.5000 
     80 CA         -2.9669  -26.9588  -48.0671 C.3       14 UNK         0.1400 
     81 CB         -1.8357  -27.9529  -47.7338 C.3       14 UNK        -0.1800 
     82 C          -2.7630  -26.2128  -49.3994 C.2       14 UNK         0.5000 
     83 O          -3.1993  -25.0651  -49.5330 O.2       14 UNK        -0.5000 
     84 N          -2.1225  -26.8816  -50.3701 N.am      15 UNK        -0.5000 
     85 CA         -1.6897  -26.3523  -51.6700 C.3       15 UNK         0.1400 
     86 CB         -0.5251  -25.3582  -51.4670 C.3       15 UNK        -0.1800 
     87 C          -2.8380  -25.7537  -52.5100 C.2       15 UNK         0.5000 
     88 O          -2.6517  -24.7181  -53.1469 O.2       15 UNK        -0.5000 
     89 N          -4.0175  -26.3931  -52.4635 N.am      16 UNK        -0.5000 
     90 CA         -5.2773  -25.9474  -53.0772 C.3       16 UNK         0.1400 
     91 CB         -5.1904  -26.0056  -54.6173 C.3       16 UNK        -0.1800 
     92 C          -5.7262  -24.5668  -52.5489 C.2       16 UNK         0.5000 
     93 O          -6.0718  -23.6795  -53.3317 O.2       16 UNK        -0.5000 
     94 N          -5.6609  -24.4091  -51.2182 N.am      17 UNK        -0.5000 
     95 CA         -5.9064  -23.1809  -50.4556 C.3       17 UNK         0.1400 
     96 CB         -7.3905  -22.7663  -50.5377 C.3       17 UNK        -0.1800 
     97 C          -4.9381  -22.0552  -50.8670 C.2       17 UNK         0.5000 
     98 O          -5.3743  -20.9432  -51.1700 O.2       17 UNK        -0.5000 
     99 N          -3.6404  -22.3938  -50.9183 N.am      18 UNK        -0.5000 
    100 CA        -2.5388  -21.5624  -51.4176 C.3       18 UNK         0.1400 
    101 CB        -2.2551  -20.3799  -50.4595 C.3       18 UNK        -0.1800 
    102 C         -2.7564  -21.1109  -52.8759 C.2       18 UNK         0.5000 
    103 O         -2.6111  -19.9302  -53.1792 O.2       18 UNK        -0.5000 
    104 N         -3.1343  -22.0552  -53.7477 N.am      19 UNK        -0.5000 
    105 CA        -3.5081  -21.8596  -55.1522 C.3       19 UNK         0.1400 
    106 CB        -2.2634  -21.5086  -55.9939 C.3       19 UNK        -0.1800 
    107 C         -4.6569  -20.8402  -55.3124 C.2       19 UNK         0.5000 
    108 O         -4.5590  -19.9192  -56.1251 O.2       19 UNK        -0.5000 
    109 N         -5.7062  -21.0172  -54.4951 N.am      20 UNK        -0.5000 
    110 CA        -6.8598  -20.1304  -54.3213 C.3       20 UNK         0.1400 
    111 CB        -7.7545  -20.1487  -55.5779 C.3       20 UNK        -0.1800 
    112 C         -6.4367  -18.7082  -53.8948 C.2       20 UNK         0.5000 
    113 O         -6.6972  -17.7386  -54.6116 O.2       20 UNK        -0.5000 
    114 N         -5.7562  -18.6266  -52.7414 N.am      21 UNK        -0.5000 
    115 CA        -5.2164  -17.4160  -52.1074 C.3       21 UNK         0.1400 
    116 CB        -6.3623  -16.5525  -51.5418 C.3       21 UNK        -0.1800 
    117 C         -4.2594  -16.6240  -53.0259 C.2       21 UNK         0.5000 
    118 O         -4.3100  -15.3933  -53.0745 O.2       21 UNK        -0.5000 
    119 N         -3.4192  -17.3675  -53.7516 N.am      22 UNK        -0.5000 
    120 CA        -2.4289  -16.9124  -54.7360 C.3       22 UNK         0.1400 
    121 C         -3.0311  -16.2397  -56.0080 C.2       22 UNK         0.5000 
    122 N         -4.3238  -16.3716  -56.2840 N.am      22 UNK        -0.7600 
    123 O         -2.3115  -15.6092  -56.7784 O.2       22 UNK        -0.5000 
    124 C124       -1.2670  -16.0908  -54.1072 C.3       23 UNK        -0.0398 
    125 S125       -0.5193  -16.8701  -52.6314 S.3       23 UNK        -0.2404 
    126 C126        0.6045  -18.0895  -53.3792 C.3       23 UNK        -0.0205 
    127 H127       -0.2734  -18.1392  -48.7553 H         1 UNK         0.0600 
    128 H128       -1.6208  -17.3665  -49.5929 H         1 UNK         0.0600 
    129 H129       -1.4671  -17.2070  -47.8410 H         1 UNK         0.0600 
    130 H130        1.6471  -17.0287  -49.0622 H         1 UNK         0.3000 
    131 H131        1.7893  -14.4580  -50.1791 H         1 UNK         0.0600 
    132 H132        3.5956  -15.7187  -50.7994 H         1 UNK         0.0800 
    133 H133        4.3436  -14.7329  -49.6090 H         1 UNK         0.0800 
    134 H134        5.0753  -17.6534  -50.9798 H         1 UNK         0.0800 
    135 H135        5.2034  -18.9331  -49.8080 H         1 UNK         0.0800 
    136 H136        2.8614  -17.2435  -52.1563 H         1 UNK         0.1150 
    137 H137        0.1537  -20.5384  -52.2726 H         1 UNK         0.1150 
    138 H138        3.4361  -20.5505  -49.5010 H         1 UNK         0.1150 
    139 H139        0.1933  -22.0167  -50.0753 H         1 UNK         0.0800 
    140 H140        1.2636  -22.7613  -51.2360 H         1 UNK         0.0800 
    141 H141        1.2134  -20.9310  -47.9317 H         1 UNK         0.0800 
    142 H142        2.5800  -21.6042  -47.0969 H         1 UNK         0.0800 
    143 H143        1.1080  -23.5807  -46.3839 H         1 UNK         0.0600 
    144 H144        1.2615  -20.9984  -45.2966 H         1 UNK         0.3000 
    145 H145       -0.9940  -21.0990  -42.6663 H         1 UNK         0.0600 
    146 H146        0.7265  -22.5035  -41.5267 H         1 UNK         0.0600 
    147 H147        2.0111  -21.5428  -42.2516 H         1 UNK         0.0600 
    148 H148        0.9066  -20.8112  -41.0886 H         1 UNK         0.0600 
    149 H149        1.1992  -19.3586  -43.1352 H         1 UNK         0.3000 
    150 H150        0.2987  -17.9692  -46.1496 H         1 UNK         0.0600 
    151 H151       -0.3030  -15.8019  -45.4883 H         1 UNK         0.0600 
    152 H152       -0.2911  -16.1771  -43.7669 H         1 UNK         0.0600 
    153 H153       -1.5768  -16.7801  -44.8047 H         1 UNK         0.0600 
    154 H154        1.9040  -16.9268  -43.9761 H         1 UNK         0.3000 
    155 H155        4.5468  -19.1365  -44.2190 H         1 UNK         0.0600 
    156 H156        5.2139  -18.0280  -46.2995 H         1 UNK         0.0600 
    157 H157        6.0415  -17.2647  -44.9571 H         1 UNK         0.0600 
    158 H158        4.6597  -16.4640  -45.7088 H         1 UNK         0.0600 
    159 H159        4.6512  -16.5773  -43.1219 H         1 UNK         0.3000 
    160 H160        4.3807  -17.5766  -40.1070 H         1 UNK         0.0600 
    161 H161        5.4097  -15.7684  -41.4529 H         1 UNK         0.0600 
    162 H162        4.5569  -15.0825  -40.0888 H         1 UNK         0.0600 
    163 H163        3.8355  -15.0033  -41.6913 H         1 UNK         0.0600 
    164 H164        2.0167  -15.8612  -40.2587 H         1 UNK         0.3000 
    165 H165       -0.2615  -17.8849  -38.9088 H         1 UNK         0.0600 
    166 H166       -0.4345  -16.7020  -36.7233 H         1 UNK         0.0600 
    167 H167        0.8342  -17.9133  -36.6711 H         1 UNK         0.0600 
    168 H168        1.2574  -16.2135  -36.8335 H         1 UNK         0.0600 
    169 H169        0.0924  -15.0291  -38.6318 H         1 UNK         0.3000 
    170 H170       -1.3242  -13.7393  -40.0612 H         1 UNK         0.0600 
    171 H171        0.3109  -12.4404  -41.4687 H         1 UNK         0.0600 
    172 H172        1.1334  -13.4134  -40.2624 H         1 UNK         0.0600 
    173 H173        1.0946  -13.9464  -41.9382 H         1 UNK         0.0600 
    174 H174       -1.1798  -13.8535  -42.9306 H         1 UNK         0.3000 
    175 H175       -3.6959  -15.4383  -43.8582 H         1 UNK         0.0600 
    176 H176       -5.1210  -12.8871  -42.9250 H         1 UNK         0.0600 
    177 H177       -5.6022  -13.8723  -44.3057 H         1 UNK         0.0600 
    178 H178       -5.6892  -14.5364  -42.6844 H         1 UNK         0.0600 
    179 H179       -2.5141  -12.7261  -44.0438 H         1 UNK         0.3000 
    180 H180       -2.2763  -12.9160  -47.5718 H         1 UNK         0.0600 
    181 H181       -1.7585  -10.6466  -46.8216 H         1 UNK         0.0600 
    182 H182       -1.8679  -11.1037  -45.1281 H         1 UNK         0.0600 
    183 H183       -3.3024  -11.1341  -46.1447 H         1 UNK         0.0600 
    184 H184       -0.1543  -13.4098  -47.4286 H         1 UNK         0.3000 
    185 H185        2.3331  -12.5494  -45.9779 H         1 UNK         0.0600 
    186 H186        1.9013  -14.9773  -44.1843 H         1 UNK         0.0600 
    187 H187        3.4776  -14.5024  -44.8209 H         1 UNK         0.0600 
    188 H188        2.5957  -13.4236  -43.7579 H         1 UNK         0.0600 
    189 H189        1.6256  -15.3323  -46.8169 H         1 UNK         0.3000 
    190 H190       -1.3712  -21.0467  -46.2225 H         1 UNK         0.3000 
    191 H191       -3.0863  -22.1102  -48.2756 H         1 UNK         0.0600 
    192 H192       -3.7503  -20.2008  -45.9780 H         1 UNK         0.0600 
    193 H193       -4.6746  -20.4298  -47.4565 H         1 UNK         0.0600 
    194 H194       -3.0805  -19.6973  -47.5293 H         1 UNK         0.0600 
    195 H195       -2.3632  -23.4301  -45.2493 H         1 UNK         0.3000 
    196 H196       -4.9337  -24.6639  -44.6975 H         1 UNK         0.0600 
    197 H197       -3.6038  -26.0662  -43.1535 H         1 UNK         0.0600 
    198 H198       -3.1544  -24.3790  -42.9547 H         1 UNK         0.0600 
    199 H199       -2.1018  -25.4747  -43.8507 H         1 UNK         0.0600 
    200 H200       -2.5608  -25.1201  -47.1598 H         1 UNK         0.3000 
    201 H201       -3.9064  -27.5074  -48.1576 H         1 UNK         0.0600 
    202 H202       -1.9840  -28.4007  -46.7509 H         1 UNK         0.0600 
    203 H203       -0.8610  -27.4627  -47.7301 H         1 UNK         0.0600 
    204 H204       -1.7969  -28.7737  -48.4503 H         1 UNK         0.0600 
    205 H205       -1.8303  -27.8284  -50.1726 H         1 UNK         0.3000 
    206 H206       -1.3070  -27.1988  -52.2417 H         1 UNK         0.0600 
    207 H207       -0.1223  -25.0175  -52.4215 H         1 UNK         0.0600 
    208 H208       -0.8402  -24.4764  -50.9084 H         1 UNK         0.0600 
    209 H209        0.2953  -25.8199  -50.9176 H         1 UNK         0.0600 
    210 H210       -4.0728  -27.2329  -51.9046 H         1 UNK         0.3000 
    211 H211       -6.0445  -26.6574  -52.7650 H         1 UNK         0.0600 
    212 H212       -4.4724  -25.2877  -55.0142 H         1 UNK         0.0600 
    213 H213       -6.1570  -25.7829  -55.0705 H         1 UNK         0.0600 
    214 H214       -4.8943  -26.9978  -54.9574 H         1 UNK         0.0600 
    215 H215       -5.2834  -25.1740  -50.6759 H         1 UNK         0.3000 
    216 H216       -5.6849  -23.4154  -49.4148 H         1 UNK         0.0600 
    217 H217       -7.5923  -21.9173  -49.8836 H         1 UNK         0.0600 
    218 H218       -8.0442  -23.5800  -50.2239 H         1 UNK         0.0600 
    219 H219       -7.6786  -22.4748  -51.5480 H         1 UNK         0.0600 
    220 H220       -3.3933  -23.3392  -50.6404 H         1 UNK         0.3000 
    221 H221       -1.6556  -22.1995  -51.4406 H         1 UNK         0.0600 
    222 H222       -3.1561  -19.8143  -50.2239 H         1 UNK         0.0600 
    223 H223       -1.8169  -20.7241  -49.5259 H         1 UNK         0.0600 
    224 H224       -1.5446  -19.6710  -50.8830 H         1 UNK         0.0600 
    225 H225       -3.1639  -23.0208  -53.4237 H         1 UNK         0.3000 
    226 H226       -3.8915  -22.8175  -55.5060 H         1 UNK         0.0600 
    227 H227       -1.4827  -22.2593  -55.8722 H         1 UNK         0.0600 
    228 H228       -2.5099  -21.4653  -57.0553 H         1 UNK         0.0600 
    229 H229       -1.8444  -20.5410  -55.7155 H         1 UNK         0.0600 
    230 H230       -5.6962  -21.8349  -53.8909 H         1 UNK         0.3000 
    231 H231       -7.4424  -20.5428  -53.4961 H         1 UNK         0.0600 
    232 H232       -7.2436  -19.7383  -56.4494 H         1 UNK         0.0600 
    233 H233       -8.0692  -21.1635  -55.8211 H         1 UNK         0.0600 
    234 H234       -8.6571  -19.5572  -55.4203 H         1 UNK         0.0600 
    235 H235       -5.5750  -19.4931  -52.2346 H         1 UNK         0.3000 
    236 H236       -4.6128  -17.7587  -51.2656 H         1 UNK         0.0600 
    237 H237       -6.9894  -16.1442  -52.3350 H         1 UNK         0.0600 
    238 H238       -6.9997  -17.1327  -50.8746 H         1 UNK         0.0600 
    239 H239       -5.9718  -15.7122  -50.9665 H         1 UNK         0.0600 
    240 H240       -3.4001  -18.3723  -53.5862 H         1 UNK         0.3000 
    241 H241       -1.9877  -17.8344  -55.1148 H         1 UNK         0.0600 
    242 H242       -4.7014  -15.9444  -57.1144 H         1 UNK         0.3800 
    243 H243       -4.9310  -16.9013  -55.6705 H         1 UNK         0.3800 
    244 H244       -0.4789  -15.9170  -54.8414 H         1 UNK         0.0800 
    245 H245       -1.6270  -15.1037  -53.8140 H         1 UNK         0.0800 
    246 H246        1.2780  -17.5910  -54.0777 H         1 UNK         0.0800 
    247 H247        0.0234  -18.8078  -53.9599 H         1 UNK         0.0800 
@<TRIPOS>BOND
     1    1    2 1    
     2    1  127 1    
     3    1  128 1    
     4    1  129 1    
     5    2    3 2    
     6    2    4 am   BACKBONE|DICT|INTERRES
     7    4    5 1    
     8    4  130 1    
     9    5    6 1    
    10    5   65 1    
    11    5  131 1    
    12    6    7 1    
    13    6  132 1    
    14    6  133 1    
    15    7    8 1    
    16    8    9 1    
    17    8  134 1    
    18    8  135 1    
    19    9   10 ar   
    20    9   14 ar   
    21   10   11 ar   
    22   10  136 1    
    23   11   12 ar   
    24   11  126 1    
    25   12   13 ar   
    26   12  137 1    
    27   13   14 ar   
    28   13   15 1    
    29   14  138 1    
    30   15   16 1    
    31   15  139 1    
    32   15  140 1    
    33   16   17 1    
    34   17   18 1    
    35   17  141 1    
    36   17  142 1    
    37   18   19 1    
    38   18   67 1    
    39   18  143 1    
    40   19   20 am   BACKBONE|DICT|INTERRES
    41   19  144 1    
    42   20   21 2    
    43   20   22 1    
    44   22   23 1    
    45   22   24 1    
    46   22  145 1    
    47   23  146 1    
    48   23  147 1    
    49   23  148 1    
    50   24   25 am   BACKBONE|DICT|INTERRES
    51   24  149 1    
    52   25   26 2    
    53   25   27 1    
    54   27   28 1    
    55   27   29 1    
    56   27  150 1    
    57   28  151 1    
    58   28  152 1    
    59   28  153 1    
    60   29   30 am   BACKBONE|DICT|INTERRES
    61   29  154 1    
    62   30   31 2    
    63   30   32 1    
    64   32   33 1    
    65   32   34 1    
    66   32  155 1    
    67   33  156 1    
    68   33  157 1    
    69   33  158 1    
    70   34   35 am   BACKBONE|DICT|INTERRES
    71   34  159 1    
    72   35   36 2    
    73   35   37 1    
    74   37   38 1    
    75   37   39 1    
    76   37  160 1    
    77   38  161 1    
    78   38  162 1    
    79   38  163 1    
    80   39   40 am   BACKBONE|DICT|INTERRES
    81   39  164 1    
    82   40   41 2    
    83   40   42 1    
    84   42   43 1    
    85   42   44 1    
    86   42  165 1    
    87   43  166 1    
    88   43  167 1    
    89   43  168 1    
    90   44   45 am   BACKBONE|DICT|INTERRES
    91   44  169 1    
    92   45   46 2    
    93   45   47 1    
    94   47   48 1    
    95   47   49 1    
    96   47  170 1    
    97   48  171 1    
    98   48  172 1    
    99   48  173 1    
   100   49   50 am   BACKBONE|DICT|INTERRES
   101   49  174 1    
   102   50   51 2    
   103   50   52 1    
   104   52   53 1    
   105   52   54 1    
   106   52  175 1    
   107   53  176 1    
   108   53  177 1    
   109   53  178 1    
   110   54   55 am   BACKBONE|DICT|INTERRES
   111   54  179 1    
   112   55   56 2    
   113   55   57 1    
   114   57   58 1    
   115   57   59 1    
   116   57  180 1    
   117   58  181 1    
   118   58  182 1    
   119   58  183 1    
   120   59   60 am   BACKBONE|DICT|INTERRES
   121   59  184 1    
   122   60   61 2    
   123   60   62 1    
   124   62   63 1    
   125   62   64 1    
   126   62  185 1    
   127   63  186 1    
   128   63  187 1    
   129   63  188 1    
   130   64   65 am   BACKBONE|DICT|INTERRES
   131   64  189 1    
   132   65   66 2    
   133   67   68 2    
   134   67   69 am   BACKBONE|DICT|INTERRES
   135   69   70 1    
   136   69  190 1    
   137   70   71 1    
   138   70   72 1    
   139   70  191 1    
   140   71  192 1    
   141   71  193 1    
   142   71  194 1    
   143   72   73 2    
   144   72   74 am   BACKBONE|DICT|INTERRES
   145   74   75 1    
   146   74  195 1    
   147   75   76 1    
   148   75   77 1    
   149   75  196 1    
   150   76  197 1    
   151   76  198 1    
   152   76  199 1    
   153   77   78 2    
   154   77   79 am   BACKBONE|DICT|INTERRES
   155   79   80 1    
   156   79  200 1    
   157   80   81 1    
   158   80   82 1    
   159   80  201 1    
   160   81  202 1    
   161   81  203 1    
   162   81  204 1    
   163   82   83 2    
   164   82   84 am   BACKBONE|DICT|INTERRES
   165   84   85 1    
   166   84  205 1    
   167   85   86 1    
   168   85   87 1    
   169   85  206 1    
   170   86  207 1    
   171   86  208 1    
   172   86  209 1    
   173   87   88 2    
   174   87   89 am   BACKBONE|DICT|INTERRES
   175   89   90 1    
   176   89  210 1    
   177   90   91 1    
   178   90   92 1    
   179   90  211 1    
   180   91  212 1    
   181   91  213 1    
   182   91  214 1    
   183   92   93 2    
   184   92   94 am   BACKBONE|DICT|INTERRES
   185   94   95 1    
   186   94  215 1    
   187   95   96 1    
   188   95   97 1    
   189   95  216 1    
   190   96  217 1    
   191   96  218 1    
   192   96  219 1    
   193   97   98 2    
   194   97   99 am   BACKBONE|DICT|INTERRES
   195   99  100 1    
   196   99  220 1    
   197  100  101 1    
   198  100  102 1    
   199  100  221 1    
   200  101  222 1    
   201  101  223 1    
   202  101  224 1    
   203  102  103 2    
   204  102  104 am   BACKBONE|DICT|INTERRES
   205  104  105 1    
   206  104  225 1    
   207  105  106 1    
   208  105  107 1    
   209  105  226 1    
   210  106  227 1    
   211  106  228 1    
   212  106  229 1    
   213  107  108 2    
   214  107  109 am   BACKBONE|DICT|INTERRES
   215  109  110 1    
   216  109  230 1    
   217  110  111 1    
   218  110  112 1    
   219  110  231 1    
   220  111  232 1    
   221  111  233 1    
   222  111  234 1    
   223  112  113 2    
   224  112  114 am   BACKBONE|DICT|INTERRES
   225  114  115 1    
   226  114  235 1    
   227  115  116 1    
   228  115  117 1    
   229  115  236 1    
   230  116  237 1    
   231  116  238 1    
   232  116  239 1    
   233  117  118 2    
   234  117  119 am   BACKBONE|DICT|INTERRES
   235  119  120 1    
   236  119  240 1    
   237  120  121 1    
   238  120  124 1    
   239  120  241 1    
   240  121  122 am   BACKBONE|DICT|INTERRES
   241  121  123 2    
   242  122  242 1    
   243  122  243 1    
   244  124  125 1    
   245  124  244 1    
   246  124  245 1    
   247  125  126 1    
   248  126  246 1    
   249  126  247 1    
@<TRIPOS>SUBSTRUCTURE
     1 UNK         1 GROUP             0       ****    0 ROOT    
