@<TRIPOS>MOLECULE
3R540
247   249    1
SMALL
USER_CHARGES


@<TRIPOS>ATOM
      1 CA          8.5498  -13.1180  -49.2293 C.3       0 UNK        -0.1800 
      2 C           7.3021  -12.8218  -48.4092 C.2       0 UNK         0.5000 
      3 O           7.1417  -11.7002  -47.9278 O.2       0 UNK        -0.5000 
      4 N           6.4279  -13.8259  -48.2489 N.am      1 UNK        -0.5000 
      5 CA          5.1527  -13.7680  -47.5156 C.3       1 UNK         0.1400 
      6 C6          4.0999  -12.8210  -48.1603 C.3       23 UNK        -0.0398 
      7 S7          3.7878  -13.1675  -49.9327 S.3       23 UNK        -0.2404 
      8 C8          2.1608  -13.9935  -49.9318 C.3       23 UNK        -0.0205 
      9 C9          2.2721  -15.4750  -50.2685 C.ar      23 UNK        -0.0193 
     10 C10         1.8435  -15.9561  -51.5112 C.ar      23 UNK        -0.1150 
     11 C11         1.9177  -17.3235  -51.8167 C.ar      23 UNK        -0.0193 
     12 C12         2.4501  -18.1989  -50.8659 C.ar      23 UNK        -0.1150 
     13 C13         2.8821  -17.7319  -49.6226 C.ar      23 UNK        -0.0193 
     14 C14         2.7862  -16.3717  -49.3302 C.ar      23 UNK        -0.1150 
     15 C15         3.4501  -18.6917  -48.5900 C.3       23 UNK        -0.0205 
     16 S16         2.1532  -19.2941  -47.4677 S.3       23 UNK        -0.2404 
     17 C17         1.2215  -20.4013  -48.5816 C.3       23 UNK        -0.0398 
     18 CA          0.4808  -21.5265  -47.8250 C.3       11 UNK         0.1400 
     19 N          -0.3947  -21.0044  -46.7750 N.am      11 UNK        -0.5000 
     20 C          -1.0214  -21.7421  -45.8505 C.2       10 UNK         0.5000 
     21 O          -0.9173  -22.9642  -45.7602 O.2       10 UNK        -0.5000 
     22 CA         -1.9530  -20.9823  -44.8914 C.3       10 UNK         0.1400 
     23 CB         -1.1907  -20.5649  -43.6258 C.3       10 UNK        -0.1800 
     24 N          -2.5699  -19.8103  -45.5222 N.am      10 UNK        -0.5000 
     25 C          -3.4728  -19.8932  -46.5129 C.2       9 UNK         0.5000 
     26 O          -3.8616  -20.9598  -46.9912 O.2       9 UNK        -0.5000 
     27 CA         -3.9890  -18.5698  -47.1021 C.3       9 UNK         0.1400 
     28 CB         -4.8095  -17.7817  -46.0697 C.3       9 UNK        -0.1800 
     29 N          -2.9103  -17.7255  -47.6111 N.am      9 UNK        -0.5000 
     30 C          -2.0933  -18.0255  -48.6277 C.2       8 UNK         0.5000 
     31 O          -2.1541  -19.0761  -49.2647 O.2       8 UNK        -0.5000 
     32 CA         -0.9873  -17.0077  -48.9618 C.3       8 UNK         0.1400 
     33 CB         -1.5383  -15.7736  -49.7001 C.3       8 UNK        -0.1800 
     34 N          -0.1905  -16.6329  -47.7902 N.am      8 UNK        -0.5000 
     35 C          -0.5602  -15.8877  -46.7411 C.2       7 UNK         0.5000 
     36 O          -1.6549  -15.3291  -46.6349 O.2       7 UNK        -0.5000 
     37 CA          0.4802  -15.7720  -45.6169 C.3       7 UNK         0.1400 
     38 CB          1.4673  -14.6371  -45.9205 C.3       7 UNK        -0.1800 
     39 N          -0.1241  -15.5632  -44.3000 N.am      7 UNK        -0.5000 
     40 C          -0.9482  -16.4335  -43.6954 C.2       6 UNK         0.5000 
     41 O          -1.3150  -17.4892  -44.2145 O.2       6 UNK        -0.5000 
     42 CA         -1.4395  -16.0963  -42.2747 C.3       6 UNK         0.1400 
     43 CB         -0.7926  -17.0334  -41.2426 C.3       6 UNK        -0.1800 
     44 N          -1.1630  -14.7119  -41.8895 N.am      6 UNK        -0.5000 
     45 C          -2.0124  -13.6930  -42.0809 C.2       5 UNK         0.5000 
     46 O          -3.1358  -13.8232  -42.5684 O.2       5 UNK        -0.5000 
     47 CA         -1.5339  -12.2867  -41.6651 C.3       5 UNK         0.1400 
     48 CB         -2.0599  -11.9325  -40.2657 C.3       5 UNK        -0.1800 
     49 N          -0.0785  -12.1204  -41.6804 N.am      5 UNK        -0.5000 
     50 C           0.6929  -12.2048  -42.7720 C.2       4 UNK         0.5000 
     51 O           0.2507  -12.4443  -43.8944 O.2       4 UNK        -0.5000 
     52 CA          2.2114  -12.0186  -42.5902 C.3       4 UNK         0.1400 
     53 CB          2.6111  -11.3803  -41.2410 C.3       4 UNK        -0.1800 
     54 N           2.9488  -13.2674  -42.7959 N.am      4 UNK        -0.5000 
     55 C           2.8010  -14.4265  -42.1324 C.2       3 UNK         0.5000 
     56 O           1.9133  -14.6254  -41.3010 O.2       3 UNK        -0.5000 
     57 CA          3.8134  -15.5578  -42.4322 C.3       3 UNK         0.1400 
     58 CB          3.1259  -16.7882  -43.0449 C.3       3 UNK        -0.1800 
     59 N           4.9186  -15.1559  -43.3069 N.am      3 UNK        -0.5000 
     60 C           5.9274  -14.3451  -42.9594 C.2       2 UNK         0.5000 
     61 O           6.0866  -13.9097  -41.8187 O.2       2 UNK        -0.5000 
     62 CA          6.9115  -13.9253  -44.0715 C.3       2 UNK         0.1400 
     63 CB          8.2444  -14.6744  -43.9188 C.3       2 UNK        -0.1800 
     64 N           6.4253  -14.1093  -45.4450 N.am      2 UNK        -0.5000 
     65 C           5.3646  -13.5046  -46.0034 C.2       1 UNK         0.5000 
     66 O           4.5842  -12.7882  -45.3729 O.2       1 UNK        -0.5000 
     67 C          -0.2987  -22.4193  -48.8108 C.2       11 UNK         0.5000 
     68 O           0.1743  -23.5005  -49.1603 O.2       11 UNK        -0.5000 
     69 N          -1.4956  -21.9667  -49.2105 N.am      12 UNK        -0.5000 
     70 CA         -2.4223  -22.7268  -50.0441 C.3       12 UNK         0.1400 
     71 CB         -3.4977  -21.7827  -50.5936 C.3       12 UNK        -0.1800 
     72 C          -3.0505  -23.9063  -49.2820 C.2       12 UNK         0.5000 
     73 O          -3.1765  -24.9897  -49.8495 O.2       12 UNK        -0.5000 
     74 N          -3.3920  -23.6993  -48.0008 N.am      13 UNK        -0.5000 
     75 CA         -3.9459  -24.7299  -47.1173 C.3       13 UNK         0.1400 
     76 CB         -4.4241  -24.0933  -45.8058 C.3       13 UNK        -0.1800 
     77 C          -2.9718  -25.8886  -46.8386 C.2       13 UNK         0.5000 
     78 O          -3.4128  -27.0322  -46.7277 O.2       13 UNK        -0.5000 
     79 N          -1.6643  -25.5967  -46.7973 N.am      14 UNK        -0.5000 
     80 CA         -0.5880  -26.5892  -46.7150 C.3       14 UNK         0.1400 
     81 CB          0.7450  -25.8713  -46.4564 C.3       14 UNK        -0.1800 
     82 C          -0.4889  -27.4943  -47.9627 C.2       14 UNK         0.5000 
     83 O           0.0420  -28.6007  -47.8643 O.2       14 UNK        -0.5000 
     84 N          -1.0309  -27.0288  -49.0961 N.am      15 UNK        -0.5000 
     85 CA         -1.1879  -27.7751  -50.3444 C.3       15 UNK         0.1400 
     86 CB         -0.7525  -26.8713  -51.5117 C.3       15 UNK        -0.1800 
     87 C          -2.6374  -28.2806  -50.5234 C.2       15 UNK         0.5000 
     88 O          -3.0302  -28.6066  -51.6439 O.2       15 UNK        -0.5000 
     89 N          -3.4186  -28.3099  -49.4317 N.am      16 UNK        -0.5000 
     90 CA         -4.8242  -28.7152  -49.2881 C.3       16 UNK         0.1400 
     91 CB         -5.0498  -30.1628  -49.7641 C.3       16 UNK        -0.1800 
     92 C          -5.8494  -27.7538  -49.9218 C.2       16 UNK         0.5000 
     93 O          -6.9480  -27.6081  -49.3832 O.2       16 UNK        -0.5000 
     94 N          -5.4898  -27.0997  -51.0306 N.am      17 UNK        -0.5000 
     95 CA         -6.3126  -26.1647  -51.7978 C.3       17 UNK         0.1400 
     96 CB         -5.7397  -26.0753  -53.2240 C.3       17 UNK        -0.1800 
     97 C          -6.4331  -24.7798  -51.1258 C.2       17 UNK         0.5000 
     98 O          -6.1315  -23.7647  -51.7530 O.2       17 UNK        -0.5000 
     99 N          -6.8924  -24.7514  -49.8668 N.am      18 UNK        -0.5000 
    100 CA        -7.0201  -23.5628  -49.0116 C.3       18 UNK         0.1400 
    101 CB        -7.6410  -23.9806  -47.6692 C.3       18 UNK        -0.1800 
    102 C         -7.8325  -22.4061  -49.6257 C.2       18 UNK         0.5000 
    103 O         -7.5405  -21.2424  -49.3508 O.2       18 UNK        -0.5000 
    104 N         -8.8183  -22.7511  -50.4637 N.am      19 UNK        -0.5000 
    105 CA        -9.6719  -21.8155  -51.1930 C.3       19 UNK         0.1400 
    106 CB       -10.8681  -22.5901  -51.7683 C.3       19 UNK        -0.1800 
    107 C         -8.9475  -21.0378  -52.3111 C.2       19 UNK         0.5000 
    108 O         -9.4632  -20.0030  -52.7364 O.2       19 UNK        -0.5000 
    109 N         -7.7922  -21.5341  -52.7841 N.am      20 UNK        -0.5000 
    110 CA        -7.0025  -20.8893  -53.8356 C.3       20 UNK         0.1400 
    111 CB        -5.9668  -21.8755  -54.3981 C.3       20 UNK        -0.1800 
    112 C         -6.3175  -19.6043  -53.3412 C.2       20 UNK         0.5000 
    113 O         -6.3325  -18.6016  -54.0551 O.2       20 UNK        -0.5000 
    114 N         -5.7407  -19.6658  -52.1298 N.am      21 UNK        -0.5000 
    115 CA        -5.1185  -18.5694  -51.3729 C.3       21 UNK         0.1400 
    116 CB        -6.2172  -17.7184  -50.7063 C.3       21 UNK        -0.1800 
    117 C         -4.1101  -17.7182  -52.1812 C.2       21 UNK         0.5000 
    118 O         -4.1077  -16.4924  -52.0626 O.2       21 UNK        -0.5000 
    119 N         -3.2944  -18.3827  -53.0140 N.am      22 UNK        -0.5000 
    120 CA        -2.3395  -17.7704  -53.9596 C.3       22 UNK         0.1400 
    121 C         -3.0011  -16.9825  -55.1407 C.2       22 UNK         0.5000 
    122 N         -4.2998  -17.1026  -55.3877 N.am      22 UNK        -0.7600 
    123 O         -2.3283  -16.2688  -55.8788 O.2       22 UNK        -0.5000 
    124 C124       -1.2185  -16.9710  -53.2288 C.3       23 UNK        -0.0398 
    125 S125        0.3522  -16.8683  -54.1582 S.3       23 UNK        -0.2404 
    126 C126        1.4744  -17.9071  -53.1609 C.3       23 UNK        -0.0205 
    127 H127        9.4426  -12.9619  -48.6238 H         1 UNK         0.0600 
    128 H128        8.5992  -12.4513  -50.0902 H         1 UNK         0.0600 
    129 H129        8.5616  -14.1453  -49.5943 H         1 UNK         0.0600 
    130 H130        6.6274  -14.7133  -48.6890 H         1 UNK         0.3000 
    131 H131        4.7497  -14.7780  -47.5632 H         1 UNK         0.0600 
    132 H132        4.4340  -11.7854  -48.0827 H         1 UNK         0.0800 
    133 H133        3.1584  -12.8602  -47.6127 H         1 UNK         0.0800 
    134 H134        1.6542  -13.8711  -48.9749 H         1 UNK         0.0800 
    135 H135        1.5264  -13.4920  -50.6641 H         1 UNK         0.0800 
    136 H136        1.4529  -15.2570  -52.2359 H         1 UNK         0.1150 
    137 H137        2.5290  -19.2521  -51.0961 H         1 UNK         0.1150 
    138 H138        3.1164  -16.0154  -48.3690 H         1 UNK         0.1150 
    139 H139        3.9455  -19.5333  -49.0767 H         1 UNK         0.0800 
    140 H140        4.2191  -18.1887  -48.0016 H         1 UNK         0.0800 
    141 H141        1.9154  -20.8424  -49.2991 H         1 UNK         0.0800 
    142 H142        0.5243  -19.7958  -49.1620 H         1 UNK         0.0800 
    143 H143        1.2303  -22.1556  -47.3395 H         1 UNK         0.0600 
    144 H144       -0.5374  -20.0064  -46.7618 H         1 UNK         0.3000 
    145 H145       -2.7535  -21.6592  -44.5900 H         1 UNK         0.0600 
    146 H146       -1.8382  -20.0260  -42.9342 H         1 UNK         0.0600 
    147 H147       -0.8066  -21.4388  -43.0982 H         1 UNK         0.0600 
    148 H148       -0.3385  -19.9257  -43.8595 H         1 UNK         0.0600 
    149 H149       -2.2706  -18.9015  -45.1778 H         1 UNK         0.3000 
    150 H150       -4.6450  -18.8154  -47.9399 H         1 UNK         0.0600 
    151 H151       -5.6154  -18.3929  -45.6613 H         1 UNK         0.0600 
    152 H152       -5.2669  -16.9017  -46.5222 H         1 UNK         0.0600 
    153 H153       -4.1941  -17.4446  -45.2342 H         1 UNK         0.0600 
    154 H154       -2.7441  -16.8466  -47.1284 H         1 UNK         0.3000 
    155 H155       -0.2958  -17.5054  -49.6428 H         1 UNK         0.0600 
    156 H156       -2.2902  -15.2392  -49.1201 H         1 UNK         0.0600 
    157 H157       -2.0126  -16.0644  -50.6328 H         1 UNK         0.0600 
    158 H158       -0.7424  -15.0718  -49.9471 H         1 UNK         0.0600 
    159 H159        0.7259  -17.0591  -47.7632 H         1 UNK         0.3000 
    160 H160        1.0326  -16.7126  -45.5723 H         1 UNK         0.0600 
    161 H161        0.9548  -13.6878  -46.0781 H         1 UNK         0.0600 
    162 H162        2.0340  -14.8506  -46.8227 H         1 UNK         0.0600 
    163 H163        2.1883  -14.5015  -45.1179 H         1 UNK         0.0600 
    164 H164        0.0445  -14.6669  -43.8628 H         1 UNK         0.3000 
    165 H165       -2.5160  -16.2784  -42.2574 H         1 UNK         0.0600 
    166 H166       -1.2087  -16.8681  -40.2488 H         1 UNK         0.0600 
    167 H167       -0.9663  -18.0799  -41.4960 H         1 UNK         0.0600 
    168 H168        0.2850  -16.8845  -41.1805 H         1 UNK         0.0600 
    169 H169       -0.2450  -14.5238  -41.5013 H         1 UNK         0.3000 
    170 H170       -1.9565  -11.5762  -42.3785 H         1 UNK         0.0600 
    171 H171       -3.1467  -12.0167  -40.2234 H         1 UNK         0.0600 
    172 H172       -1.6495  -12.5952  -39.5027 H         1 UNK         0.0600 
    173 H173       -1.8045  -10.9079  -39.9949 H         1 UNK         0.0600 
    174 H174        0.3672  -11.9520  -40.7903 H         1 UNK         0.3000 
    175 H175        2.5308  -11.3399  -43.3825 H         1 UNK         0.0600 
    176 H176        2.3752  -12.0218  -40.3913 H         1 UNK         0.0600 
    177 H177        3.6827  -11.1818  -41.2113 H         1 UNK         0.0600 
    178 H178        2.1054  -10.4255  -41.0912 H         1 UNK         0.0600 
    179 H179        3.6608  -13.2229  -43.5165 H         1 UNK         0.3000 
    180 H180        4.2332  -15.8572  -41.4697 H         1 UNK         0.0600 
    181 H181        2.7895  -16.5965  -44.0614 H         1 UNK         0.0600 
    182 H182        2.2587  -17.0957  -42.4609 H         1 UNK         0.0600 
    183 H183        3.8071  -17.6385  -43.0786 H         1 UNK         0.0600 
    184 H184        4.8780  -15.4733  -44.2635 H         1 UNK         0.3000 
    185 H185        7.1038  -12.8590  -43.9366 H         1 UNK         0.0600 
    186 H186        8.6619  -14.5341  -42.9207 H         1 UNK         0.0600 
    187 H187        8.1223  -15.7469  -44.0756 H         1 UNK         0.0600 
    188 H188        8.9856  -14.3118  -44.6314 H         1 UNK         0.0600 
    189 H189        7.0056  -14.6791  -46.0435 H         1 UNK         0.3000 
    190 H190       -1.8054  -21.0450  -48.9198 H         1 UNK         0.3000 
    191 H191       -1.8656  -23.1334  -50.8912 H         1 UNK         0.0600 
    192 H192       -3.0453  -20.9429  -51.1202 H         1 UNK         0.0600 
    193 H193       -4.1360  -22.2995  -51.3068 H         1 UNK         0.0600 
    194 H194       -4.1321  -21.3848  -49.8004 H         1 UNK         0.0600 
    195 H195       -3.3068  -22.7634  -47.6156 H         1 UNK         0.3000 
    196 H196       -4.8107  -25.1596  -47.6249 H         1 UNK         0.0600 
    197 H197       -4.9480  -24.8240  -45.1886 H         1 UNK         0.0600 
    198 H198       -5.1130  -23.2688  -45.9901 H         1 UNK         0.0600 
    199 H199       -3.5889  -23.7121  -45.2200 H         1 UNK         0.0600 
    200 H200       -1.3832  -24.6213  -46.8092 H         1 UNK         0.3000 
    201 H201       -0.7961  -27.2358  -45.8602 H         1 UNK         0.0600 
    202 H202        0.7058  -25.2851  -45.5382 H         1 UNK         0.0600 
    203 H203        1.0047  -25.1977  -47.2728 H         1 UNK         0.0600 
    204 H204        1.5608  -26.5874  -46.3499 H         1 UNK         0.0600 
    205 H205       -1.4743  -26.1180  -49.0813 H         1 UNK         0.3000 
    206 H206       -0.5418  -28.6549  -50.3410 H         1 UNK         0.0600 
    207 H207        0.2648  -26.5066  -51.3685 H         1 UNK         0.0600 
    208 H208       -0.7710  -27.4132  -52.4579 H         1 UNK         0.0600 
    209 H209       -1.4057  -26.0045  -51.6167 H         1 UNK         0.0600 
    210 H210       -3.0133  -27.9597  -48.5716 H         1 UNK         0.3000 
    211 H211       -5.0186  -28.6976  -48.2148 H         1 UNK         0.0600 
    212 H212       -4.9210  -30.2648  -50.8418 H         1 UNK         0.0600 
    213 H213       -6.0616  -30.4944  -49.5275 H         1 UNK         0.0600 
    214 H214       -4.3602  -30.8511  -49.2755 H         1 UNK         0.0600 
    215 H215       -4.5619  -27.2860  -51.3929 H         1 UNK         0.3000 
    216 H216       -7.3227  -26.5724  -51.8711 H         1 UNK         0.0600 
    217 H217       -6.3512  -25.4284  -53.8544 H         1 UNK         0.0600 
    218 H218       -5.7100  -27.0557  -53.6997 H         1 UNK         0.0600 
    219 H219       -4.7259  -25.6724  -53.2230 H         1 UNK         0.0600 
    220 H220       -7.1153  -25.6465  -49.4424 H         1 UNK         0.3000 
    221 H221       -6.0146  -23.1837  -48.8263 H         1 UNK         0.0600 
    222 H222       -8.6635  -24.3386  -47.7960 H         1 UNK         0.0600 
    223 H223       -7.0716  -24.7757  -47.1897 H         1 UNK         0.0600 
    224 H224       -7.6711  -23.1394  -46.9753 H         1 UNK         0.0600 
    225 H225       -8.9754  -23.7336  -50.6326 H         1 UNK         0.3000 
    226 H226      -10.0522  -21.0802  -50.4808 H         1 UNK         0.0600 
    227 H227      -11.4377  -23.0810  -50.9789 H         1 UNK         0.0600 
    228 H228      -11.5526  -21.9215  -52.2921 H         1 UNK         0.0600 
    229 H229      -10.5482  -23.3539  -52.4782 H         1 UNK         0.0600 
    230 H230       -7.4029  -22.3785  -52.3756 H         1 UNK         0.3000 
    231 H231       -7.6785  -20.6168  -54.6491 H         1 UNK         0.0600 
    232 H232       -6.4432  -22.7894  -54.7530 H         1 UNK         0.0600 
    233 H233       -5.2224  -22.1547  -53.6521 H         1 UNK         0.0600 
    234 H234       -5.4328  -21.4374  -55.2421 H         1 UNK         0.0600 
    235 H235       -5.8083  -20.5454  -51.6376 H         1 UNK         0.3000 
    236 H236       -4.5436  -19.0338  -50.5723 H         1 UNK         0.0600 
    237 H237       -5.7863  -16.9665  -50.0440 H         1 UNK         0.0600 
    238 H238       -6.8262  -17.1992  -51.4471 H         1 UNK         0.0600 
    239 H239       -6.8804  -18.3379  -50.1020 H         1 UNK         0.0600 
    240 H240       -3.3862  -19.3861  -53.0718 H         1 UNK         0.3000 
    241 H241       -1.8614  -18.6246  -54.4399 H         1 UNK         0.0600 
    242 H242       -4.6974  -16.5934  -56.1606 H         1 UNK         0.3800 
    243 H243       -4.9095  -17.6691  -54.8030 H         1 UNK         0.3800 
    244 H244       -1.0037  -17.4369  -52.2667 H         1 UNK         0.0800 
    245 H245       -1.5542  -15.9580  -53.0023 H         1 UNK         0.0800 
    246 H246        2.3693  -18.1008  -53.7535 H         1 UNK         0.0800 
    247 H247        0.9960  -18.8752  -53.0034 H         1 UNK         0.0800 
@<TRIPOS>BOND
     1    1    2 1    
     2    1  127 1    
     3    1  128 1    
     4    1  129 1    
     5    2    3 2    
     6    2    4 am   BACKBONE|DICT|INTERRES
     7    4    5 1    
     8    4  130 1    
     9    5    6 1    
    10    5   65 1    
    11    5  131 1    
    12    6    7 1    
    13    6  132 1    
    14    6  133 1    
    15    7    8 1    
    16    8    9 1    
    17    8  134 1    
    18    8  135 1    
    19    9   10 ar   
    20    9   14 ar   
    21   10   11 ar   
    22   10  136 1    
    23   11   12 ar   
    24   11  126 1    
    25   12   13 ar   
    26   12  137 1    
    27   13   14 ar   
    28   13   15 1    
    29   14  138 1    
    30   15   16 1    
    31   15  139 1    
    32   15  140 1    
    33   16   17 1    
    34   17   18 1    
    35   17  141 1    
    36   17  142 1    
    37   18   19 1    
    38   18   67 1    
    39   18  143 1    
    40   19   20 am   BACKBONE|DICT|INTERRES
    41   19  144 1    
    42   20   21 2    
    43   20   22 1    
    44   22   23 1    
    45   22   24 1    
    46   22  145 1    
    47   23  146 1    
    48   23  147 1    
    49   23  148 1    
    50   24   25 am   BACKBONE|DICT|INTERRES
    51   24  149 1    
    52   25   26 2    
    53   25   27 1    
    54   27   28 1    
    55   27   29 1    
    56   27  150 1    
    57   28  151 1    
    58   28  152 1    
    59   28  153 1    
    60   29   30 am   BACKBONE|DICT|INTERRES
    61   29  154 1    
    62   30   31 2    
    63   30   32 1    
    64   32   33 1    
    65   32   34 1    
    66   32  155 1    
    67   33  156 1    
    68   33  157 1    
    69   33  158 1    
    70   34   35 am   BACKBONE|DICT|INTERRES
    71   34  159 1    
    72   35   36 2    
    73   35   37 1    
    74   37   38 1    
    75   37   39 1    
    76   37  160 1    
    77   38  161 1    
    78   38  162 1    
    79   38  163 1    
    80   39   40 am   BACKBONE|DICT|INTERRES
    81   39  164 1    
    82   40   41 2    
    83   40   42 1    
    84   42   43 1    
    85   42   44 1    
    86   42  165 1    
    87   43  166 1    
    88   43  167 1    
    89   43  168 1    
    90   44   45 am   BACKBONE|DICT|INTERRES
    91   44  169 1    
    92   45   46 2    
    93   45   47 1    
    94   47   48 1    
    95   47   49 1    
    96   47  170 1    
    97   48  171 1    
    98   48  172 1    
    99   48  173 1    
   100   49   50 am   BACKBONE|DICT|INTERRES
   101   49  174 1    
   102   50   51 2    
   103   50   52 1    
   104   52   53 1    
   105   52   54 1    
   106   52  175 1    
   107   53  176 1    
   108   53  177 1    
   109   53  178 1    
   110   54   55 am   BACKBONE|DICT|INTERRES
   111   54  179 1    
   112   55   56 2    
   113   55   57 1    
   114   57   58 1    
   115   57   59 1    
   116   57  180 1    
   117   58  181 1    
   118   58  182 1    
   119   58  183 1    
   120   59   60 am   BACKBONE|DICT|INTERRES
   121   59  184 1    
   122   60   61 2    
   123   60   62 1    
   124   62   63 1    
   125   62   64 1    
   126   62  185 1    
   127   63  186 1    
   128   63  187 1    
   129   63  188 1    
   130   64   65 am   BACKBONE|DICT|INTERRES
   131   64  189 1    
   132   65   66 2    
   133   67   68 2    
   134   67   69 am   BACKBONE|DICT|INTERRES
   135   69   70 1    
   136   69  190 1    
   137   70   71 1    
   138   70   72 1    
   139   70  191 1    
   140   71  192 1    
   141   71  193 1    
   142   71  194 1    
   143   72   73 2    
   144   72   74 am   BACKBONE|DICT|INTERRES
   145   74   75 1    
   146   74  195 1    
   147   75   76 1    
   148   75   77 1    
   149   75  196 1    
   150   76  197 1    
   151   76  198 1    
   152   76  199 1    
   153   77   78 2    
   154   77   79 am   BACKBONE|DICT|INTERRES
   155   79   80 1    
   156   79  200 1    
   157   80   81 1    
   158   80   82 1    
   159   80  201 1    
   160   81  202 1    
   161   81  203 1    
   162   81  204 1    
   163   82   83 2    
   164   82   84 am   BACKBONE|DICT|INTERRES
   165   84   85 1    
   166   84  205 1    
   167   85   86 1    
   168   85   87 1    
   169   85  206 1    
   170   86  207 1    
   171   86  208 1    
   172   86  209 1    
   173   87   88 2    
   174   87   89 am   BACKBONE|DICT|INTERRES
   175   89   90 1    
   176   89  210 1    
   177   90   91 1    
   178   90   92 1    
   179   90  211 1    
   180   91  212 1    
   181   91  213 1    
   182   91  214 1    
   183   92   93 2    
   184   92   94 am   BACKBONE|DICT|INTERRES
   185   94   95 1    
   186   94  215 1    
   187   95   96 1    
   188   95   97 1    
   189   95  216 1    
   190   96  217 1    
   191   96  218 1    
   192   96  219 1    
   193   97   98 2    
   194   97   99 am   BACKBONE|DICT|INTERRES
   195   99  100 1    
   196   99  220 1    
   197  100  101 1    
   198  100  102 1    
   199  100  221 1    
   200  101  222 1    
   201  101  223 1    
   202  101  224 1    
   203  102  103 2    
   204  102  104 am   BACKBONE|DICT|INTERRES
   205  104  105 1    
   206  104  225 1    
   207  105  106 1    
   208  105  107 1    
   209  105  226 1    
   210  106  227 1    
   211  106  228 1    
   212  106  229 1    
   213  107  108 2    
   214  107  109 am   BACKBONE|DICT|INTERRES
   215  109  110 1    
   216  109  230 1    
   217  110  111 1    
   218  110  112 1    
   219  110  231 1    
   220  111  232 1    
   221  111  233 1    
   222  111  234 1    
   223  112  113 2    
   224  112  114 am   BACKBONE|DICT|INTERRES
   225  114  115 1    
   226  114  235 1    
   227  115  116 1    
   228  115  117 1    
   229  115  236 1    
   230  116  237 1    
   231  116  238 1    
   232  116  239 1    
   233  117  118 2    
   234  117  119 am   BACKBONE|DICT|INTERRES
   235  119  120 1    
   236  119  240 1    
   237  120  121 1    
   238  120  124 1    
   239  120  241 1    
   240  121  122 am   BACKBONE|DICT|INTERRES
   241  121  123 2    
   242  122  242 1    
   243  122  243 1    
   244  124  125 1    
   245  124  244 1    
   246  124  245 1    
   247  125  126 1    
   248  126  246 1    
   249  126  247 1    
@<TRIPOS>SUBSTRUCTURE
     1 UNK         1 GROUP             0       ****    0 ROOT    
