@<TRIPOS>MOLECULE
3R540
247   249    1
SMALL
USER_CHARGES


@<TRIPOS>ATOM
      1 CA          1.1442   -9.2933  -49.7139 C.3       0 UNK        -0.1800 
      2 C           1.9088  -10.5891  -49.4832 C.2       0 UNK         0.5000 
      3 O           2.7886  -10.9308  -50.2735 O.2       0 UNK        -0.5000 
      4 N           1.5779  -11.3093  -48.4038 N.am      1 UNK        -0.5000 
      5 CA          2.1906  -12.5919  -48.0284 C.3       1 UNK         0.1400 
      6 C6          1.3316  -13.3711  -47.0019 C.3       23 UNK        -0.0398 
      7 S7         -0.4016  -13.6122  -47.5119 S.3       23 UNK        -0.2404 
      8 C8         -0.8320  -15.1312  -46.6060 C.3       23 UNK        -0.0205 
      9 C9         -0.9364  -16.3263  -47.5396 C.ar      23 UNK        -0.0193 
     10 C10        -2.1588  -16.6257  -48.1467 C.ar      23 UNK        -0.1150 
     11 C11        -2.2819  -17.7300  -48.9930 C.ar      23 UNK        -0.0193 
     12 C12        -1.1745  -18.5532  -49.2107 C.ar      23 UNK        -0.1150 
     13 C13         0.0538  -18.2750  -48.6015 C.ar      23 UNK        -0.0193 
     14 C14         0.1723  -17.1420  -47.7854 C.ar      23 UNK        -0.1150 
     15 C15         1.2341  -19.2121  -48.8492 C.3       23 UNK        -0.0205 
     16 S16         2.2236  -19.6476  -47.3719 S.3       23 UNK        -0.2404 
     17 C17         0.9919  -19.9188  -46.0509 C.3       23 UNK        -0.0398 
     18 CA          0.4961  -21.3768  -45.9378 C.3       11 UNK         0.1400 
     19 N          -0.0716  -21.6498  -44.6169 N.am      11 UNK        -0.5000 
     20 C          -0.3563  -22.8703  -44.1426 C.2       10 UNK         0.5000 
     21 O          -0.1045  -23.9148  -44.7431 O.2       10 UNK        -0.5000 
     22 CA         -1.0925  -22.9252  -42.7915 C.3       10 UNK         0.1400 
     23 CB         -0.0933  -22.9146  -41.6255 C.3       10 UNK        -0.1800 
     24 N          -2.0448  -21.8225  -42.6371 N.am      10 UNK        -0.5000 
     25 C          -3.1856  -21.7237  -43.3362 C.2       9 UNK         0.5000 
     26 O          -3.5622  -22.5748  -44.1406 O.2       9 UNK        -0.5000 
     27 CA         -4.0267  -20.4463  -43.1493 C.3       9 UNK         0.1400 
     28 CB         -5.0387  -20.6316  -42.0095 C.3       9 UNK        -0.1800 
     29 N          -3.2290  -19.2465  -42.8943 N.am      9 UNK        -0.5000 
     30 C          -2.2949  -18.7454  -43.7139 C.2       8 UNK         0.5000 
     31 O          -2.0103  -19.2432  -44.8027 O.2       8 UNK        -0.5000 
     32 CA         -1.5157  -17.5099  -43.2203 C.3       8 UNK         0.1400 
     33 CB         -2.2930  -16.6722  -42.1833 C.3       8 UNK        -0.1800 
     34 N          -0.1850  -17.8431  -42.6992 N.am      8 UNK        -0.5000 
     35 C           0.1323  -18.7671  -41.7773 C.2       7 UNK         0.5000 
     36 O          -0.6726  -19.5505  -41.2723 O.2       7 UNK        -0.5000 
     37 CA          1.6005  -18.8077  -41.3239 C.3       7 UNK         0.1400 
     38 CB          2.4967  -19.4782  -42.3769 C.3       7 UNK        -0.1800 
     39 N           2.1030  -17.4648  -41.0396 N.am      7 UNK        -0.5000 
     40 C           1.9703  -16.8344  -39.8638 C.2       6 UNK         0.5000 
     41 O           1.4515  -17.3433  -38.8697 O.2       6 UNK        -0.5000 
     42 CA          2.5122  -15.3932  -39.7772 C.3       6 UNK         0.1400 
     43 CB          3.9581  -15.3934  -39.2583 C.3       6 UNK        -0.1800 
     44 N           2.4701  -14.6963  -41.0627 N.am      6 UNK        -0.5000 
     45 C           1.3497  -14.2380  -41.6407 C.2       5 UNK         0.5000 
     46 O           0.2461  -14.2603  -41.0975 O.2       5 UNK        -0.5000 
     47 CA          1.4760  -13.6804  -43.0739 C.3       5 UNK         0.1400 
     48 CB          1.5532  -12.1467  -43.0357 C.3       5 UNK        -0.1800 
     49 N           2.6333  -14.2137  -43.8025 N.am      5 UNK        -0.5000 
     50 C           2.7926  -15.5075  -44.1262 C.2       4 UNK         0.5000 
     51 O           1.9254  -16.3581  -43.9233 O.2       4 UNK        -0.5000 
     52 CA          4.1437  -15.9533  -44.7199 C.3       4 UNK         0.1400 
     53 CB          3.9712  -16.5197  -46.1342 C.3       4 UNK        -0.1800 
     54 N           5.1637  -14.9040  -44.7282 N.am      4 UNK        -0.5000 
     55 C           5.8271  -14.4873  -43.6392 C.2       3 UNK         0.5000 
     56 O           5.6390  -14.9525  -42.5144 O.2       3 UNK        -0.5000 
     57 CA          6.8353  -13.3341  -43.8235 C.3       3 UNK         0.1400 
     58 CB          8.2562  -13.8886  -44.0039 C.3       3 UNK        -0.1800 
     59 N           6.5240  -12.4424  -44.9452 N.am      3 UNK        -0.5000 
     60 C           5.4101  -11.7058  -45.0533 C.2       2 UNK         0.5000 
     61 O           4.5185  -11.7039  -44.2034 O.2       2 UNK        -0.5000 
     62 CA          5.2219  -10.8611  -46.3312 C.3       2 UNK         0.1400 
     63 CB          6.4121  -10.9116  -47.3162 C.3       2 UNK        -0.1800 
     64 N           3.9711  -11.2181  -47.0080 N.am      2 UNK        -0.5000 
     65 C           3.6251  -12.4287  -47.4754 C.2       1 UNK         0.5000 
     66 O           4.3751  -13.4053  -47.4541 O.2       1 UNK        -0.5000 
     67 C          -0.5259  -21.7102  -47.0389 C.2       11 UNK         0.5000 
     68 O          -0.1789  -22.3927  -48.0010 O.2       11 UNK        -0.5000 
     69 N          -1.7778  -21.2670  -46.8513 N.am      12 UNK        -0.5000 
     70 CA         -2.9012  -21.5502  -47.7430 C.3       12 UNK         0.1400 
     71 CB         -4.1452  -20.7844  -47.2717 C.3       12 UNK        -0.1800 
     72 C          -3.1921  -23.0556  -47.8691 C.2       12 UNK         0.5000 
     73 O          -3.4118  -23.5311  -48.9818 O.2       12 UNK        -0.5000 
     74 N          -3.1373  -23.7836  -46.7448 N.am      13 UNK        -0.5000 
     75 CA         -3.2577  -25.2404  -46.6931 C.3       13 UNK         0.1400 
     76 CB         -3.3328  -25.7056  -45.2312 C.3       13 UNK        -0.1800 
     77 C          -2.1171  -25.9550  -47.4401 C.2       13 UNK         0.5000 
     78 O          -2.3908  -26.8485  -48.2418 O.2       13 UNK        -0.5000 
     79 N          -0.8687  -25.5239  -47.2037 N.am      14 UNK        -0.5000 
     80 CA          0.3299  -26.0404  -47.8730 C.3       14 UNK         0.1400 
     81 CB          1.5833  -25.4484  -47.2110 C.3       14 UNK        -0.1800 
     82 C           0.3379  -25.7753  -49.3914 C.2       14 UNK         0.5000 
     83 O           0.7589  -26.6401  -50.1603 O.2       14 UNK        -0.5000 
     84 N          -0.1629  -24.6011  -49.7945 N.am      15 UNK        -0.5000 
     85 CA         -0.3426  -24.1859  -51.1857 C.3       15 UNK         0.1400 
     86 CB         -0.4506  -22.6516  -51.2285 C.3       15 UNK        -0.1800 
     87 C          -1.5685  -24.8226  -51.8719 C.2       15 UNK         0.5000 
     88 O          -1.7638  -24.5862  -53.0646 O.2       15 UNK        -0.5000 
     89 N          -2.3978  -25.5643  -51.1193 N.am      16 UNK        -0.5000 
     90 CA         -3.6718  -26.1688  -51.5309 C.3       16 UNK         0.1400 
     91 CB         -3.4272  -27.3295  -52.5168 C.3       16 UNK        -0.1800 
     92 C          -4.6679  -25.1196  -52.0702 C.2       16 UNK         0.5000 
     93 O          -5.3026  -25.3313  -53.1056 O.2       16 UNK        -0.5000 
     94 N          -4.7213  -23.9669  -51.3857 N.am      17 UNK        -0.5000 
     95 CA         -5.4621  -22.7488  -51.7276 C.3       17 UNK         0.1400 
     96 CB         -6.9781  -22.9766  -51.5664 C.3       17 UNK        -0.1800 
     97 C          -5.0946  -22.1799  -53.1147 C.2       17 UNK         0.5000 
     98 O          -5.9402  -21.5650  -53.7648 O.2       17 UNK        -0.5000 
     99 N          -3.8571  -22.4330  -53.5691 N.am      18 UNK        -0.5000 
    100 CA        -3.3238  -22.1243  -54.9020 C.3       18 UNK         0.1400 
    101 CB        -3.2190  -20.5976  -55.1039 C.3       18 UNK        -0.1800 
    102 C         -4.0984  -22.8234  -56.0442 C.2       18 UNK         0.5000 
    103 O         -4.0924  -22.3324  -57.1740 O.2       18 UNK        -0.5000 
    104 N         -4.7724  -23.9401  -55.7194 N.am      19 UNK        -0.5000 
    105 CA        -5.7171  -24.6915  -56.5531 C.3       19 UNK         0.1400 
    106 CB        -5.0026  -25.3322  -57.7614 C.3       19 UNK        -0.1800 
    107 C         -6.9675  -23.8732  -56.9525 C.2       19 UNK         0.5000 
    108 O         -7.5917  -24.1674  -57.9739 O.2       19 UNK        -0.5000 
    109 N         -7.3175  -22.8665  -56.1423 N.am      20 UNK        -0.5000 
    110 CA        -8.4388  -21.9593  -56.3478 C.3       20 UNK         0.1400 
    111 CB        -7.9963  -20.7913  -57.2563 C.3       20 UNK        -0.1800 
    112 C         -8.9639  -21.5342  -54.9664 C.2       20 UNK         0.5000 
    113 O         -9.4706  -22.3823  -54.2299 O.2       20 UNK        -0.5000 
    114 N         -8.8214  -20.2487  -54.6296 N.am      21 UNK        -0.5000 
    115 CA        -9.1673  -19.6610  -53.3384 C.3       21 UNK         0.1400 
    116 CB       -10.6061  -19.1126  -53.3850 C.3       21 UNK        -0.1800 
    117 C         -8.1140  -18.5966  -52.9878 C.2       21 UNK         0.5000 
    118 O         -8.4597  -17.4554  -52.6767 O.2       21 UNK        -0.5000 
    119 N         -6.8379  -18.9906  -53.0890 N.am      22 UNK        -0.5000 
    120 CA        -5.6494  -18.1277  -53.0240 C.3       22 UNK         0.1400 
    121 C         -5.5080  -17.2064  -54.2781 C.2       22 UNK         0.5000 
    122 N         -4.6353  -16.2092  -54.2439 N.am      22 UNK        -0.7600 
    123 O         -6.1518  -17.4095  -55.3062 O.2       22 UNK        -0.5000 
    124 C124       -5.5242  -17.3861  -51.6596 C.3       23 UNK        -0.0398 
    125 S125       -3.7949  -17.0352  -51.1850 S.3       23 UNK        -0.2404 
    126 C126       -3.6110  -18.0248  -49.6705 C.3       23 UNK        -0.0205 
    127 H127        0.3964   -9.1201  -48.9397 H         1 UNK         0.0600 
    128 H128        0.6349   -9.3248  -50.6771 H         1 UNK         0.0600 
    129 H129        1.8317   -8.4475  -49.7180 H         1 UNK         0.0600 
    130 H130        0.8262  -10.9931  -47.8073 H         1 UNK         0.3000 
    131 H131        2.2651  -13.2030  -48.9306 H         1 UNK         0.0600 
    132 H132        1.7733  -14.3513  -46.8230 H         1 UNK         0.0800 
    133 H133        1.3215  -12.8569  -46.0412 H         1 UNK         0.0800 
    134 H134       -0.1095  -15.3315  -45.8132 H         1 UNK         0.0800 
    135 H135       -1.7873  -14.9754  -46.1026 H         1 UNK         0.0800 
    136 H136       -3.0153  -15.9902  -47.9700 H         1 UNK         0.1150 
    137 H137       -1.2699  -19.4127  -49.8591 H         1 UNK         0.1150 
    138 H138        1.1188  -16.9125  -47.3178 H         1 UNK         0.1150 
    139 H139        0.8872  -20.1422  -49.3014 H         1 UNK         0.0800 
    140 H140        1.8945  -18.7489  -49.5830 H         1 UNK         0.0800 
    141 H141        0.1622  -19.2203  -46.1331 H         1 UNK         0.0800 
    142 H142        1.4943  -19.6414  -45.1262 H         1 UNK         0.0800 
    143 H143        1.3536  -22.0415  -46.0647 H         1 UNK         0.0600 
    144 H144       -0.3971  -20.8490  -44.0953 H         1 UNK         0.3000 
    145 H145       -1.6472  -23.8651  -42.7520 H         1 UNK         0.0600 
    146 H146       -0.6060  -22.9932  -40.6667 H         1 UNK         0.0600 
    147 H147        0.5957  -23.7573  -41.6961 H         1 UNK         0.0600 
    148 H148        0.5047  -22.0038  -41.6110 H         1 UNK         0.0600 
    149 H149       -1.7747  -21.0620  -42.0200 H         1 UNK         0.3000 
    150 H150       -4.5822  -20.2794  -44.0737 H         1 UNK         0.0600 
    151 H151       -5.7015  -19.7702  -41.9258 H         1 UNK         0.0600 
    152 H152       -5.6660  -21.5071  -42.1828 H         1 UNK         0.0600 
    153 H153       -4.5413  -20.7686  -41.0485 H         1 UNK         0.0600 
    154 H154       -3.3620  -18.8002  -41.9987 H         1 UNK         0.3000 
    155 H155       -1.3560  -16.8829  -44.0983 H         1 UNK         0.0600 
    156 H156       -2.3877  -17.1837  -41.2248 H         1 UNK         0.0600 
    157 H157       -3.2966  -16.4339  -42.5382 H         1 UNK         0.0600 
    158 H158       -1.7894  -15.7243  -41.9985 H         1 UNK         0.0600 
    159 H159        0.5745  -17.2897  -43.0903 H         1 UNK         0.3000 
    160 H160        1.6484  -19.4139  -40.4165 H         1 UNK         0.0600 
    161 H161        2.6021  -18.8651  -43.2711 H         1 UNK         0.0600 
    162 H162        2.0968  -20.4458  -42.6818 H         1 UNK         0.0600 
    163 H163        3.4969  -19.6524  -41.9802 H         1 UNK         0.0600 
    164 H164        2.4879  -16.9531  -41.8203 H         1 UNK         0.3000 
    165 H165        1.8931  -14.8459  -39.0632 H         1 UNK         0.0600 
    166 H166        4.3331  -14.3772  -39.1351 H         1 UNK         0.0600 
    167 H167        4.0247  -15.8843  -38.2865 H         1 UNK         0.0600 
    168 H168        4.6301  -15.9181  -39.9388 H         1 UNK         0.0600 
    169 H169        3.3439  -14.6199  -41.5660 H         1 UNK         0.3000 
    170 H170        0.5747  -13.9661  -43.6202 H         1 UNK         0.0600 
    171 H171        0.6623  -11.7237  -42.5698 H         1 UNK         0.0600 
    172 H172        2.4152  -11.8041  -42.4620 H         1 UNK         0.0600 
    173 H173        1.6289  -11.7201  -44.0351 H         1 UNK         0.0600 
    174 H174        3.3893  -13.5631  -43.9826 H         1 UNK         0.3000 
    175 H175        4.5032  -16.7683  -44.0880 H         1 UNK         0.0600 
    176 H176        3.6066  -15.7755  -46.8387 H         1 UNK         0.0600 
    177 H177        4.9104  -16.9162  -46.5198 H         1 UNK         0.0600 
    178 H178        3.2540  -17.3378  -46.1270 H         1 UNK         0.0600 
    179 H179        5.3312  -14.4423  -45.6139 H         1 UNK         0.3000 
    180 H180        6.8148  -12.7367  -42.9096 H         1 UNK         0.0600 
    181 H181        8.3461  -14.4741  -44.9197 H         1 UNK         0.0600 
    182 H182        8.5315  -14.5372  -43.1710 H         1 UNK         0.0600 
    183 H183        8.9919  -13.0850  -44.0442 H         1 UNK         0.0600 
    184 H184        7.1970  -12.4098  -45.6971 H         1 UNK         0.3000 
    185 H185        5.1120   -9.8281  -45.9985 H         1 UNK         0.0600 
    186 H186        7.3281  -10.5514  -46.8464 H         1 UNK         0.0600 
    187 H187        6.6010  -11.9183  -47.6902 H         1 UNK         0.0600 
    188 H188        6.2257  -10.2727  -48.1795 H         1 UNK         0.0600 
    189 H189        3.2739  -10.4887  -47.0489 H         1 UNK         0.3000 
    190 H190       -1.9653  -20.6646  -46.0540 H         1 UNK         0.3000 
    191 H191       -2.6314  -21.1823  -48.7342 H         1 UNK         0.0600 
    192 H192       -3.9363  -19.7204  -47.1593 H         1 UNK         0.0600 
    193 H193       -4.9588  -20.8854  -47.9909 H         1 UNK         0.0600 
    194 H194       -4.5077  -21.1561  -46.3138 H         1 UNK         0.0600 
    195 H195       -3.0225  -23.3052  -45.8562 H         1 UNK         0.3000 
    196 H196       -4.1955  -25.5125  -47.1821 H         1 UNK         0.0600 
    197 H197       -3.4341  -26.7899  -45.1707 H         1 UNK         0.0600 
    198 H198       -4.1938  -25.2702  -44.7238 H         1 UNK         0.0600 
    199 H199       -2.4397  -25.4268  -44.6718 H         1 UNK         0.0600 
    200 H200       -0.7213  -24.7976  -46.5107 H         1 UNK         0.3000 
    201 H201        0.3497  -27.1224  -47.7279 H         1 UNK         0.0600 
    202 H202        1.6277  -25.7045  -46.1523 H         1 UNK         0.0600 
    203 H203        1.6072  -24.3614  -47.2927 H         1 UNK         0.0600 
    204 H204        2.4909  -25.8334  -47.6772 H         1 UNK         0.0600 
    205 H205       -0.4114  -23.9140  -49.0862 H         1 UNK         0.3000 
    206 H206        0.5401  -24.4828  -51.7555 H         1 UNK         0.0600 
    207 H207        0.4334  -22.1834  -50.7955 H         1 UNK         0.0600 
    208 H208       -0.5389  -22.2880  -52.2531 H         1 UNK         0.0600 
    209 H209       -1.3214  -22.2957  -50.6767 H         1 UNK         0.0600 
    210 H210       -2.1656  -25.6793  -50.1406 H         1 UNK         0.3000 
    211 H211       -4.1219  -26.5856  -50.6289 H         1 UNK         0.0600 
    212 H212       -3.0173  -26.9782  -53.4643 H         1 UNK         0.0600 
    213 H213       -4.3562  -27.8563  -52.7378 H         1 UNK         0.0600 
    214 H214       -2.7321  -28.0586  -52.1004 H         1 UNK         0.0600 
    215 H215       -4.1542  -23.8948  -50.5399 H         1 UNK         0.3000 
    216 H216       -5.1598  -21.9939  -51.0005 H         1 UNK         0.0600 
    217 H217       -7.5278  -22.0408  -51.6670 H         1 UNK         0.0600 
    218 H218       -7.2134  -23.3846  -50.5835 H         1 UNK         0.0600 
    219 H219       -7.3661  -23.6649  -52.3182 H         1 UNK         0.0600 
    220 H220       -3.2517  -23.0115  -52.9995 H         1 UNK         0.3000 
    221 H221       -2.3125  -22.5324  -54.9268 H         1 UNK         0.0600 
    222 H222       -4.2005  -20.1338  -55.2060 H         1 UNK         0.0600 
    223 H223       -2.7059  -20.1213  -54.2684 H         1 UNK         0.0600 
    224 H224       -2.6547  -20.3617  -56.0066 H         1 UNK         0.0600 
    225 H225       -4.7210  -24.2614  -54.7578 H         1 UNK         0.3000 
    226 H226       -6.0840  -25.5036  -55.9240 H         1 UNK         0.0600 
    227 H227       -4.1270  -25.8995  -57.4460 H         1 UNK         0.0600 
    228 H228       -5.6639  -26.0239  -58.2845 H         1 UNK         0.0600 
    229 H229       -4.6767  -24.5844  -58.4846 H         1 UNK         0.0600 
    230 H230       -6.7679  -22.6861  -55.3085 H         1 UNK         0.3000 
    231 H231       -9.2560  -22.4912  -56.8390 H         1 UNK         0.0600 
    232 H232       -7.1436  -20.2524  -56.8402 H         1 UNK         0.0600 
    233 H233       -8.8075  -20.0785  -57.4101 H         1 UNK         0.0600 
    234 H234       -7.7023  -21.1552  -58.2410 H         1 UNK         0.0600 
    235 H235       -8.3563  -19.6270  -55.2778 H         1 UNK         0.3000 
    236 H236       -9.1139  -20.4214  -52.5570 H         1 UNK         0.0600 
    237 H237      -11.3218  -19.9039  -53.6084 H         1 UNK         0.0600 
    238 H238      -10.8916  -18.6792  -52.4258 H         1 UNK         0.0600 
    239 H239      -10.7154  -18.3378  -54.1447 H         1 UNK         0.0600 
    240 H240       -6.6535  -19.9448  -53.3940 H         1 UNK         0.3000 
    241 H241       -4.8176  -18.8288  -53.0975 H         1 UNK         0.0600 
    242 H242       -4.0792  -16.0394  -53.4182 H         1 UNK         0.3800 
    243 H243       -4.5250  -15.6193  -55.0538 H         1 UNK         0.3800 
    244 H244       -6.0858  -16.4506  -51.6722 H         1 UNK         0.0800 
    245 H245       -5.9783  -17.9864  -50.8701 H         1 UNK         0.0800 
    246 H246       -3.6906  -19.0845  -49.9174 H         1 UNK         0.0800 
    247 H247       -4.4282  -17.8011  -48.9829 H         1 UNK         0.0800 
@<TRIPOS>BOND
     1    1    2 1    
     2    1  127 1    
     3    1  128 1    
     4    1  129 1    
     5    2    3 2    
     6    2    4 am   BACKBONE|DICT|INTERRES
     7    4    5 1    
     8    4  130 1    
     9    5    6 1    
    10    5   65 1    
    11    5  131 1    
    12    6    7 1    
    13    6  132 1    
    14    6  133 1    
    15    7    8 1    
    16    8    9 1    
    17    8  134 1    
    18    8  135 1    
    19    9   10 ar   
    20    9   14 ar   
    21   10   11 ar   
    22   10  136 1    
    23   11   12 ar   
    24   11  126 1    
    25   12   13 ar   
    26   12  137 1    
    27   13   14 ar   
    28   13   15 1    
    29   14  138 1    
    30   15   16 1    
    31   15  139 1    
    32   15  140 1    
    33   16   17 1    
    34   17   18 1    
    35   17  141 1    
    36   17  142 1    
    37   18   19 1    
    38   18   67 1    
    39   18  143 1    
    40   19   20 am   BACKBONE|DICT|INTERRES
    41   19  144 1    
    42   20   21 2    
    43   20   22 1    
    44   22   23 1    
    45   22   24 1    
    46   22  145 1    
    47   23  146 1    
    48   23  147 1    
    49   23  148 1    
    50   24   25 am   BACKBONE|DICT|INTERRES
    51   24  149 1    
    52   25   26 2    
    53   25   27 1    
    54   27   28 1    
    55   27   29 1    
    56   27  150 1    
    57   28  151 1    
    58   28  152 1    
    59   28  153 1    
    60   29   30 am   BACKBONE|DICT|INTERRES
    61   29  154 1    
    62   30   31 2    
    63   30   32 1    
    64   32   33 1    
    65   32   34 1    
    66   32  155 1    
    67   33  156 1    
    68   33  157 1    
    69   33  158 1    
    70   34   35 am   BACKBONE|DICT|INTERRES
    71   34  159 1    
    72   35   36 2    
    73   35   37 1    
    74   37   38 1    
    75   37   39 1    
    76   37  160 1    
    77   38  161 1    
    78   38  162 1    
    79   38  163 1    
    80   39   40 am   BACKBONE|DICT|INTERRES
    81   39  164 1    
    82   40   41 2    
    83   40   42 1    
    84   42   43 1    
    85   42   44 1    
    86   42  165 1    
    87   43  166 1    
    88   43  167 1    
    89   43  168 1    
    90   44   45 am   BACKBONE|DICT|INTERRES
    91   44  169 1    
    92   45   46 2    
    93   45   47 1    
    94   47   48 1    
    95   47   49 1    
    96   47  170 1    
    97   48  171 1    
    98   48  172 1    
    99   48  173 1    
   100   49   50 am   BACKBONE|DICT|INTERRES
   101   49  174 1    
   102   50   51 2    
   103   50   52 1    
   104   52   53 1    
   105   52   54 1    
   106   52  175 1    
   107   53  176 1    
   108   53  177 1    
   109   53  178 1    
   110   54   55 am   BACKBONE|DICT|INTERRES
   111   54  179 1    
   112   55   56 2    
   113   55   57 1    
   114   57   58 1    
   115   57   59 1    
   116   57  180 1    
   117   58  181 1    
   118   58  182 1    
   119   58  183 1    
   120   59   60 am   BACKBONE|DICT|INTERRES
   121   59  184 1    
   122   60   61 2    
   123   60   62 1    
   124   62   63 1    
   125   62   64 1    
   126   62  185 1    
   127   63  186 1    
   128   63  187 1    
   129   63  188 1    
   130   64   65 am   BACKBONE|DICT|INTERRES
   131   64  189 1    
   132   65   66 2    
   133   67   68 2    
   134   67   69 am   BACKBONE|DICT|INTERRES
   135   69   70 1    
   136   69  190 1    
   137   70   71 1    
   138   70   72 1    
   139   70  191 1    
   140   71  192 1    
   141   71  193 1    
   142   71  194 1    
   143   72   73 2    
   144   72   74 am   BACKBONE|DICT|INTERRES
   145   74   75 1    
   146   74  195 1    
   147   75   76 1    
   148   75   77 1    
   149   75  196 1    
   150   76  197 1    
   151   76  198 1    
   152   76  199 1    
   153   77   78 2    
   154   77   79 am   BACKBONE|DICT|INTERRES
   155   79   80 1    
   156   79  200 1    
   157   80   81 1    
   158   80   82 1    
   159   80  201 1    
   160   81  202 1    
   161   81  203 1    
   162   81  204 1    
   163   82   83 2    
   164   82   84 am   BACKBONE|DICT|INTERRES
   165   84   85 1    
   166   84  205 1    
   167   85   86 1    
   168   85   87 1    
   169   85  206 1    
   170   86  207 1    
   171   86  208 1    
   172   86  209 1    
   173   87   88 2    
   174   87   89 am   BACKBONE|DICT|INTERRES
   175   89   90 1    
   176   89  210 1    
   177   90   91 1    
   178   90   92 1    
   179   90  211 1    
   180   91  212 1    
   181   91  213 1    
   182   91  214 1    
   183   92   93 2    
   184   92   94 am   BACKBONE|DICT|INTERRES
   185   94   95 1    
   186   94  215 1    
   187   95   96 1    
   188   95   97 1    
   189   95  216 1    
   190   96  217 1    
   191   96  218 1    
   192   96  219 1    
   193   97   98 2    
   194   97   99 am   BACKBONE|DICT|INTERRES
   195   99  100 1    
   196   99  220 1    
   197  100  101 1    
   198  100  102 1    
   199  100  221 1    
   200  101  222 1    
   201  101  223 1    
   202  101  224 1    
   203  102  103 2    
   204  102  104 am   BACKBONE|DICT|INTERRES
   205  104  105 1    
   206  104  225 1    
   207  105  106 1    
   208  105  107 1    
   209  105  226 1    
   210  106  227 1    
   211  106  228 1    
   212  106  229 1    
   213  107  108 2    
   214  107  109 am   BACKBONE|DICT|INTERRES
   215  109  110 1    
   216  109  230 1    
   217  110  111 1    
   218  110  112 1    
   219  110  231 1    
   220  111  232 1    
   221  111  233 1    
   222  111  234 1    
   223  112  113 2    
   224  112  114 am   BACKBONE|DICT|INTERRES
   225  114  115 1    
   226  114  235 1    
   227  115  116 1    
   228  115  117 1    
   229  115  236 1    
   230  116  237 1    
   231  116  238 1    
   232  116  239 1    
   233  117  118 2    
   234  117  119 am   BACKBONE|DICT|INTERRES
   235  119  120 1    
   236  119  240 1    
   237  120  121 1    
   238  120  124 1    
   239  120  241 1    
   240  121  122 am   BACKBONE|DICT|INTERRES
   241  121  123 2    
   242  122  242 1    
   243  122  243 1    
   244  124  125 1    
   245  124  244 1    
   246  124  245 1    
   247  125  126 1    
   248  126  246 1    
   249  126  247 1    
@<TRIPOS>SUBSTRUCTURE
     1 UNK         1 GROUP             0       ****    0 ROOT    
