@<TRIPOS>MOLECULE
3R540
247   249    1
SMALL
USER_CHARGES


@<TRIPOS>ATOM
      1 CA          1.7459  -13.0047  -52.6945 C.3       0 UNK        -0.1800 
      2 C           1.6638  -12.9061  -51.1774 C.2       0 UNK         0.5000 
      3 O           0.6870  -13.3779  -50.5973 O.2       0 UNK        -0.5000 
      4 N           2.6903  -12.3025  -50.5574 N.am      1 UNK        -0.5000 
      5 CA          2.8876  -12.0771  -49.1166 C.3       1 UNK         0.1400 
      6 C6          3.6222  -13.2445  -48.3872 C.3       23 UNK        -0.0398 
      7 S7          2.7718  -14.8634  -48.3542 S.3       23 UNK        -0.2404 
      8 C8          3.6281  -15.7249  -49.7052 C.3       23 UNK        -0.0205 
      9 C9          2.9076  -17.0070  -50.0848 C.ar      23 UNK        -0.0193 
     10 C10         1.7954  -16.9591  -50.9296 C.ar      23 UNK        -0.1150 
     11 C11         1.1399  -18.1333  -51.3069 C.ar      23 UNK        -0.0193 
     12 C12         1.6016  -19.3645  -50.8281 C.ar      23 UNK        -0.1150 
     13 C13         2.7156  -19.4250  -49.9844 C.ar      23 UNK        -0.0193 
     14 C14         3.3616  -18.2416  -49.6135 C.ar      23 UNK        -0.1150 
     15 C15         3.2529  -20.7644  -49.5005 C.3       23 UNK        -0.0205 
     16 S16         2.8832  -21.0535  -47.7427 S.3       23 UNK        -0.2404 
     17 C17         1.1366  -21.5755  -47.7919 C.3       23 UNK        -0.0398 
     18 CA          0.9055  -22.9067  -47.0357 C.3       11 UNK         0.1400 
     19 N           1.2419  -22.7896  -45.6181 N.am      11 UNK        -0.5000 
     20 C           1.4089  -23.8156  -44.7758 C.2       10 UNK         0.5000 
     21 O           1.3435  -24.9969  -45.1221 O.2       10 UNK        -0.5000 
     22 CA          1.6967  -23.4480  -43.3053 C.3       10 UNK         0.1400 
     23 CB          2.2312  -24.6311  -42.4718 C.3       10 UNK        -0.1800 
     24 N           2.5657  -22.2750  -43.1697 N.am      10 UNK        -0.5000 
     25 C           3.8330  -22.1314  -43.5878 C.2       9 UNK         0.5000 
     26 O           4.4822  -23.0280  -44.1280 O.2       9 UNK        -0.5000 
     27 CA          4.4992  -20.7546  -43.3697 C.3       9 UNK         0.1400 
     28 CB          4.7367  -20.0454  -44.7114 C.3       9 UNK        -0.1800 
     29 N           3.7296  -19.8599  -42.5035 N.am      9 UNK        -0.5000 
     30 C           3.6375  -19.9645  -41.1716 C.2       8 UNK         0.5000 
     31 O           4.2629  -20.7892  -40.5044 O.2       8 UNK        -0.5000 
     32 CA          2.6437  -19.0150  -40.4752 C.3       8 UNK         0.1400 
     33 CB          3.3086  -17.6668  -40.1601 C.3       8 UNK        -0.1800 
     34 N           1.4228  -18.7917  -41.2562 N.am      8 UNK        -0.5000 
     35 C           0.5276  -19.7438  -41.5581 C.2       7 UNK         0.5000 
     36 O           0.6230  -20.9125  -41.1848 O.2       7 UNK        -0.5000 
     37 CA         -0.6489  -19.3408  -42.4634 C.3       7 UNK         0.1400 
     38 CB         -1.7304  -18.6102  -41.6535 C.3       7 UNK        -0.1800 
     39 N          -0.2288  -18.5201  -43.6006 N.am      7 UNK        -0.5000 
     40 C           0.5600  -18.9506  -44.5968 C.2       6 UNK         0.5000 
     41 O           0.9665  -20.1084  -44.6871 O.2       6 UNK        -0.5000 
     42 CA          1.0093  -17.9093  -45.6408 C.3       6 UNK         0.1400 
     43 CB         -0.0602  -17.6994  -46.7233 C.3       6 UNK        -0.1800 
     44 N           1.3441  -16.6206  -45.0372 N.am      6 UNK        -0.5000 
     45 C           2.3327  -16.4242  -44.1544 C.2       5 UNK         0.5000 
     46 O           3.1134  -17.3030  -43.7909 O.2       5 UNK        -0.5000 
     47 CA          2.4193  -15.0259  -43.5209 C.3       5 UNK         0.1400 
     48 CB          3.1048  -14.0255  -44.4638 C.3       5 UNK        -0.1800 
     49 N           1.0993  -14.5238  -43.1375 N.am      5 UNK        -0.5000 
     50 C           0.3674  -15.0209  -42.1303 C.2       4 UNK         0.5000 
     51 O           0.7462  -15.9342  -41.3980 O.2       4 UNK        -0.5000 
     52 CA         -1.0352  -14.4188  -41.9266 C.3       4 UNK         0.1400 
     53 CB         -0.9570  -13.1437  -41.0740 C.3       4 UNK        -0.1800 
     54 N          -1.7094  -14.1161  -43.1895 N.am      4 UNK        -0.5000 
     55 C          -2.1286  -15.0402  -44.0656 C.2       3 UNK         0.5000 
     56 O          -2.0211  -16.2518  -43.8863 O.2       3 UNK        -0.5000 
     57 CA         -2.7133  -14.5181  -45.3916 C.3       3 UNK         0.1400 
     58 CB         -4.2089  -14.2048  -45.2386 C.3       3 UNK        -0.1800 
     59 N          -2.0131  -13.3354  -45.9046 N.am      3 UNK        -0.5000 
     60 C          -0.7143  -13.3157  -46.2292 C.2       2 UNK         0.5000 
     61 O           0.0320  -14.2913  -46.1112 O.2       2 UNK        -0.5000 
     62 CA         -0.1386  -11.9793  -46.7112 C.3       2 UNK         0.1400 
     63 CB          0.1754  -11.0558  -45.5208 C.3       2 UNK        -0.1800 
     64 N           1.0833  -12.2671  -47.4474 N.am      2 UNK        -0.5000 
     65 C           1.6316  -11.5167  -48.4046 C.2       1 UNK         0.5000 
     66 O           1.1949  -10.4125  -48.7381 O.2       1 UNK        -0.5000 
     67 C          -0.5612  -23.3471  -47.1862 C.2       11 UNK         0.5000 
     68 O          -1.4302  -22.8131  -46.4903 O.2       11 UNK        -0.5000 
     69 N          -0.8289  -24.2542  -48.1378 N.am      12 UNK        -0.5000 
     70 CA         -2.1676  -24.7630  -48.4709 C.3       12 UNK         0.1400 
     71 CB         -2.0503  -25.8245  -49.5732 C.3       12 UNK        -0.1800 
     72 C          -3.1634  -23.6644  -48.8898 C.2       12 UNK         0.5000 
     73 O          -4.3654  -23.8173  -48.6755 O.2       12 UNK        -0.5000 
     74 N          -2.6341  -22.5517  -49.4133 N.am      13 UNK        -0.5000 
     75 CA         -3.3509  -21.3191  -49.7293 C.3       13 UNK         0.1400 
     76 CB         -2.3612  -20.3384  -50.3697 C.3       13 UNK        -0.1800 
     77 C          -4.0519  -20.6589  -48.5279 C.2       13 UNK         0.5000 
     78 O          -5.0491  -19.9676  -48.7305 O.2       13 UNK        -0.5000 
     79 N          -3.5347  -20.8902  -47.3152 N.am      14 UNK        -0.5000 
     80 CA         -4.1182  -20.4201  -46.0619 C.3       14 UNK         0.1400 
     81 CB         -3.0478  -19.6653  -45.2629 C.3       14 UNK        -0.1800 
     82 C          -4.6742  -21.5937  -45.2419 C.2       14 UNK         0.5000 
     83 O          -5.7669  -21.4773  -44.6878 O.2       14 UNK        -0.5000 
     84 N          -3.9227  -22.7026  -45.1794 N.am      15 UNK        -0.5000 
     85 CA         -4.2355  -23.8699  -44.3536 C.3       15 UNK         0.1400 
     86 CB         -2.9869  -24.7595  -44.2464 C.3       15 UNK        -0.1800 
     87 C          -5.4450  -24.6840  -44.8509 C.2       15 UNK         0.5000 
     88 O          -6.1690  -25.2419  -44.0253 O.2       15 UNK        -0.5000 
     89 N          -5.6436  -24.7391  -46.1745 N.am      16 UNK        -0.5000 
     90 CA         -6.7344  -25.4695  -46.8280 C.3       16 UNK         0.1400 
     91 CB         -6.1275  -26.6243  -47.6453 C.3       16 UNK        -0.1800 
     92 C          -7.5947  -24.5584  -47.7251 C.2       16 UNK         0.5000 
     93 O          -8.5526  -25.0457  -48.3263 O.2       16 UNK        -0.5000 
     94 N          -7.2288  -23.2698  -47.8239 N.am      17 UNK        -0.5000 
     95 CA         -7.7860  -22.2443  -48.7173 C.3       17 UNK         0.1400 
     96 CB         -9.2572  -21.9427  -48.3646 C.3       17 UNK        -0.1800 
     97 C          -7.5866  -22.5576  -50.2194 C.2       17 UNK         0.5000 
     98 O          -8.3023  -22.0154  -51.0632 O.2       17 UNK        -0.5000 
     99 N          -6.6102  -23.4163  -50.5399 N.am      18 UNK        -0.5000 
    100 CA        -6.3369  -23.9426  -51.8770 C.3       18 UNK         0.1400 
    101 CB        -5.8516  -25.3961  -51.7298 C.3       18 UNK        -0.1800 
    102 C         -5.3290  -23.0519  -52.6281 C.2       18 UNK         0.5000 
    103 O         -4.2970  -23.5378  -53.0934 O.2       18 UNK        -0.5000 
    104 N         -5.6185  -21.7455  -52.6830 N.am      19 UNK        -0.5000 
    105 CA        -4.7228  -20.7294  -53.2342 C.3       19 UNK         0.1400 
    106 CB        -5.1398  -19.3450  -52.7156 C.3       19 UNK        -0.1800 
    107 C         -4.6668  -20.7508  -54.7688 C.2       19 UNK         0.5000 
    108 O         -3.5735  -20.7022  -55.3335 O.2       19 UNK        -0.5000 
    109 N         -5.8433  -20.8178  -55.4109 N.am      20 UNK        -0.5000 
    110 CA        -6.0481  -20.7625  -56.8630 C.3       20 UNK         0.1400 
    111 CB        -5.6151  -22.0970  -57.5113 C.3       20 UNK        -0.1800 
    112 C         -5.3801  -19.5102  -57.4768 C.2       20 UNK         0.5000 
    113 O         -5.7281  -18.3928  -57.0884 O.2       20 UNK        -0.5000 
    114 N         -4.4006  -19.7081  -58.3700 N.am      21 UNK        -0.5000 
    115 CA        -3.5915  -18.6576  -58.9960 C.3       21 UNK         0.1400 
    116 CB        -2.7124  -19.2933  -60.0841 C.3       21 UNK        -0.1800 
    117 C         -2.7250  -17.8466  -58.0075 C.2       21 UNK         0.5000 
    118 O         -2.3369  -16.7239  -58.3333 O.2       21 UNK        -0.5000 
    119 N         -2.4508  -18.4095  -56.8229 N.am      22 UNK        -0.5000 
    120 CA        -1.7883  -17.7299  -55.6987 C.3       22 UNK         0.1400 
    121 C         -2.7160  -16.7407  -54.9267 C.2       22 UNK         0.5000 
    122 N         -4.0205  -16.7018  -55.1818 N.am      22 UNK        -0.7600 
    123 O         -2.2446  -15.9804  -54.0872 O.2       22 UNK        -0.5000 
    124 C124       -1.1240  -18.7653  -54.7502 C.3       23 UNK        -0.0398 
    125 S125        0.4288  -18.1900  -53.9795 S.3       23 UNK        -0.2404 
    126 C126       -0.0646  -18.0724  -52.2321 C.3       23 UNK        -0.0205 
    127 H127        2.6642  -12.5636  -53.0829 H         1 UNK         0.0600 
    128 H128        0.9010  -12.4883  -53.1502 H         1 UNK         0.0600 
    129 H129        1.7142  -14.0496  -53.0041 H         1 UNK         0.0600 
    130 H130        3.4267  -11.9238  -51.1359 H         1 UNK         0.3000 
    131 H131        3.5881  -11.2411  -49.0815 H         1 UNK         0.0600 
    132 H132        3.8351  -12.9582  -47.3561 H         1 UNK         0.0800 
    133 H133        4.6042  -13.3819  -48.8417 H         1 UNK         0.0800 
    134 H134        4.6552  -15.9364  -49.4040 H         1 UNK         0.0800 
    135 H135        3.6906  -15.0747  -50.5784 H         1 UNK         0.0800 
    136 H136        1.4409  -16.0059  -51.2956 H         1 UNK         0.1150 
    137 H137        1.1018  -20.2754  -51.1260 H         1 UNK         0.1150 
    138 H138        4.2237  -18.2851  -48.9626 H         1 UNK         0.1150 
    139 H139        2.8662  -21.5866  -50.1044 H         1 UNK         0.0800 
    140 H140        4.3357  -20.7784  -49.6329 H         1 UNK         0.0800 
    141 H141        0.8207  -21.6661  -48.8323 H         1 UNK         0.0800 
    142 H142        0.5314  -20.7784  -47.3597 H         1 UNK         0.0800 
    143 H143        1.5478  -23.6725  -47.4758 H         1 UNK         0.0600 
    144 H144        1.2686  -21.8420  -45.2466 H         1 UNK         0.3000 
    145 H145        0.7351  -23.1584  -42.8795 H         1 UNK         0.0600 
    146 H146        2.4070  -24.3353  -41.4375 H         1 UNK         0.0600 
    147 H147        1.5141  -25.4526  -42.4560 H         1 UNK         0.0600 
    148 H148        3.1663  -25.0219  -42.8735 H         1 UNK         0.0600 
    149 H149        2.1238  -21.4684  -42.7479 H         1 UNK         0.3000 
    150 H150        5.4706  -20.9362  -42.9056 H         1 UNK         0.0600 
    151 H151        5.2967  -20.6773  -45.4018 H         1 UNK         0.0600 
    152 H152        5.3062  -19.1259  -44.5756 H         1 UNK         0.0600 
    153 H153        3.7947  -19.7839  -45.1935 H         1 UNK         0.0600 
    154 H154        3.2365  -19.1012  -42.9656 H         1 UNK         0.3000 
    155 H155        2.3529  -19.4780  -39.5300 H         1 UNK         0.0600 
    156 H156        4.2117  -17.8055  -39.5644 H         1 UNK         0.0600 
    157 H157        2.6397  -17.0214  -39.5907 H         1 UNK         0.0600 
    158 H158        3.5923  -17.1355  -41.0689 H         1 UNK         0.0600 
    159 H159        1.2479  -17.8384  -41.5603 H         1 UNK         0.3000 
    160 H160       -1.0885  -20.2586  -42.8591 H         1 UNK         0.0600 
    161 H161       -1.3628  -17.6687  -41.2461 H         1 UNK         0.0600 
    162 H162       -2.0686  -19.2204  -40.8153 H         1 UNK         0.0600 
    163 H163       -2.6041  -18.3890  -42.2654 H         1 UNK         0.0600 
    164 H164       -0.5908  -17.5721  -43.6343 H         1 UNK         0.3000 
    165 H165        1.9082  -18.2961  -46.1255 H         1 UNK         0.0600 
    166 H166        0.3228  -17.0770  -47.5329 H         1 UNK         0.0600 
    167 H167       -0.3765  -18.6451  -47.1626 H         1 UNK         0.0600 
    168 H168       -0.9468  -17.2105  -46.3204 H         1 UNK         0.0600 
    169 H169        0.7758  -15.8250  -45.3174 H         1 UNK         0.3000 
    170 H170        3.0283  -15.1071  -42.6180 H         1 UNK         0.0600 
    171 H171        3.2289  -13.0538  -43.9858 H         1 UNK         0.0600 
    172 H172        4.0967  -14.3775  -44.7502 H         1 UNK         0.0600 
    173 H173        2.5352  -13.8772  -45.3797 H         1 UNK         0.0600 
    174 H174        0.6910  -13.8188  -43.7317 H         1 UNK         0.3000 
    175 H175       -1.6376  -15.1528  -41.3874 H         1 UNK         0.0600 
    176 H176       -0.4730  -13.3439  -40.1171 H         1 UNK         0.0600 
    177 H177       -0.3872  -12.3584  -41.5723 H         1 UNK         0.0600 
    178 H178       -1.9513  -12.7523  -40.8582 H         1 UNK         0.0600 
    179 H179       -1.8369  -13.1418  -43.4191 H         1 UNK         0.3000 
    180 H180       -2.6071  -15.3136  -46.1321 H         1 UNK         0.0600 
    181 H181       -4.7543  -15.0767  -44.8745 H         1 UNK         0.0600 
    182 H182       -4.3812  -13.3912  -44.5330 H         1 UNK         0.0600 
    183 H183       -4.6523  -13.9218  -46.1934 H         1 UNK         0.0600 
    184 H184       -2.5638  -12.4963  -46.0170 H         1 UNK         0.3000 
    185 H185       -0.8640  -11.5048  -47.3752 H         1 UNK         0.0600 
    186 H186       -0.7235  -10.8375  -44.9432 H         1 UNK         0.0600 
    187 H187        0.9023  -11.5061  -44.8437 H         1 UNK         0.0600 
    188 H188        0.5811  -10.1018  -45.8579 H         1 UNK         0.0600 
    189 H189        1.4349  -13.2077  -47.2994 H         1 UNK         0.3000 
    190 H190       -0.0632  -24.6465  -48.6673 H         1 UNK         0.3000 
    191 H191       -2.5722  -25.2435  -47.5789 H         1 UNK         0.0600 
    192 H192       -1.3976  -26.6420  -49.2667 H         1 UNK         0.0600 
    193 H193       -1.6531  -25.4041  -50.4980 H         1 UNK         0.0600 
    194 H194       -3.0243  -26.2595  -49.8010 H         1 UNK         0.0600 
    195 H195       -1.6377  -22.5388  -49.5655 H         1 UNK         0.3000 
    196 H196       -4.1246  -21.5653  -50.4530 H         1 UNK         0.0600 
    197 H197       -2.8585  -19.4149  -50.6684 H         1 UNK         0.0600 
    198 H198       -1.9080  -20.7712  -51.2614 H         1 UNK         0.0600 
    199 H199       -1.5582  -20.0690  -49.6818 H         1 UNK         0.0600 
    200 H200       -2.7231  -21.4924  -47.2341 H         1 UNK         0.3000 
    201 H201       -4.9439  -19.7305  -46.2498 H         1 UNK         0.0600 
    202 H202       -3.4343  -19.3450  -44.2953 H         1 UNK         0.0600 
    203 H203       -2.1697  -20.2862  -45.0828 H         1 UNK         0.0600 
    204 H204       -2.7238  -18.7701  -45.7921 H         1 UNK         0.0600 
    205 H205       -3.0179  -22.7160  -45.6452 H         1 UNK         0.3000 
    206 H206       -4.4757  -23.5117  -43.3502 H         1 UNK         0.0600 
    207 H207       -2.1432  -24.2075  -43.8314 H         1 UNK         0.0600 
    208 H208       -3.1701  -25.6133  -43.5929 H         1 UNK         0.0600 
    209 H209       -2.6835  -25.1495  -45.2175 H         1 UNK         0.0600 
    210 H210       -4.9949  -24.2706  -46.7966 H         1 UNK         0.3000 
    211 H211       -7.4118  -25.8971  -46.0866 H         1 UNK         0.0600 
    212 H212       -6.9068  -27.2286  -48.1112 H         1 UNK         0.0600 
    213 H213       -5.5396  -27.2881  -47.0114 H         1 UNK         0.0600 
    214 H214       -5.4777  -26.2594  -48.4412 H         1 UNK         0.0600 
    215 H215       -6.4280  -22.9801  -47.2829 H         1 UNK         0.3000 
    216 H216       -7.2194  -21.3355  -48.5214 H         1 UNK         0.0600 
    217 H217       -9.6181  -21.0694  -48.9089 H         1 UNK         0.0600 
    218 H218       -9.3721  -21.7302  -47.3017 H         1 UNK         0.0600 
    219 H219       -9.9151  -22.7754  -48.6144 H         1 UNK         0.0600 
    220 H220       -5.9970  -23.7408  -49.7988 H         1 UNK         0.3000 
    221 H221       -7.2585  -23.9569  -52.4624 H         1 UNK         0.0600 
    222 H222       -4.9197  -25.4526  -51.1665 H         1 UNK         0.0600 
    223 H223       -6.5913  -26.0070  -51.2119 H         1 UNK         0.0600 
    224 H224       -5.6777  -25.8536  -52.7045 H         1 UNK         0.0600 
    225 H225       -6.4915  -21.4313  -52.2779 H         1 UNK         0.3000 
    226 H226       -3.7133  -20.9318  -52.8726 H         1 UNK         0.0600 
    227 H227       -4.4331  -18.5803  -53.0385 H         1 UNK         0.0600 
    228 H228       -6.1269  -19.0554  -53.0777 H         1 UNK         0.0600 
    229 H229       -5.1659  -19.3207  -51.6261 H         1 UNK         0.0600 
    230 H230       -6.6843  -20.8366  -54.8523 H         1 UNK         0.3000 
    231 H231       -7.1205  -20.6464  -57.0257 H         1 UNK         0.0600 
    232 H232       -6.1655  -22.9325  -57.0783 H         1 UNK         0.0600 
    233 H233       -4.5527  -22.3002  -57.3717 H         1 UNK         0.0600 
    234 H234       -5.8214  -22.1020  -58.5824 H         1 UNK         0.0600 
    235 H235       -4.1574  -20.6594  -58.6053 H         1 UNK         0.3000 
    236 H236       -4.2755  -17.9550  -59.4764 H         1 UNK         0.0600 
    237 H237       -3.3182  -19.7951  -60.8389 H         1 UNK         0.0600 
    238 H238       -2.1173  -18.5372  -60.5981 H         1 UNK         0.0600 
    239 H239       -2.0213  -20.0257  -59.6648 H         1 UNK         0.0600 
    240 H240       -2.8355  -19.3248  -56.6125 H         1 UNK         0.3000 
    241 H241       -0.9937  -17.1177  -56.1295 H         1 UNK         0.0600 
    242 H242       -4.5960  -16.0446  -54.6803 H         1 UNK         0.3800 
    243 H243       -4.4438  -17.3016  -55.8801 H         1 UNK         0.3800 
    244 H244       -1.8284  -19.1115  -53.9927 H         1 UNK         0.0800 
    245 H245       -0.8534  -19.6606  -55.3121 H         1 UNK         0.0800 
    246 H246       -0.7411  -18.8878  -51.9893 H         1 UNK         0.0800 
    247 H247       -0.6237  -17.1489  -52.0727 H         1 UNK         0.0800 
@<TRIPOS>BOND
     1    1    2 1    
     2    1  127 1    
     3    1  128 1    
     4    1  129 1    
     5    2    3 2    
     6    2    4 am   BACKBONE|DICT|INTERRES
     7    4    5 1    
     8    4  130 1    
     9    5    6 1    
    10    5   65 1    
    11    5  131 1    
    12    6    7 1    
    13    6  132 1    
    14    6  133 1    
    15    7    8 1    
    16    8    9 1    
    17    8  134 1    
    18    8  135 1    
    19    9   10 ar   
    20    9   14 ar   
    21   10   11 ar   
    22   10  136 1    
    23   11   12 ar   
    24   11  126 1    
    25   12   13 ar   
    26   12  137 1    
    27   13   14 ar   
    28   13   15 1    
    29   14  138 1    
    30   15   16 1    
    31   15  139 1    
    32   15  140 1    
    33   16   17 1    
    34   17   18 1    
    35   17  141 1    
    36   17  142 1    
    37   18   19 1    
    38   18   67 1    
    39   18  143 1    
    40   19   20 am   BACKBONE|DICT|INTERRES
    41   19  144 1    
    42   20   21 2    
    43   20   22 1    
    44   22   23 1    
    45   22   24 1    
    46   22  145 1    
    47   23  146 1    
    48   23  147 1    
    49   23  148 1    
    50   24   25 am   BACKBONE|DICT|INTERRES
    51   24  149 1    
    52   25   26 2    
    53   25   27 1    
    54   27   28 1    
    55   27   29 1    
    56   27  150 1    
    57   28  151 1    
    58   28  152 1    
    59   28  153 1    
    60   29   30 am   BACKBONE|DICT|INTERRES
    61   29  154 1    
    62   30   31 2    
    63   30   32 1    
    64   32   33 1    
    65   32   34 1    
    66   32  155 1    
    67   33  156 1    
    68   33  157 1    
    69   33  158 1    
    70   34   35 am   BACKBONE|DICT|INTERRES
    71   34  159 1    
    72   35   36 2    
    73   35   37 1    
    74   37   38 1    
    75   37   39 1    
    76   37  160 1    
    77   38  161 1    
    78   38  162 1    
    79   38  163 1    
    80   39   40 am   BACKBONE|DICT|INTERRES
    81   39  164 1    
    82   40   41 2    
    83   40   42 1    
    84   42   43 1    
    85   42   44 1    
    86   42  165 1    
    87   43  166 1    
    88   43  167 1    
    89   43  168 1    
    90   44   45 am   BACKBONE|DICT|INTERRES
    91   44  169 1    
    92   45   46 2    
    93   45   47 1    
    94   47   48 1    
    95   47   49 1    
    96   47  170 1    
    97   48  171 1    
    98   48  172 1    
    99   48  173 1    
   100   49   50 am   BACKBONE|DICT|INTERRES
   101   49  174 1    
   102   50   51 2    
   103   50   52 1    
   104   52   53 1    
   105   52   54 1    
   106   52  175 1    
   107   53  176 1    
   108   53  177 1    
   109   53  178 1    
   110   54   55 am   BACKBONE|DICT|INTERRES
   111   54  179 1    
   112   55   56 2    
   113   55   57 1    
   114   57   58 1    
   115   57   59 1    
   116   57  180 1    
   117   58  181 1    
   118   58  182 1    
   119   58  183 1    
   120   59   60 am   BACKBONE|DICT|INTERRES
   121   59  184 1    
   122   60   61 2    
   123   60   62 1    
   124   62   63 1    
   125   62   64 1    
   126   62  185 1    
   127   63  186 1    
   128   63  187 1    
   129   63  188 1    
   130   64   65 am   BACKBONE|DICT|INTERRES
   131   64  189 1    
   132   65   66 2    
   133   67   68 2    
   134   67   69 am   BACKBONE|DICT|INTERRES
   135   69   70 1    
   136   69  190 1    
   137   70   71 1    
   138   70   72 1    
   139   70  191 1    
   140   71  192 1    
   141   71  193 1    
   142   71  194 1    
   143   72   73 2    
   144   72   74 am   BACKBONE|DICT|INTERRES
   145   74   75 1    
   146   74  195 1    
   147   75   76 1    
   148   75   77 1    
   149   75  196 1    
   150   76  197 1    
   151   76  198 1    
   152   76  199 1    
   153   77   78 2    
   154   77   79 am   BACKBONE|DICT|INTERRES
   155   79   80 1    
   156   79  200 1    
   157   80   81 1    
   158   80   82 1    
   159   80  201 1    
   160   81  202 1    
   161   81  203 1    
   162   81  204 1    
   163   82   83 2    
   164   82   84 am   BACKBONE|DICT|INTERRES
   165   84   85 1    
   166   84  205 1    
   167   85   86 1    
   168   85   87 1    
   169   85  206 1    
   170   86  207 1    
   171   86  208 1    
   172   86  209 1    
   173   87   88 2    
   174   87   89 am   BACKBONE|DICT|INTERRES
   175   89   90 1    
   176   89  210 1    
   177   90   91 1    
   178   90   92 1    
   179   90  211 1    
   180   91  212 1    
   181   91  213 1    
   182   91  214 1    
   183   92   93 2    
   184   92   94 am   BACKBONE|DICT|INTERRES
   185   94   95 1    
   186   94  215 1    
   187   95   96 1    
   188   95   97 1    
   189   95  216 1    
   190   96  217 1    
   191   96  218 1    
   192   96  219 1    
   193   97   98 2    
   194   97   99 am   BACKBONE|DICT|INTERRES
   195   99  100 1    
   196   99  220 1    
   197  100  101 1    
   198  100  102 1    
   199  100  221 1    
   200  101  222 1    
   201  101  223 1    
   202  101  224 1    
   203  102  103 2    
   204  102  104 am   BACKBONE|DICT|INTERRES
   205  104  105 1    
   206  104  225 1    
   207  105  106 1    
   208  105  107 1    
   209  105  226 1    
   210  106  227 1    
   211  106  228 1    
   212  106  229 1    
   213  107  108 2    
   214  107  109 am   BACKBONE|DICT|INTERRES
   215  109  110 1    
   216  109  230 1    
   217  110  111 1    
   218  110  112 1    
   219  110  231 1    
   220  111  232 1    
   221  111  233 1    
   222  111  234 1    
   223  112  113 2    
   224  112  114 am   BACKBONE|DICT|INTERRES
   225  114  115 1    
   226  114  235 1    
   227  115  116 1    
   228  115  117 1    
   229  115  236 1    
   230  116  237 1    
   231  116  238 1    
   232  116  239 1    
   233  117  118 2    
   234  117  119 am   BACKBONE|DICT|INTERRES
   235  119  120 1    
   236  119  240 1    
   237  120  121 1    
   238  120  124 1    
   239  120  241 1    
   240  121  122 am   BACKBONE|DICT|INTERRES
   241  121  123 2    
   242  122  242 1    
   243  122  243 1    
   244  124  125 1    
   245  124  244 1    
   246  124  245 1    
   247  125  126 1    
   248  126  246 1    
   249  126  247 1    
@<TRIPOS>SUBSTRUCTURE
     1 UNK         1 GROUP             0       ****    0 ROOT    
