@<TRIPOS>MOLECULE
3R540
247   249    1
SMALL
USER_CHARGES


@<TRIPOS>ATOM
      1 CA         -0.3885   -9.2994  -45.0428 C.3       0 UNK        -0.1800 
      2 C           0.5826   -9.8557  -46.0735 C.2       0 UNK         0.5000 
      3 O           1.2678   -9.0904  -46.7525 O.2       0 UNK        -0.5000 
      4 N           0.6610  -11.1860  -46.1851 N.am      1 UNK        -0.5000 
      5 CA          1.5272  -11.9232  -47.1076 C.3       1 UNK         0.1400 
      6 C6          0.8710  -13.2770  -47.4755 C.3       23 UNK        -0.0398 
      7 S7          1.5649  -14.0483  -48.9737 S.3       23 UNK        -0.2404 
      8 C8          0.7236  -15.6528  -48.8639 C.3       23 UNK        -0.0205 
      9 C9          1.0670  -16.5636  -50.0277 C.ar      23 UNK        -0.0193 
     10 C10         0.3673  -16.4525  -51.2315 C.ar      23 UNK        -0.1150 
     11 C11         0.6583  -17.3014  -52.3024 C.ar      23 UNK        -0.0193 
     12 C12         1.6580  -18.2690  -52.1607 C.ar      23 UNK        -0.1150 
     13 C13         2.3554  -18.3978  -50.9552 C.ar      23 UNK        -0.0193 
     14 C14         2.0593  -17.5381  -49.8932 C.ar      23 UNK        -0.1150 
     15 C15         3.4254  -19.4681  -50.7994 C.3       23 UNK        -0.0205 
     16 S16         2.7040  -21.1099  -50.4818 S.3       23 UNK        -0.2404 
     17 C17         1.9214  -20.8618  -48.8516 C.3       23 UNK        -0.0398 
     18 CA          1.7725  -22.1698  -48.0316 C.3       11 UNK         0.1400 
     19 N           1.6956  -21.8750  -46.5947 N.am      11 UNK        -0.5000 
     20 C           1.8988  -22.7666  -45.6151 C.2       10 UNK         0.5000 
     21 O           2.2543  -23.9288  -45.8118 O.2       10 UNK        -0.5000 
     22 CA          1.6213  -22.2905  -44.1771 C.3       10 UNK         0.1400 
     23 CB          2.8405  -21.5472  -43.6109 C.3       10 UNK        -0.1800 
     24 N           0.4308  -21.4416  -44.0634 N.am      10 UNK        -0.5000 
     25 C          -0.8270  -21.8419  -44.3046 C.2       9 UNK         0.5000 
     26 O          -1.1235  -22.9773  -44.6732 O.2       9 UNK        -0.5000 
     27 CA         -1.9393  -20.7879  -44.1551 C.3       9 UNK         0.1400 
     28 CB         -2.2927  -20.5547  -42.6790 C.3       9 UNK        -0.1800 
     29 N          -1.5719  -19.5192  -44.7776 N.am      9 UNK        -0.5000 
     30 C          -1.4680  -19.3266  -46.0980 C.2       8 UNK         0.5000 
     31 O          -1.7877  -20.1683  -46.9385 O.2       8 UNK        -0.5000 
     32 CA         -0.8961  -17.9766  -46.5600 C.3       8 UNK         0.1400 
     33 CB         -2.0099  -16.9299  -46.7073 C.3       8 UNK        -0.1800 
     34 N           0.1339  -17.4713  -45.6521 N.am      8 UNK        -0.5000 
     35 C           1.3478  -18.0215  -45.5114 C.2       7 UNK         0.5000 
     36 O           1.7238  -19.0119  -46.1366 O.2       7 UNK        -0.5000 
     37 CA          2.2850  -17.3717  -44.4782 C.3       7 UNK         0.1400 
     38 CB          2.9709  -16.1479  -45.0943 C.3       7 UNK        -0.1800 
     39 N           1.5929  -16.9746  -43.2506 N.am      7 UNK        -0.5000 
     40 C           0.9790  -17.8296  -42.4208 C.2       6 UNK         0.5000 
     41 O           0.9935  -19.0513  -42.5640 O.2       6 UNK        -0.5000 
     42 CA          0.1432  -17.2132  -41.2872 C.3       6 UNK         0.1400 
     43 CB          1.0199  -16.8793  -40.0713 C.3       6 UNK        -0.1800 
     44 N          -0.5894  -16.0202  -41.7176 N.am      6 UNK        -0.5000 
     45 C          -1.5578  -16.0152  -42.6476 C.2       5 UNK         0.5000 
     46 O          -1.9201  -17.0281  -43.2454 O.2       5 UNK        -0.5000 
     47 CA         -2.2335  -14.6697  -42.9782 C.3       5 UNK         0.1400 
     48 CB         -3.6813  -14.6580  -42.4645 C.3       5 UNK        -0.1800 
     49 N          -1.5161  -13.5345  -42.3974 N.am      5 UNK        -0.5000 
     50 C          -0.5102  -12.8819  -42.9916 C.2       4 UNK         0.5000 
     51 O          -0.1730  -13.0687  -44.1628 O.2       4 UNK        -0.5000 
     52 CA          0.2526  -11.8438  -42.1376 C.3       4 UNK         0.1400 
     53 CB         -0.0706  -11.9153  -40.6276 C.3       4 UNK        -0.1800 
     54 N           1.7055  -11.9034  -42.3297 N.am      4 UNK        -0.5000 
     55 C           2.5030  -12.9737  -42.1911 C.2       3 UNK         0.5000 
     56 O           2.0995  -14.1200  -41.9792 O.2       3 UNK        -0.5000 
     57 CA          4.0060  -12.6873  -42.3368 C.3       3 UNK         0.1400 
     58 CB          4.8935  -13.9086  -42.0387 C.3       3 UNK        -0.1800 
     59 N           4.2580  -12.2146  -43.6937 N.am      3 UNK        -0.5000 
     60 C           4.8299  -11.0563  -44.0360 C.2       2 UNK         0.5000 
     61 O           5.2876  -10.2546  -43.2210 O.2       2 UNK        -0.5000 
     62 CA          4.8644  -10.7068  -45.5388 C.3       2 UNK         0.1400 
     63 CB          6.0255  -11.4219  -46.2561 C.3       2 UNK        -0.1800 
     64 N           3.5825  -10.9144  -46.2298 N.am      2 UNK        -0.5000 
     65 C           2.9381  -12.0608  -46.4923 C.2       1 UNK         0.5000 
     66 O           3.3879  -13.1688  -46.2015 O.2       1 UNK        -0.5000 
     67 C           0.5693  -23.0132  -48.5234 C.2       11 UNK         0.5000 
     68 O           0.6355  -23.5955  -49.6056 O.2       11 UNK        -0.5000 
     69 N          -0.5075  -23.0553  -47.7231 N.am      12 UNK        -0.5000 
     70 CA         -1.8159  -23.6427  -48.0134 C.3       12 UNK         0.1400 
     71 CB         -1.7503  -25.1788  -48.0813 C.3       12 UNK        -0.1800 
     72 C          -2.4780  -22.9822  -49.2370 C.2       12 UNK         0.5000 
     73 O          -2.9692  -23.6644  -50.1400 O.2       12 UNK        -0.5000 
     74 N          -2.4513  -21.6447  -49.2161 N.am      13 UNK        -0.5000 
     75 CA         -3.1445  -20.7520  -50.1345 C.3       13 UNK         0.1400 
     76 CB         -2.2815  -19.5009  -50.3767 C.3       13 UNK        -0.1800 
     77 C          -4.4982  -20.3587  -49.5284 C.2       13 UNK         0.5000 
     78 O          -5.5290  -20.4981  -50.1876 O.2       13 UNK        -0.5000 
     79 N          -4.4695  -19.9146  -48.2618 N.am      14 UNK        -0.5000 
     80 CA         -5.6550  -19.5467  -47.4833 C.3       14 UNK         0.1400 
     81 CB         -5.2351  -18.6940  -46.2765 C.3       14 UNK        -0.1800 
     82 C          -6.4566  -20.7726  -47.0159 C.2       14 UNK         0.5000 
     83 O          -7.6684  -20.6707  -46.8203 O.2       14 UNK        -0.5000 
     84 N          -5.7769  -21.9185  -46.8733 N.am      15 UNK        -0.5000 
     85 CA         -6.3544  -23.2138  -46.5173 C.3       15 UNK         0.1400 
     86 CB         -5.2482  -24.1037  -45.9216 C.3       15 UNK        -0.1800 
     87 C          -7.0486  -23.8632  -47.7319 C.2       15 UNK         0.5000 
     88 O          -6.6300  -24.9273  -48.1861 O.2       15 UNK        -0.5000 
     89 N          -8.0700  -23.1770  -48.2642 N.am      16 UNK        -0.5000 
     90 CA         -8.9328  -23.5711  -49.3861 C.3       16 UNK         0.1400 
     91 CB         -9.8523  -24.7331  -48.9560 C.3       16 UNK        -0.1800 
     92 C          -8.1769  -23.8757  -50.7003 C.2       16 UNK         0.5000 
     93 O          -8.6629  -24.6664  -51.5113 O.2       16 UNK        -0.5000 
     94 N          -7.0012  -23.2524  -50.8804 N.am      17 UNK        -0.5000 
     95 CA         -6.0549  -23.4486  -51.9849 C.3       17 UNK         0.1400 
     96 CB         -6.6380  -22.8803  -53.2964 C.3       17 UNK        -0.1800 
     97 C          -5.5743  -24.9123  -52.1250 C.2       17 UNK         0.5000 
     98 O          -5.4011  -25.4010  -53.2435 O.2       17 UNK        -0.5000 
     99 N          -5.4029  -25.6020  -50.9857 N.am      18 UNK        -0.5000 
    100 CA        -5.0939  -27.0318  -50.9046 C.3       18 UNK         0.1400 
    101 CB        -5.2239  -27.5055  -49.4491 C.3       18 UNK        -0.1800 
    102 C         -3.7315  -27.4481  -51.4919 C.2       18 UNK         0.5000 
    103 O         -3.5860  -28.6158  -51.8584 O.2       18 UNK        -0.5000 
    104 N         -2.7731  -26.5169  -51.5888 N.am      19 UNK        -0.5000 
    105 CA        -1.4993  -26.7431  -52.2755 C.3       19 UNK         0.1400 
    106 CB        -0.3578  -26.9419  -51.2653 C.3       19 UNK        -0.1800 
    107 C         -1.1948  -25.5941  -53.2414 C.2       19 UNK         0.5000 
    108 O         -0.9150  -25.8506  -54.4135 O.2       19 UNK        -0.5000 
    109 N         -1.2574  -24.3520  -52.7478 N.am      20 UNK        -0.5000 
    110 CA        -1.0179  -23.1556  -53.5450 C.3       20 UNK         0.1400 
    111 CB        -0.4166  -22.0706  -52.6442 C.3       20 UNK        -0.1800 
    112 C         -2.3375  -22.7048  -54.1868 C.2       20 UNK         0.5000 
    113 O         -3.2866  -22.3891  -53.4683 O.2       20 UNK        -0.5000 
    114 N         -2.3756  -22.6776  -55.5261 N.am      21 UNK        -0.5000 
    115 CA        -3.5615  -22.3829  -56.3431 C.3       21 UNK         0.1400 
    116 CB        -3.2036  -22.5839  -57.8238 C.3       21 UNK        -0.1800 
    117 C         -4.1752  -20.9841  -56.1224 C.2       21 UNK         0.5000 
    118 O         -5.3478  -20.7783  -56.4371 O.2       21 UNK        -0.5000 
    119 N         -3.3793  -20.0613  -55.5728 N.am      22 UNK        -0.5000 
    120 CA        -3.8038  -18.7475  -55.0712 C.3       22 UNK         0.1400 
    121 C         -4.7067  -18.7929  -53.7984 C.2       22 UNK         0.5000 
    122 N         -4.8102  -19.9127  -53.0913 N.am      22 UNK        -0.7600 
    123 O         -5.3273  -17.7910  -53.4534 O.2       22 UNK        -0.5000 
    124 C124       -2.5784  -17.8176  -54.8693 C.3       23 UNK        -0.0398 
    125 S125       -1.3503  -18.5202  -53.7149 S.3       23 UNK        -0.2404 
    126 C126       -0.1257  -17.1861  -53.5998 C.3       23 UNK        -0.0205 
    127 H127       -1.0543  -10.0725  -44.6589 H         1 UNK         0.0600 
    128 H128       -1.0034   -8.5183  -45.4899 H         1 UNK         0.0600 
    129 H129        0.1590   -8.8668  -44.2056 H         1 UNK         0.0600 
    130 H130        0.1480  -11.7745  -45.5333 H         1 UNK         0.3000 
    131 H131        1.6286  -11.3422  -48.0269 H         1 UNK         0.0600 
    132 H132        0.9178  -13.9760  -46.6391 H         1 UNK         0.0800 
    133 H133       -0.1919  -13.1242  -47.6697 H         1 UNK         0.0800 
    134 H134        0.9989  -16.1284  -47.9232 H         1 UNK         0.0800 
    135 H135       -0.3546  -15.4927  -48.8362 H         1 UNK         0.0800 
    136 H136       -0.4094  -15.7072  -51.3309 H         1 UNK         0.1150 
    137 H137        1.8771  -18.9373  -52.9817 H         1 UNK         0.1150 
    138 H138        2.5932  -17.6335  -48.9579 H         1 UNK         0.1150 
    139 H139        4.0237  -19.5168  -51.7102 H         1 UNK         0.0800 
    140 H140        4.1168  -19.2106  -49.9955 H         1 UNK         0.0800 
    141 H141        0.9625  -20.3546  -48.9780 H         1 UNK         0.0800 
    142 H142        2.5588  -20.1658  -48.3059 H         1 UNK         0.0800 
    143 H143        2.6699  -22.7726  -48.1869 H         1 UNK         0.0600 
    144 H144        1.4824  -20.9132  -46.3429 H         1 UNK         0.3000 
    145 H145        1.4527  -23.1782  -43.5639 H         1 UNK         0.0600 
    146 H146        2.6923  -21.2888  -42.5623 H         1 UNK         0.0600 
    147 H147        3.7378  -22.1644  -43.6695 H         1 UNK         0.0600 
    148 H148        3.0388  -20.6253  -44.1581 H         1 UNK         0.0600 
    149 H149        0.5845  -20.4992  -43.7132 H         1 UNK         0.3000 
    150 H150       -2.8313  -21.1684  -44.6578 H         1 UNK         0.0600 
    151 H151       -2.6099  -21.4833  -42.2030 H         1 UNK         0.0600 
    152 H152       -3.1104  -19.8405  -42.5794 H         1 UNK         0.0600 
    153 H153       -1.4438  -20.1693  -42.1144 H         1 UNK         0.0600 
    154 H154       -1.3722  -18.7418  -44.1568 H         1 UNK         0.3000 
    155 H155       -0.4381  -18.1298  -47.5395 H         1 UNK         0.0600 
    156 H156       -2.6172  -16.8524  -45.8053 H         1 UNK         0.0600 
    157 H157       -1.6073  -15.9393  -46.9151 H         1 UNK         0.0600 
    158 H158       -2.6743  -17.1895  -47.5319 H         1 UNK         0.0600 
    159 H159       -0.1180  -16.6939  -45.0603 H         1 UNK         0.3000 
    160 H160        3.0522  -18.1035  -44.2180 H         1 UNK         0.0600 
    161 H161        2.2657  -15.3286  -45.2304 H         1 UNK         0.0600 
    162 H162        3.4016  -16.3786  -46.0698 H         1 UNK         0.0600 
    163 H163        3.7813  -15.7900  -44.4635 H         1 UNK         0.0600 
    164 H164        1.5666  -15.9854  -43.0296 H         1 UNK         0.3000 
    165 H165       -0.5920  -17.9590  -40.9777 H         1 UNK         0.0600 
    166 H166        0.4206  -16.4934  -39.2466 H         1 UNK         0.0600 
    167 H167        1.5356  -17.7695  -39.7090 H         1 UNK         0.0600 
    168 H168        1.7809  -16.1363  -40.3096 H         1 UNK         0.0600 
    169 H169       -0.2998  -15.1428  -41.3119 H         1 UNK         0.3000 
    170 H170       -2.2585  -14.5739  -44.0658 H         1 UNK         0.0600 
    171 H171       -3.7260  -14.7670  -41.3802 H         1 UNK         0.0600 
    172 H172       -4.1857  -13.7288  -42.7302 H         1 UNK         0.0600 
    173 H173       -4.2576  -15.4751  -42.9009 H         1 UNK         0.0600 
    174 H174       -1.7479  -13.2985  -41.4431 H         1 UNK         0.3000 
    175 H175       -0.0655  -10.8646  -42.4956 H         1 UNK         0.0600 
    176 H176        0.4934  -11.1639  -40.0746 H         1 UNK         0.0600 
    177 H177        0.1782  -12.8885  -40.2021 H         1 UNK         0.0600 
    178 H178       -1.1257  -11.7198  -40.4324 H         1 UNK         0.0600 
    179 H179        2.1472  -11.0244  -42.5576 H         1 UNK         0.3000 
    180 H180        4.2506  -11.9127  -41.6073 H         1 UNK         0.0600 
    181 H181        4.7013  -14.7305  -42.7256 H         1 UNK         0.0600 
    182 H182        4.7196  -14.2788  -41.0277 H         1 UNK         0.0600 
    183 H183        5.9502  -13.6521  -42.1139 H         1 UNK         0.0600 
    184 H184        3.8915  -12.7905  -44.4490 H         1 UNK         0.3000 
    185 H185        5.0570   -9.6347  -45.6042 H         1 UNK         0.0600 
    186 H186        6.9813  -11.1568  -45.8026 H         1 UNK         0.0600 
    187 H187        5.9348  -12.5072  -46.2058 H         1 UNK         0.0600 
    188 H188        6.0743  -11.1375  -47.3071 H         1 UNK         0.0600 
    189 H189        3.0806  -10.0630  -46.4612 H         1 UNK         0.3000 
    190 H190       -0.4439  -22.5792  -46.8334 H         1 UNK         0.3000 
    191 H191       -2.4447  -23.3854  -47.1612 H         1 UNK         0.0600 
    192 H192       -1.3632  -25.5943  -47.1509 H         1 UNK         0.0600 
    193 H193       -2.7402  -25.6048  -48.2408 H         1 UNK         0.0600 
    194 H194       -1.1118  -25.5227  -48.8897 H         1 UNK         0.0600 
    195 H195       -2.0140  -21.1940  -48.4155 H         1 UNK         0.3000 
    196 H196       -3.3173  -21.2546  -51.0864 H         1 UNK         0.0600 
    197 H197       -1.3178  -19.7557  -50.8166 H         1 UNK         0.0600 
    198 H198       -2.0823  -18.9515  -49.4567 H         1 UNK         0.0600 
    199 H199       -2.7798  -18.8150  -51.0625 H         1 UNK         0.0600 
    200 H200       -3.5758  -19.8603  -47.7874 H         1 UNK         0.3000 
    201 H201       -6.3129  -18.9451  -48.1142 H         1 UNK         0.0600 
    202 H202       -4.7975  -17.7504  -46.5980 H         1 UNK         0.0600 
    203 H203       -4.5118  -19.2102  -45.6447 H         1 UNK         0.0600 
    204 H204       -6.0956  -18.4476  -45.6531 H         1 UNK         0.0600 
    205 H205       -4.7917  -21.9076  -47.0849 H         1 UNK         0.3000 
    206 H206       -7.1124  -23.0638  -45.7456 H         1 UNK         0.0600 
    207 H207       -4.7510  -23.6151  -45.0833 H         1 UNK         0.0600 
    208 H208       -5.6645  -25.0410  -45.5506 H         1 UNK         0.0600 
    209 H209       -4.4908  -24.3581  -46.6622 H         1 UNK         0.0600 
    210 H210       -8.2831  -22.2793  -47.8395 H         1 UNK         0.3000 
    211 H211       -9.5666  -22.7091  -49.5988 H         1 UNK         0.0600 
    212 H212       -9.2871  -25.6496  -48.7824 H         1 UNK         0.0600 
    213 H213      -10.6001  -24.9486  -49.7200 H         1 UNK         0.0600 
    214 H214      -10.3903  -24.4921  -48.0392 H         1 UNK         0.0600 
    215 H215       -6.7021  -22.5958  -50.1720 H         1 UNK         0.3000 
    216 H216       -5.1720  -22.8634  -51.7296 H         1 UNK         0.0600 
    217 H217       -7.4942  -23.4583  -53.6444 H         1 UNK         0.0600 
    218 H218       -5.8938  -22.8904  -54.0925 H         1 UNK         0.0600 
    219 H219       -6.9601  -21.8470  -53.1702 H         1 UNK         0.0600 
    220 H220       -5.6017  -25.1403  -50.1059 H         1 UNK         0.3000 
    221 H221       -5.8539  -27.5547  -51.4887 H         1 UNK         0.0600 
    222 H222       -4.5837  -26.9326  -48.7792 H         1 UNK         0.0600 
    223 H223       -6.2507  -27.4082  -49.0969 H         1 UNK         0.0600 
    224 H224       -4.9504  -28.5566  -49.3481 H         1 UNK         0.0600 
    225 H225       -2.9783  -25.5741  -51.2776 H         1 UNK         0.3000 
    226 H226       -1.5591  -27.6483  -52.8837 H         1 UNK         0.0600 
    227 H227       -0.6247  -27.6676  -50.4968 H         1 UNK         0.0600 
    228 H228        0.5361  -27.3129  -51.7678 H         1 UNK         0.0600 
    229 H229       -0.0806  -26.0099  -50.7748 H         1 UNK         0.0600 
    230 H230       -1.5403  -24.1975  -51.7883 H         1 UNK         0.3000 
    231 H231       -0.2888  -23.3696  -54.3295 H         1 UNK         0.0600 
    232 H232       -1.0784  -21.8264  -51.8163 H         1 UNK         0.0600 
    233 H233       -0.2216  -21.1560  -53.2026 H         1 UNK         0.0600 
    234 H234        0.5321  -22.3984  -52.2199 H         1 UNK         0.0600 
    235 H235       -1.5487  -22.9530  -56.0361 H         1 UNK         0.3000 
    236 H236       -4.3284  -23.1128  -56.0760 H         1 UNK         0.0600 
    237 H237       -4.0691  -22.4066  -58.4638 H         1 UNK         0.0600 
    238 H238       -2.4148  -21.9012  -58.1420 H         1 UNK         0.0600 
    239 H239       -2.8654  -23.6026  -58.0142 H         1 UNK         0.0600 
    240 H240       -2.4357  -20.3289  -55.3354 H         1 UNK         0.3000 
    241 H241       -4.4217  -18.2973  -55.8502 H         1 UNK         0.0600 
    242 H242       -4.2872  -20.7435  -53.3518 H         1 UNK         0.3800 
    243 H243       -5.3832  -19.9274  -52.2589 H         1 UNK         0.3800 
    244 H244       -2.0877  -17.6420  -55.8275 H         1 UNK         0.0800 
    245 H245       -2.8936  -16.8369  -54.5085 H         1 UNK         0.0800 
    246 H246        0.5510  -17.2366  -54.4538 H         1 UNK         0.0800 
    247 H247       -0.6263  -16.2181  -53.6542 H         1 UNK         0.0800 
@<TRIPOS>BOND
     1    1    2 1    
     2    1  127 1    
     3    1  128 1    
     4    1  129 1    
     5    2    3 2    
     6    2    4 am   BACKBONE|DICT|INTERRES
     7    4    5 1    
     8    4  130 1    
     9    5    6 1    
    10    5   65 1    
    11    5  131 1    
    12    6    7 1    
    13    6  132 1    
    14    6  133 1    
    15    7    8 1    
    16    8    9 1    
    17    8  134 1    
    18    8  135 1    
    19    9   10 ar   
    20    9   14 ar   
    21   10   11 ar   
    22   10  136 1    
    23   11   12 ar   
    24   11  126 1    
    25   12   13 ar   
    26   12  137 1    
    27   13   14 ar   
    28   13   15 1    
    29   14  138 1    
    30   15   16 1    
    31   15  139 1    
    32   15  140 1    
    33   16   17 1    
    34   17   18 1    
    35   17  141 1    
    36   17  142 1    
    37   18   19 1    
    38   18   67 1    
    39   18  143 1    
    40   19   20 am   BACKBONE|DICT|INTERRES
    41   19  144 1    
    42   20   21 2    
    43   20   22 1    
    44   22   23 1    
    45   22   24 1    
    46   22  145 1    
    47   23  146 1    
    48   23  147 1    
    49   23  148 1    
    50   24   25 am   BACKBONE|DICT|INTERRES
    51   24  149 1    
    52   25   26 2    
    53   25   27 1    
    54   27   28 1    
    55   27   29 1    
    56   27  150 1    
    57   28  151 1    
    58   28  152 1    
    59   28  153 1    
    60   29   30 am   BACKBONE|DICT|INTERRES
    61   29  154 1    
    62   30   31 2    
    63   30   32 1    
    64   32   33 1    
    65   32   34 1    
    66   32  155 1    
    67   33  156 1    
    68   33  157 1    
    69   33  158 1    
    70   34   35 am   BACKBONE|DICT|INTERRES
    71   34  159 1    
    72   35   36 2    
    73   35   37 1    
    74   37   38 1    
    75   37   39 1    
    76   37  160 1    
    77   38  161 1    
    78   38  162 1    
    79   38  163 1    
    80   39   40 am   BACKBONE|DICT|INTERRES
    81   39  164 1    
    82   40   41 2    
    83   40   42 1    
    84   42   43 1    
    85   42   44 1    
    86   42  165 1    
    87   43  166 1    
    88   43  167 1    
    89   43  168 1    
    90   44   45 am   BACKBONE|DICT|INTERRES
    91   44  169 1    
    92   45   46 2    
    93   45   47 1    
    94   47   48 1    
    95   47   49 1    
    96   47  170 1    
    97   48  171 1    
    98   48  172 1    
    99   48  173 1    
   100   49   50 am   BACKBONE|DICT|INTERRES
   101   49  174 1    
   102   50   51 2    
   103   50   52 1    
   104   52   53 1    
   105   52   54 1    
   106   52  175 1    
   107   53  176 1    
   108   53  177 1    
   109   53  178 1    
   110   54   55 am   BACKBONE|DICT|INTERRES
   111   54  179 1    
   112   55   56 2    
   113   55   57 1    
   114   57   58 1    
   115   57   59 1    
   116   57  180 1    
   117   58  181 1    
   118   58  182 1    
   119   58  183 1    
   120   59   60 am   BACKBONE|DICT|INTERRES
   121   59  184 1    
   122   60   61 2    
   123   60   62 1    
   124   62   63 1    
   125   62   64 1    
   126   62  185 1    
   127   63  186 1    
   128   63  187 1    
   129   63  188 1    
   130   64   65 am   BACKBONE|DICT|INTERRES
   131   64  189 1    
   132   65   66 2    
   133   67   68 2    
   134   67   69 am   BACKBONE|DICT|INTERRES
   135   69   70 1    
   136   69  190 1    
   137   70   71 1    
   138   70   72 1    
   139   70  191 1    
   140   71  192 1    
   141   71  193 1    
   142   71  194 1    
   143   72   73 2    
   144   72   74 am   BACKBONE|DICT|INTERRES
   145   74   75 1    
   146   74  195 1    
   147   75   76 1    
   148   75   77 1    
   149   75  196 1    
   150   76  197 1    
   151   76  198 1    
   152   76  199 1    
   153   77   78 2    
   154   77   79 am   BACKBONE|DICT|INTERRES
   155   79   80 1    
   156   79  200 1    
   157   80   81 1    
   158   80   82 1    
   159   80  201 1    
   160   81  202 1    
   161   81  203 1    
   162   81  204 1    
   163   82   83 2    
   164   82   84 am   BACKBONE|DICT|INTERRES
   165   84   85 1    
   166   84  205 1    
   167   85   86 1    
   168   85   87 1    
   169   85  206 1    
   170   86  207 1    
   171   86  208 1    
   172   86  209 1    
   173   87   88 2    
   174   87   89 am   BACKBONE|DICT|INTERRES
   175   89   90 1    
   176   89  210 1    
   177   90   91 1    
   178   90   92 1    
   179   90  211 1    
   180   91  212 1    
   181   91  213 1    
   182   91  214 1    
   183   92   93 2    
   184   92   94 am   BACKBONE|DICT|INTERRES
   185   94   95 1    
   186   94  215 1    
   187   95   96 1    
   188   95   97 1    
   189   95  216 1    
   190   96  217 1    
   191   96  218 1    
   192   96  219 1    
   193   97   98 2    
   194   97   99 am   BACKBONE|DICT|INTERRES
   195   99  100 1    
   196   99  220 1    
   197  100  101 1    
   198  100  102 1    
   199  100  221 1    
   200  101  222 1    
   201  101  223 1    
   202  101  224 1    
   203  102  103 2    
   204  102  104 am   BACKBONE|DICT|INTERRES
   205  104  105 1    
   206  104  225 1    
   207  105  106 1    
   208  105  107 1    
   209  105  226 1    
   210  106  227 1    
   211  106  228 1    
   212  106  229 1    
   213  107  108 2    
   214  107  109 am   BACKBONE|DICT|INTERRES
   215  109  110 1    
   216  109  230 1    
   217  110  111 1    
   218  110  112 1    
   219  110  231 1    
   220  111  232 1    
   221  111  233 1    
   222  111  234 1    
   223  112  113 2    
   224  112  114 am   BACKBONE|DICT|INTERRES
   225  114  115 1    
   226  114  235 1    
   227  115  116 1    
   228  115  117 1    
   229  115  236 1    
   230  116  237 1    
   231  116  238 1    
   232  116  239 1    
   233  117  118 2    
   234  117  119 am   BACKBONE|DICT|INTERRES
   235  119  120 1    
   236  119  240 1    
   237  120  121 1    
   238  120  124 1    
   239  120  241 1    
   240  121  122 am   BACKBONE|DICT|INTERRES
   241  121  123 2    
   242  122  242 1    
   243  122  243 1    
   244  124  125 1    
   245  124  244 1    
   246  124  245 1    
   247  125  126 1    
   248  126  246 1    
   249  126  247 1    
@<TRIPOS>SUBSTRUCTURE
     1 UNK         1 GROUP             0       ****    0 ROOT    
