@<TRIPOS>MOLECULE
3R540
247   249    1
SMALL
USER_CHARGES


@<TRIPOS>ATOM
      1 CA          0.5731  -10.8662  -49.3482 C.3       0 UNK        -0.1800 
      2 C          -0.3511  -11.7030  -50.2303 C.2       0 UNK         0.5000 
      3 O          -1.1820  -11.1392  -50.9387 O.2       0 UNK        -0.5000 
      4 N          -0.2516  -13.0402  -50.2290 N.am      1 UNK        -0.5000 
      5 CA          0.6632  -13.8613  -49.4197 C.3       1 UNK         0.1400 
      6 C6          0.9639  -15.2168  -50.1157 C.3       23 UNK        -0.0398 
      7 S7          2.7339  -15.6582  -50.0565 S.3       23 UNK        -0.2404 
      8 C8          3.0804  -16.0289  -51.8064 C.3       23 UNK        -0.0205 
      9 C9          2.4632  -17.3525  -52.2363 C.ar      23 UNK        -0.0193 
     10 C10         1.2436  -17.3829  -52.9186 C.ar      23 UNK        -0.1150 
     11 C11         0.6791  -18.6002  -53.3105 C.ar      23 UNK        -0.0193 
     12 C12         1.3457  -19.7950  -53.0209 C.ar      23 UNK        -0.1150 
     13 C13         2.5648  -19.7776  -52.3369 C.ar      23 UNK        -0.0193 
     14 C14         3.1209  -18.5525  -51.9558 C.ar      23 UNK        -0.1150 
     15 C15         3.2926  -21.0773  -52.0193 C.3       23 UNK        -0.0205 
     16 S16         2.5133  -22.0186  -50.6653 S.3       23 UNK        -0.2404 
     17 C17         2.5546  -20.8337  -49.2766 C.3       23 UNK        -0.0398 
     18 CA          1.1347  -20.5519  -48.7294 C.3       11 UNK         0.1400 
     19 N           0.5815  -21.7286  -48.0505 N.am      11 UNK        -0.5000 
     20 C          -0.6373  -21.8362  -47.5055 C.2       10 UNK         0.5000 
     21 O          -1.4616  -20.9185  -47.4928 O.2       10 UNK        -0.5000 
     22 CA         -0.9910  -23.1878  -46.8450 C.3       10 UNK         0.1400 
     23 CB          0.1807  -24.1938  -46.7889 C.3       10 UNK        -0.1800 
     24 N          -1.5719  -23.0218  -45.5095 N.am      10 UNK        -0.5000 
     25 C          -1.0332  -22.3679  -44.4698 C.2       9 UNK         0.5000 
     26 O           0.0314  -21.7464  -44.5301 O.2       9 UNK        -0.5000 
     27 CA         -1.8441  -22.3888  -43.1542 C.3       9 UNK         0.1400 
     28 CB         -2.6312  -23.7004  -42.9335 C.3       9 UNK        -0.1800 
     29 N          -1.0245  -22.0677  -41.9826 N.am      9 UNK        -0.5000 
     30 C           0.0132  -22.7637  -41.4903 C.2       8 UNK         0.5000 
     31 O           0.3788  -23.8548  -41.9306 O.2       8 UNK        -0.5000 
     32 CA          0.7873  -22.1434  -40.3066 C.3       8 UNK         0.1400 
     33 CB          2.2004  -21.7304  -40.7498 C.3       8 UNK        -0.1800 
     34 N           0.1164  -20.9791  -39.7234 N.am      8 UNK        -0.5000 
     35 C          -0.9223  -21.0407  -38.8758 C.2       7 UNK         0.5000 
     36 O          -1.3679  -22.0965  -38.4251 O.2       7 UNK        -0.5000 
     37 CA         -1.6008  -19.7091  -38.4829 C.3       7 UNK         0.1400 
     38 CB         -1.0811  -19.2242  -37.1210 C.3       7 UNK        -0.1800 
     39 N          -1.4195  -18.6381  -39.4663 N.am      7 UNK        -0.5000 
     40 C          -1.8348  -18.6763  -40.7400 C.2       6 UNK         0.5000 
     41 O          -2.5180  -19.5899  -41.2010 O.2       6 UNK        -0.5000 
     42 CA         -1.3578  -17.5495  -41.6775 C.3       6 UNK         0.1400 
     43 CB         -2.4860  -16.5408  -41.9361 C.3       6 UNK        -0.1800 
     44 N          -0.1616  -16.8251  -41.2340 N.am      6 UNK        -0.5000 
     45 C           1.0363  -17.3560  -40.9591 C.2       5 UNK         0.5000 
     46 O           1.2594  -18.5670  -40.9787 O.2       5 UNK        -0.5000 
     47 CA          2.1638  -16.3624  -40.6058 C.3       5 UNK         0.1400 
     48 CB          3.4034  -17.0698  -40.0293 C.3       5 UNK        -0.1800 
     49 N           2.5796  -15.5572  -41.7565 N.am      5 UNK        -0.5000 
     50 C           1.8714  -14.5702  -42.3215 C.2       4 UNK         0.5000 
     51 O           0.7664  -14.2169  -41.9005 O.2       4 UNK        -0.5000 
     52 CA          2.5250  -13.8596  -43.5310 C.3       4 UNK         0.1400 
     53 CB          3.1556  -14.8510  -44.5256 C.3       4 UNK        -0.1800 
     54 N           1.5758  -13.0214  -44.2625 N.am      4 UNK        -0.5000 
     55 C           1.1270  -11.8232  -43.8612 C.2       3 UNK         0.5000 
     56 O           1.5635  -11.2297  -42.8734 O.2       3 UNK        -0.5000 
     57 CA          0.0157  -11.1592  -44.7038 C.3       3 UNK         0.1400 
     58 CB          0.5713   -9.9478  -45.4701 C.3       3 UNK        -0.1800 
     59 N          -0.6165  -12.0674  -45.6627 N.am      3 UNK        -0.5000 
     60 C          -1.4464  -13.0733  -45.3546 C.2       2 UNK         0.5000 
     61 O          -1.8608  -13.2854  -44.2155 O.2       2 UNK        -0.5000 
     62 CA         -1.8993  -13.9936  -46.5088 C.3       2 UNK         0.1400 
     63 CB         -3.3964  -13.7933  -46.7905 C.3       2 UNK        -0.1800 
     64 N          -1.1664  -13.8251  -47.7696 N.am      2 UNK        -0.5000 
     65 C           0.1372  -14.0697  -47.9790 C.2       1 UNK         0.5000 
     66 O           0.9173  -14.3954  -47.0858 O.2       1 UNK        -0.5000 
     67 C           1.1404  -19.2918  -47.8430 C.2       11 UNK         0.5000 
     68 O           0.8974  -18.2028  -48.3562 O.2       11 UNK        -0.5000 
     69 N           1.3628  -19.4548  -46.5307 N.am      12 UNK        -0.5000 
     70 CA          1.3823  -18.3510  -45.5686 C.3       12 UNK         0.1400 
     71 CB          2.0464  -18.8227  -44.2675 C.3       12 UNK        -0.1800 
     72 C          -0.0115  -17.7533  -45.2912 C.2       12 UNK         0.5000 
     73 O          -0.0956  -16.6139  -44.8373 O.2       12 UNK        -0.5000 
     74 N          -1.0738  -18.5217  -45.5669 N.am      13 UNK        -0.5000 
     75 CA         -2.4655  -18.0743  -45.5013 C.3       13 UNK         0.1400 
     76 CB         -3.3059  -19.1866  -44.8565 C.3       13 UNK        -0.1800 
     77 C          -3.0307  -17.7251  -46.8903 C.2       13 UNK         0.5000 
     78 O          -4.1225  -17.1620  -46.9611 O.2       13 UNK        -0.5000 
     79 N          -2.3022  -18.0896  -47.9575 N.am      14 UNK        -0.5000 
     80 CA         -2.7032  -18.0590  -49.3678 C.3       14 UNK         0.1400 
     81 CB         -2.8318  -16.6043  -49.8664 C.3       14 UNK        -0.1800 
     82 C          -3.9746  -18.9000  -49.6252 C.2       14 UNK         0.5000 
     83 O          -4.8690  -18.4680  -50.3556 O.2       14 UNK        -0.5000 
     84 N          -4.0543  -20.0673  -48.9745 N.am      15 UNK        -0.5000 
     85 CA         -5.2527  -20.8972  -48.8957 C.3       15 UNK         0.1400 
     86 CB         -6.1482  -20.3724  -47.7545 C.3       15 UNK        -0.1800 
     87 C          -4.8670  -22.3705  -48.6949 C.2       15 UNK         0.5000 
     88 O          -3.6879  -22.7168  -48.7860 O.2       15 UNK        -0.5000 
     89 N          -5.8703  -23.2212  -48.4338 N.am      16 UNK        -0.5000 
     90 CA         -5.7546  -24.6606  -48.1755 C.3       16 UNK         0.1400 
     91 CB         -5.1112  -24.9015  -46.7898 C.3       16 UNK        -0.1800 
     92 C          -5.0434  -25.3838  -49.3379 C.2       16 UNK         0.5000 
     93 O          -5.5565  -25.3659  -50.4570 O.2       16 UNK        -0.5000 
     94 N          -3.8613  -25.9564  -49.0771 N.am      17 UNK        -0.5000 
     95 CA         -3.0038  -26.6111  -50.0668 C.3       17 UNK         0.1400 
     96 CB         -1.8194  -27.2640  -49.3374 C.3       17 UNK        -0.1800 
     97 C          -2.4931  -25.6708  -51.1784 C.2       17 UNK         0.5000 
     98 O          -2.2051  -26.1445  -52.2779 O.2       17 UNK        -0.5000 
     99 N          -2.3961  -24.3659  -50.8863 N.am      18 UNK        -0.5000 
    100 CA        -1.9415  -23.3471  -51.8312 C.3       18 UNK         0.1400 
    101 CB        -1.2287  -22.2288  -51.0622 C.3       18 UNK        -0.1800 
    102 C         -3.0807  -22.7645  -52.6819 C.2       18 UNK         0.5000 
    103 O         -2.7889  -22.0774  -53.6593 O.2       18 UNK        -0.5000 
    104 N         -4.3487  -23.0415  -52.3355 N.am      19 UNK        -0.5000 
    105 CA        -5.5333  -22.4814  -52.9996 C.3       19 UNK         0.1400 
    106 CB        -6.8039  -22.9494  -52.2765 C.3       19 UNK        -0.1800 
    107 C         -5.6230  -22.8068  -54.5033 C.2       19 UNK         0.5000 
    108 O         -6.1285  -21.9888  -55.2718 O.2       19 UNK        -0.5000 
    109 N         -5.0844  -23.9674  -54.9012 N.am      20 UNK        -0.5000 
    110 CA        -4.9631  -24.4009  -56.2939 C.3       20 UNK         0.1400 
    111 CB        -4.5174  -25.8710  -56.3180 C.3       20 UNK        -0.1800 
    112 C         -4.0006  -23.5316  -57.1303 C.2       20 UNK         0.5000 
    113 O         -4.1743  -23.4464  -58.3467 O.2       20 UNK        -0.5000 
    114 N         -3.0151  -22.9047  -56.4735 N.am      21 UNK        -0.5000 
    115 CA        -2.0729  -21.9700  -57.0841 C.3       21 UNK         0.1400 
    116 CB        -0.6871  -22.1494  -56.4413 C.3       21 UNK        -0.1800 
    117 C         -2.5590  -20.5200  -56.9290 C.2       21 UNK         0.5000 
    118 O         -2.4792  -19.7498  -57.8867 O.2       21 UNK        -0.5000 
    119 N         -3.0381  -20.1716  -55.7272 N.am      22 UNK        -0.5000 
    120 CA        -3.4947  -18.8198  -55.3723 C.3       22 UNK         0.1400 
    121 C         -4.8451  -18.4070  -56.0252 C.2       22 UNK         0.5000 
    122 N         -5.7390  -19.3310  -56.3549 N.am      22 UNK        -0.7600 
    123 O         -5.0830  -17.2221  -56.2426 O.2       22 UNK        -0.5000 
    124 C124       -3.5579  -18.6131  -53.8355 C.3       23 UNK        -0.0398 
    125 S125       -2.0209  -18.8794  -52.8744 S.3       23 UNK        -0.2404 
    126 C126       -0.6515  -18.6211  -54.0435 C.3       23 UNK        -0.0205 
    127 H127        0.2601   -9.8218  -49.3497 H         1 UNK         0.0600 
    128 H128        1.5965  -10.9085  -49.7209 H         1 UNK         0.0600 
    129 H129        0.5616  -11.2104  -48.3162 H         1 UNK         0.0600 
    130 H130       -0.8682  -13.5573  -50.8396 H         1 UNK         0.3000 
    131 H131        1.6015  -13.3111  -49.3294 H         1 UNK         0.0600 
    132 H132        0.6627  -15.1723  -51.1617 H         1 UNK         0.0800 
    133 H133        0.3872  -16.0403  -49.6935 H         1 UNK         0.0800 
    134 H134        4.1614  -16.0713  -51.9475 H         1 UNK         0.0800 
    135 H135        2.7264  -15.2118  -52.4369 H         1 UNK         0.0800 
    136 H136        0.7295  -16.4596  -53.1443 H         1 UNK         0.1150 
    137 H137        0.9117  -20.7388  -53.3199 H         1 UNK         0.1150 
    138 H138        4.0651  -18.5298  -51.4298 H         1 UNK         0.1150 
    139 H139        3.3150  -21.7023  -52.9132 H         1 UNK         0.0800 
    140 H140        4.3345  -20.8816  -51.7613 H         1 UNK         0.0800 
    141 H141        3.0389  -19.9126  -49.6005 H         1 UNK         0.0800 
    142 H142        3.1956  -21.2396  -48.4922 H         1 UNK         0.0800 
    143 H143        0.4798  -20.3270  -49.5743 H         1 UNK         0.0600 
    144 H144        1.1889  -22.5339  -48.0129 H         1 UNK         0.3000 
    145 H145       -1.7639  -23.6386  -47.4648 H         1 UNK         0.0600 
    146 H146       -0.1365  -25.1320  -46.3333 H         1 UNK         0.0600 
    147 H147        0.5461  -24.4374  -47.7874 H         1 UNK         0.0600 
    148 H148        1.0193  -23.8137  -46.2038 H         1 UNK         0.0600 
    149 H149       -2.4722  -23.4566  -45.3745 H         1 UNK         0.3000 
    150 H150       -2.5736  -21.5839  -43.2317 H         1 UNK         0.0600 
    151 H151       -3.4216  -23.8216  -43.6747 H         1 UNK         0.0600 
    152 H152       -3.1129  -23.7076  -41.9556 H         1 UNK         0.0600 
    153 H153       -1.9857  -24.5775  -42.9922 H         1 UNK         0.0600 
    154 H154       -1.2502  -21.1827  -41.5443 H         1 UNK         0.3000 
    155 H155        0.8853  -22.9129  -39.5380 H         1 UNK         0.0600 
    156 H156        2.1699  -21.0150  -41.5725 H         1 UNK         0.0600 
    157 H157        2.7703  -22.5951  -41.0918 H         1 UNK         0.0600 
    158 H158        2.7575  -21.2766  -39.9300 H         1 UNK         0.0600 
    159 H159        0.4323  -20.0726  -40.0586 H         1 UNK         0.3000 
    160 H160       -2.6719  -19.9017  -38.3947 H         1 UNK         0.0600 
    161 H161       -0.0159  -18.9919  -37.1573 H         1 UNK         0.0600 
    162 H162       -1.2252  -19.9860  -36.3537 H         1 UNK         0.0600 
    163 H163       -1.6101  -18.3296  -36.7917 H         1 UNK         0.0600 
    164 H164       -0.8568  -17.8515  -39.1783 H         1 UNK         0.3000 
    165 H165       -1.1057  -18.0281  -42.6237 H         1 UNK         0.0600 
    166 H166       -2.1913  -15.8076  -42.6880 H         1 UNK         0.0600 
    167 H167       -3.3833  -17.0398  -42.3045 H         1 UNK         0.0600 
    168 H168       -2.7569  -16.0007  -41.0284 H         1 UNK         0.0600 
    169 H169       -0.2089  -15.8112  -41.2783 H         1 UNK         0.3000 
    170 H170        1.7774  -15.6922  -39.8351 H         1 UNK         0.0600 
    171 H171        3.8621  -17.7390  -40.7585 H         1 UNK         0.0600 
    172 H172        4.1581  -16.3494  -39.7133 H         1 UNK         0.0600 
    173 H173        3.1414  -17.6676  -39.1552 H         1 UNK         0.0600 
    174 H174        3.4712  -15.8002  -42.1622 H         1 UNK         0.3000 
    175 H175        3.3194  -13.2212  -43.1395 H         1 UNK         0.0600 
    176 H176        2.4131  -15.5500  -44.9069 H         1 UNK         0.0600 
    177 H177        3.5845  -14.3290  -45.3813 H         1 UNK         0.0600 
    178 H178        3.9598  -15.4306  -44.0721 H         1 UNK         0.0600 
    179 H179        1.1538  -13.4454  -45.0799 H         1 UNK         0.3000 
    180 H180       -0.7512  -10.8054  -44.0118 H         1 UNK         0.0600 
    181 H181       -0.2094   -9.4499  -46.0456 H         1 UNK         0.0600 
    182 H182        1.3664  -10.2370  -46.1583 H         1 UNK         0.0600 
    183 H183        0.9871   -9.2093  -44.7835 H         1 UNK         0.0600 
    184 H184       -0.3384  -11.9699  -46.6261 H         1 UNK         0.3000 
    185 H185       -1.7480  -15.0211  -46.1766 H         1 UNK         0.0600 
    186 H186       -3.7498  -14.4751  -47.5635 H         1 UNK         0.0600 
    187 H187       -3.9923  -13.9857  -45.8974 H         1 UNK         0.0600 
    188 H188       -3.6112  -12.7750  -47.1171 H         1 UNK         0.0600 
    189 H189       -1.7171  -13.5230  -48.5602 H         1 UNK         0.3000 
    190 H190        1.4804  -20.3873  -46.1573 H         1 UNK         0.3000 
    191 H191        1.9987  -17.5562  -45.9931 H         1 UNK         0.0600 
    192 H192        2.1980  -17.9831  -43.5898 H         1 UNK         0.0600 
    193 H193        3.0249  -19.2643  -44.4557 H         1 UNK         0.0600 
    194 H194        1.4369  -19.5611  -43.7451 H         1 UNK         0.0600 
    195 H195       -0.9183  -19.4534  -45.9334 H         1 UNK         0.3000 
    196 H196       -2.5519  -17.1796  -44.8820 H         1 UNK         0.0600 
    197 H197       -3.2472  -20.1174  -45.4223 H         1 UNK         0.0600 
    198 H198       -2.9713  -19.3835  -43.8400 H         1 UNK         0.0600 
    199 H199       -4.3575  -18.9029  -44.7984 H         1 UNK         0.0600 
    200 H200       -1.4228  -18.5536  -47.7769 H         1 UNK         0.3000 
    201 H201       -1.8928  -18.5353  -49.9206 H         1 UNK         0.0600 
    202 H202       -3.6912  -16.1001  -49.4245 H         1 UNK         0.0600 
    203 H203       -2.9579  -16.5743  -50.9491 H         1 UNK         0.0600 
    204 H204       -1.9445  -16.0227  -49.6254 H         1 UNK         0.0600 
    205 H205       -3.2532  -20.4101  -48.4509 H         1 UNK         0.3000 
    206 H206       -5.7968  -20.8368  -49.8402 H         1 UNK         0.0600 
    207 H207       -7.1009  -20.9006  -47.7119 H         1 UNK         0.0600 
    208 H208       -5.6626  -20.4834  -46.7839 H         1 UNK         0.0600 
    209 H209       -6.3796  -19.3152  -47.8875 H         1 UNK         0.0600 
    210 H210       -6.8122  -22.8575  -48.4131 H         1 UNK         0.3000 
    211 H211       -6.7700  -25.0583  -48.1441 H         1 UNK         0.0600 
    212 H212       -5.0754  -25.9651  -46.5503 H         1 UNK         0.0600 
    213 H213       -5.6938  -24.4191  -46.0049 H         1 UNK         0.0600 
    214 H214       -4.0962  -24.5090  -46.7296 H         1 UNK         0.0600 
    215 H215       -3.5063  -25.9111  -48.1338 H         1 UNK         0.3000 
    216 H216       -3.5889  -27.3980  -50.5473 H         1 UNK         0.0600 
    217 H217       -1.2111  -26.5240  -48.8155 H         1 UNK         0.0600 
    218 H218       -1.1686  -27.7879  -50.0389 H         1 UNK         0.0600 
    219 H219       -2.1607  -27.9961  -48.6053 H         1 UNK         0.0600 
    220 H220       -2.7097  -24.0290  -49.9815 H         1 UNK         0.3000 
    221 H221       -1.2158  -23.7869  -52.5186 H         1 UNK         0.0600 
    222 H222       -0.4164  -22.6357  -50.4633 H         1 UNK         0.0600 
    223 H223       -1.9048  -21.6880  -50.4006 H         1 UNK         0.0600 
    224 H224       -0.7929  -21.5000  -51.7455 H         1 UNK         0.0600 
    225 H225       -4.5162  -23.6678  -51.5586 H         1 UNK         0.3000 
    226 H226       -5.4722  -21.3956  -52.9052 H         1 UNK         0.0600 
    227 H227       -6.9338  -24.0295  -52.3526 H         1 UNK         0.0600 
    228 H228       -6.7821  -22.6880  -51.2195 H         1 UNK         0.0600 
    229 H229       -7.6910  -22.4831  -52.7072 H         1 UNK         0.0600 
    230 H230       -4.6844  -24.5731  -54.1993 H         1 UNK         0.3000 
    231 H231       -5.9508  -24.3340  -56.7549 H         1 UNK         0.0600 
    232 H232       -3.5437  -26.0036  -55.8443 H         1 UNK         0.0600 
    233 H233       -4.4378  -26.2388  -57.3418 H         1 UNK         0.0600 
    234 H234       -5.2333  -26.5092  -55.7996 H         1 UNK         0.0600 
    235 H235       -2.9779  -22.9757  -55.4635 H         1 UNK         0.3000 
    236 H236       -1.9746  -22.1809  -58.1511 H         1 UNK         0.0600 
    237 H237       -0.3132  -23.1621  -56.5920 H         1 UNK         0.0600 
    238 H238        0.0386  -21.4655  -56.8830 H         1 UNK         0.0600 
    239 H239       -0.7057  -21.9574  -55.3680 H         1 UNK         0.0600 
    240 H240       -3.0225  -20.8532  -54.9718 H         1 UNK         0.3000 
    241 H241       -2.7600  -18.1177  -55.7686 H         1 UNK         0.0600 
    242 H242       -6.6041  -19.0441  -56.7835 H         1 UNK         0.3800 
    243 H243       -5.6102  -20.3076  -56.1095 H         1 UNK         0.3800 
    244 H244       -4.3200  -19.2654  -53.4067 H         1 UNK         0.0800 
    245 H245       -3.8857  -17.5960  -53.6131 H         1 UNK         0.0800 
    246 H246       -0.6388  -19.4146  -54.7898 H         1 UNK         0.0800 
    247 H247       -0.7957  -17.6817  -54.5786 H         1 UNK         0.0800 
@<TRIPOS>BOND
     1    1    2 1    
     2    1  127 1    
     3    1  128 1    
     4    1  129 1    
     5    2    3 2    
     6    2    4 am   BACKBONE|DICT|INTERRES
     7    4    5 1    
     8    4  130 1    
     9    5    6 1    
    10    5   65 1    
    11    5  131 1    
    12    6    7 1    
    13    6  132 1    
    14    6  133 1    
    15    7    8 1    
    16    8    9 1    
    17    8  134 1    
    18    8  135 1    
    19    9   10 ar   
    20    9   14 ar   
    21   10   11 ar   
    22   10  136 1    
    23   11   12 ar   
    24   11  126 1    
    25   12   13 ar   
    26   12  137 1    
    27   13   14 ar   
    28   13   15 1    
    29   14  138 1    
    30   15   16 1    
    31   15  139 1    
    32   15  140 1    
    33   16   17 1    
    34   17   18 1    
    35   17  141 1    
    36   17  142 1    
    37   18   19 1    
    38   18   67 1    
    39   18  143 1    
    40   19   20 am   BACKBONE|DICT|INTERRES
    41   19  144 1    
    42   20   21 2    
    43   20   22 1    
    44   22   23 1    
    45   22   24 1    
    46   22  145 1    
    47   23  146 1    
    48   23  147 1    
    49   23  148 1    
    50   24   25 am   BACKBONE|DICT|INTERRES
    51   24  149 1    
    52   25   26 2    
    53   25   27 1    
    54   27   28 1    
    55   27   29 1    
    56   27  150 1    
    57   28  151 1    
    58   28  152 1    
    59   28  153 1    
    60   29   30 am   BACKBONE|DICT|INTERRES
    61   29  154 1    
    62   30   31 2    
    63   30   32 1    
    64   32   33 1    
    65   32   34 1    
    66   32  155 1    
    67   33  156 1    
    68   33  157 1    
    69   33  158 1    
    70   34   35 am   BACKBONE|DICT|INTERRES
    71   34  159 1    
    72   35   36 2    
    73   35   37 1    
    74   37   38 1    
    75   37   39 1    
    76   37  160 1    
    77   38  161 1    
    78   38  162 1    
    79   38  163 1    
    80   39   40 am   BACKBONE|DICT|INTERRES
    81   39  164 1    
    82   40   41 2    
    83   40   42 1    
    84   42   43 1    
    85   42   44 1    
    86   42  165 1    
    87   43  166 1    
    88   43  167 1    
    89   43  168 1    
    90   44   45 am   BACKBONE|DICT|INTERRES
    91   44  169 1    
    92   45   46 2    
    93   45   47 1    
    94   47   48 1    
    95   47   49 1    
    96   47  170 1    
    97   48  171 1    
    98   48  172 1    
    99   48  173 1    
   100   49   50 am   BACKBONE|DICT|INTERRES
   101   49  174 1    
   102   50   51 2    
   103   50   52 1    
   104   52   53 1    
   105   52   54 1    
   106   52  175 1    
   107   53  176 1    
   108   53  177 1    
   109   53  178 1    
   110   54   55 am   BACKBONE|DICT|INTERRES
   111   54  179 1    
   112   55   56 2    
   113   55   57 1    
   114   57   58 1    
   115   57   59 1    
   116   57  180 1    
   117   58  181 1    
   118   58  182 1    
   119   58  183 1    
   120   59   60 am   BACKBONE|DICT|INTERRES
   121   59  184 1    
   122   60   61 2    
   123   60   62 1    
   124   62   63 1    
   125   62   64 1    
   126   62  185 1    
   127   63  186 1    
   128   63  187 1    
   129   63  188 1    
   130   64   65 am   BACKBONE|DICT|INTERRES
   131   64  189 1    
   132   65   66 2    
   133   67   68 2    
   134   67   69 am   BACKBONE|DICT|INTERRES
   135   69   70 1    
   136   69  190 1    
   137   70   71 1    
   138   70   72 1    
   139   70  191 1    
   140   71  192 1    
   141   71  193 1    
   142   71  194 1    
   143   72   73 2    
   144   72   74 am   BACKBONE|DICT|INTERRES
   145   74   75 1    
   146   74  195 1    
   147   75   76 1    
   148   75   77 1    
   149   75  196 1    
   150   76  197 1    
   151   76  198 1    
   152   76  199 1    
   153   77   78 2    
   154   77   79 am   BACKBONE|DICT|INTERRES
   155   79   80 1    
   156   79  200 1    
   157   80   81 1    
   158   80   82 1    
   159   80  201 1    
   160   81  202 1    
   161   81  203 1    
   162   81  204 1    
   163   82   83 2    
   164   82   84 am   BACKBONE|DICT|INTERRES
   165   84   85 1    
   166   84  205 1    
   167   85   86 1    
   168   85   87 1    
   169   85  206 1    
   170   86  207 1    
   171   86  208 1    
   172   86  209 1    
   173   87   88 2    
   174   87   89 am   BACKBONE|DICT|INTERRES
   175   89   90 1    
   176   89  210 1    
   177   90   91 1    
   178   90   92 1    
   179   90  211 1    
   180   91  212 1    
   181   91  213 1    
   182   91  214 1    
   183   92   93 2    
   184   92   94 am   BACKBONE|DICT|INTERRES
   185   94   95 1    
   186   94  215 1    
   187   95   96 1    
   188   95   97 1    
   189   95  216 1    
   190   96  217 1    
   191   96  218 1    
   192   96  219 1    
   193   97   98 2    
   194   97   99 am   BACKBONE|DICT|INTERRES
   195   99  100 1    
   196   99  220 1    
   197  100  101 1    
   198  100  102 1    
   199  100  221 1    
   200  101  222 1    
   201  101  223 1    
   202  101  224 1    
   203  102  103 2    
   204  102  104 am   BACKBONE|DICT|INTERRES
   205  104  105 1    
   206  104  225 1    
   207  105  106 1    
   208  105  107 1    
   209  105  226 1    
   210  106  227 1    
   211  106  228 1    
   212  106  229 1    
   213  107  108 2    
   214  107  109 am   BACKBONE|DICT|INTERRES
   215  109  110 1    
   216  109  230 1    
   217  110  111 1    
   218  110  112 1    
   219  110  231 1    
   220  111  232 1    
   221  111  233 1    
   222  111  234 1    
   223  112  113 2    
   224  112  114 am   BACKBONE|DICT|INTERRES
   225  114  115 1    
   226  114  235 1    
   227  115  116 1    
   228  115  117 1    
   229  115  236 1    
   230  116  237 1    
   231  116  238 1    
   232  116  239 1    
   233  117  118 2    
   234  117  119 am   BACKBONE|DICT|INTERRES
   235  119  120 1    
   236  119  240 1    
   237  120  121 1    
   238  120  124 1    
   239  120  241 1    
   240  121  122 am   BACKBONE|DICT|INTERRES
   241  121  123 2    
   242  122  242 1    
   243  122  243 1    
   244  124  125 1    
   245  124  244 1    
   246  124  245 1    
   247  125  126 1    
   248  126  246 1    
   249  126  247 1    
@<TRIPOS>SUBSTRUCTURE
     1 UNK         1 GROUP             0       ****    0 ROOT    
