@<TRIPOS>MOLECULE
3R540
247   249    1
SMALL
USER_CHARGES


@<TRIPOS>ATOM
      1 CA          8.5226  -15.1248  -47.0543 C.3       0 UNK        -0.1800 
      2 C           7.3098  -14.2550  -46.7541 C.2       0 UNK         0.5000 
      3 O           7.4616  -13.0633  -46.4831 O.2       0 UNK        -0.5000 
      4 N           6.1110  -14.8480  -46.7903 N.am      1 UNK        -0.5000 
      5 CA          4.8254  -14.1694  -46.6069 C.3       1 UNK         0.1400 
      6 C6          3.6669  -15.1585  -46.2935 C.3       23 UNK        -0.0398 
      7 S7          3.6643  -16.7318  -47.2247 S.3       23 UNK        -0.2404 
      8 C8          3.0765  -16.2286  -48.8802 C.3       23 UNK        -0.0205 
      9 C9          2.3955  -17.3514  -49.6608 C.ar      23 UNK        -0.0193 
     10 C10         1.3212  -17.0504  -50.5028 C.ar      23 UNK        -0.1150 
     11 C11         0.6694  -18.0537  -51.2260 C.ar      23 UNK        -0.0193 
     12 C12         1.0999  -19.3789  -51.0898 C.ar      23 UNK        -0.1150 
     13 C13         2.1755  -19.7035  -50.2554 C.ar      23 UNK        -0.0193 
     14 C14         2.8333  -18.6765  -49.5691 C.ar      23 UNK        -0.1150 
     15 C15         2.6145  -21.1651  -50.1369 C.3       23 UNK        -0.0205 
     16 S16         3.4488  -21.6236  -48.5690 S.3       23 UNK        -0.2404 
     17 C17         2.1979  -21.1767  -47.3118 C.3       23 UNK        -0.0398 
     18 CA          1.3616  -22.3607  -46.7670 C.3       11 UNK         0.1400 
     19 N           0.4728  -21.9215  -45.6876 N.am      11 UNK        -0.5000 
     20 C          -0.3356  -22.7107  -44.9663 C.2       10 UNK         0.5000 
     21 O          -0.3763  -23.9358  -45.0764 O.2       10 UNK        -0.5000 
     22 CA         -1.3011  -22.0075  -43.9945 C.3       10 UNK         0.1400 
     23 CB         -0.5837  -21.6236  -42.6922 C.3       10 UNK        -0.1800 
     24 N          -1.9371  -20.8254  -44.5820 N.am      10 UNK        -0.5000 
     25 C          -2.7600  -20.8577  -45.6416 C.2       9 UNK         0.5000 
     26 O          -3.0955  -21.8935  -46.2127 O.2       9 UNK        -0.5000 
     27 CA         -3.2605  -19.5100  -46.1889 C.3       9 UNK         0.1400 
     28 CB         -4.4254  -18.9751  -45.3440 C.3       9 UNK        -0.1800 
     29 N          -2.2009  -18.5069  -46.2655 N.am      9 UNK        -0.5000 
     30 C          -1.1080  -18.6171  -47.0328 C.2       8 UNK         0.5000 
     31 O          -0.9006  -19.5652  -47.7907 O.2       8 UNK        -0.5000 
     32 CA         -0.0439  -17.5151  -46.8832 C.3       8 UNK         0.1400 
     33 CB         -0.4672  -16.2270  -47.6016 C.3       8 UNK        -0.1800 
     34 N           0.2530  -17.2099  -45.4847 N.am      8 UNK        -0.5000 
     35 C           0.7593  -18.0846  -44.6051 C.2       7 UNK         0.5000 
     36 O           1.0817  -19.2374  -44.8892 O.2       7 UNK        -0.5000 
     37 CA          0.8722  -17.6068  -43.1486 C.3       7 UNK         0.1400 
     38 CB          2.1535  -16.7886  -42.9340 C.3       7 UNK        -0.1800 
     39 N          -0.2922  -16.8194  -42.7437 N.am      7 UNK        -0.5000 
     40 C          -1.5185  -17.3283  -42.5577 C.2       6 UNK         0.5000 
     41 O          -1.7889  -18.5235  -42.6742 O.2       6 UNK        -0.5000 
     42 CA         -2.6374  -16.3234  -42.2266 C.3       6 UNK         0.1400 
     43 CB         -2.6144  -15.9543  -40.7359 C.3       6 UNK        -0.1800 
     44 N          -2.5518  -15.1039  -43.0323 N.am      6 UNK        -0.5000 
     45 C          -2.7261  -15.0669  -44.3610 C.2       5 UNK         0.5000 
     46 O          -3.0181  -16.0533  -45.0329 O.2       5 UNK        -0.5000 
     47 CA         -2.4960  -13.7149  -45.0620 C.3       5 UNK         0.1400 
     48 CB         -3.7996  -12.9050  -45.1107 C.3       5 UNK        -0.1800 
     49 N          -1.4458  -12.9007  -44.4460 N.am      5 UNK        -0.5000 
     50 C          -0.1649  -13.2607  -44.2998 C.2       4 UNK         0.5000 
     51 O           0.2845  -14.3499  -44.6632 O.2       4 UNK        -0.5000 
     52 CA          0.7601  -12.2152  -43.6453 C.3       4 UNK         0.1400 
     53 CB          2.0562  -12.8442  -43.1031 C.3       4 UNK        -0.1800 
     54 N           1.1130  -11.1502  -44.5825 N.am      4 UNK        -0.5000 
     55 C           0.3006  -10.1803  -45.0257 C.2       3 UNK         0.5000 
     56 O          -0.8591  -10.0300  -44.6380 O.2       3 UNK        -0.5000 
     57 CA          0.8844   -9.2163  -46.0782 C.3       3 UNK         0.1400 
     58 CB          1.3874   -7.9297  -45.4059 C.3       3 UNK        -0.1800 
     59 N           1.9804   -9.8108  -46.8515 N.am      3 UNK        -0.5000 
     60 C           1.8152  -10.7026  -47.8391 C.2       2 UNK         0.5000 
     61 O           0.7182  -11.1098  -48.2204 O.2       2 UNK        -0.5000 
     62 CA          3.0952  -11.2801  -48.4559 C.3       2 UNK         0.1400 
     63 CB          4.1229  -10.1967  -48.8403 C.3       2 UNK        -0.1800 
     64 N           3.6616  -12.2219  -47.4969 N.am      2 UNK        -0.5000 
     65 C           4.4796  -13.2372  -47.7890 C.2       1 UNK         0.5000 
     66 O           4.9200  -13.4624  -48.9190 O.2       1 UNK        -0.5000 
     67 C           0.5700  -23.0665  -47.8852 C.2       11 UNK         0.5000 
     68 O           0.9075  -24.1898  -48.2605 O.2       11 UNK        -0.5000 
     69 N          -0.4894  -22.4089  -48.3732 N.am      12 UNK        -0.5000 
     70 CA         -1.3579  -22.9346  -49.4205 C.3       12 UNK         0.1400 
     71 CB         -2.3067  -21.8333  -49.8920 C.3       12 UNK        -0.1800 
     72 C          -2.1359  -24.1872  -48.9901 C.2       12 UNK         0.5000 
     73 O          -2.3177  -25.0855  -49.8110 O.2       12 UNK        -0.5000 
     74 N          -2.5758  -24.2421  -47.7264 N.am      13 UNK        -0.5000 
     75 CA         -3.2294  -25.4062  -47.1292 C.3       13 UNK         0.1400 
     76 CB         -3.8295  -25.0311  -45.7669 C.3       13 UNK        -0.1800 
     77 C          -2.2767  -26.6072  -47.0004 C.2       13 UNK         0.5000 
     78 O          -2.6719  -27.7242  -47.3326 O.2       13 UNK        -0.5000 
     79 N          -1.0276  -26.3566  -46.5802 N.am      14 UNK        -0.5000 
     80 CA          0.0440  -27.3556  -46.5155 C.3       14 UNK         0.1400 
     81 CB          1.2590  -26.7635  -45.7859 C.3       14 UNK        -0.1800 
     82 C           0.4444  -27.8931  -47.9038 C.2       14 UNK         0.5000 
     83 O           0.7406  -29.0810  -48.0353 O.2       14 UNK        -0.5000 
     84 N           0.3973  -27.0211  -48.9199 N.am      15 UNK        -0.5000 
     85 CA          0.5840  -27.3563  -50.3337 C.3       15 UNK         0.1400 
     86 CB          0.9199  -26.0684  -51.1034 C.3       15 UNK        -0.1800 
     87 C          -0.6327  -28.0656  -50.9706 C.2       15 UNK         0.5000 
     88 O          -0.5290  -28.5132  -52.1132 O.2       15 UNK        -0.5000 
     89 N          -1.7567  -28.1420  -50.2402 N.am      16 UNK        -0.5000 
     90 CA         -3.0535  -28.7091  -50.6291 C.3       16 UNK         0.1400 
     91 CB         -2.9367  -30.2208  -50.9156 C.3       16 UNK        -0.1800 
     92 C          -3.7582  -27.9313  -51.7623 C.2       16 UNK         0.5000 
     93 O          -4.5929  -28.4986  -52.4696 O.2       16 UNK        -0.5000 
     94 N          -3.4262  -26.6427  -51.9023 N.am      17 UNK        -0.5000 
     95 CA         -4.0380  -25.7127  -52.8479 C.3       17 UNK         0.1400 
     96 CB         -2.9551  -24.7637  -53.3881 C.3       17 UNK        -0.1800 
     97 C          -5.1685  -24.9182  -52.1740 C.2       17 UNK         0.5000 
     98 O          -6.2519  -24.7990  -52.7476 O.2       17 UNK        -0.5000 
     99 N          -4.8871  -24.4123  -50.9627 N.am      18 UNK        -0.5000 
    100 CA        -5.7369  -23.5652  -50.1185 C.3       18 UNK         0.1400 
    101 CB        -6.8324  -24.4286  -49.4545 C.3       18 UNK        -0.1800 
    102 C         -6.2666  -22.3172  -50.8679 C.2       18 UNK         0.5000 
    103 O         -5.4937  -21.6736  -51.5806 O.2       18 UNK        -0.5000 
    104 N         -7.5645  -22.0228  -50.7020 N.am      19 UNK        -0.5000 
    105 CA        -8.3620  -20.9798  -51.3563 C.3       19 UNK         0.1400 
    106 CB        -8.3165  -21.1338  -52.8918 C.3       19 UNK        -0.1800 
    107 C         -8.0218  -19.5362  -50.9341 C.2       19 UNK         0.5000 
    108 O         -6.9547  -19.2513  -50.3825 O.2       19 UNK        -0.5000 
    109 N         -8.9573  -18.6283  -51.2449 N.am      20 UNK        -0.5000 
    110 CA        -8.8806  -17.1860  -50.9871 C.3       20 UNK         0.1400 
    111 CB       -10.2694  -16.5706  -51.2217 C.3       20 UNK        -0.1800 
    112 C         -7.8120  -16.4501  -51.8224 C.2       20 UNK         0.5000 
    113 O         -7.5195  -15.2882  -51.5378 O.2       20 UNK        -0.5000 
    114 N         -7.2375  -17.1360  -52.8219 N.am      21 UNK        -0.5000 
    115 CA        -6.0909  -16.6865  -53.6127 C.3       21 UNK         0.1400 
    116 CB        -5.8331  -17.6999  -54.7384 C.3       21 UNK        -0.1800 
    117 C         -4.8177  -16.4839  -52.7663 C.2       21 UNK         0.5000 
    118 O         -4.0114  -15.6132  -53.0969 O.2       21 UNK        -0.5000 
    119 N         -4.6809  -17.2656  -51.6871 N.am      22 UNK        -0.5000 
    120 CA        -3.6373  -17.1074  -50.6647 C.3       22 UNK         0.1400 
    121 C         -4.2473  -16.8102  -49.2689 C.2       22 UNK         0.5000 
    122 N         -5.3789  -17.3980  -48.8933 N.am      22 UNK        -0.7600 
    123 O         -3.6968  -16.0115  -48.5197 O.2       22 UNK        -0.5000 
    124 C124       -2.6863  -18.3258  -50.5839 C.3       23 UNK        -0.0398 
    125 S125       -1.9022  -18.7685  -52.1718 S.3       23 UNK        -0.2404 
    126 C126       -0.4446  -17.6719  -52.2000 C.3       23 UNK        -0.0205 
    127 H127        8.2391  -16.1563  -47.2656 H         1 UNK         0.0600 
    128 H128        9.0580  -14.7355  -47.9202 H         1 UNK         0.0600 
    129 H129        9.2034  -15.1269  -46.2031 H         1 UNK         0.0600 
    130 H130        6.0427  -15.8237  -47.0439 H         1 UNK         0.3000 
    131 H131        4.9360  -13.5254  -45.7312 H         1 UNK         0.0600 
    132 H132        2.6865  -14.6858  -46.3817 H         1 UNK         0.0800 
    133 H133        3.7447  -15.4393  -45.2432 H         1 UNK         0.0800 
    134 H134        3.9259  -15.8725  -49.4633 H         1 UNK         0.0800 
    135 H135        2.3935  -15.3851  -48.7737 H         1 UNK         0.0800 
    136 H136        0.9978  -16.0238  -50.6046 H         1 UNK         0.1150 
    137 H137        0.6033  -20.1600  -51.6478 H         1 UNK         0.1150 
    138 H138        3.6831  -18.9098  -48.9455 H         1 UNK         0.1150 
    139 H139        1.7529  -21.8195  -50.2737 H         1 UNK         0.0800 
    140 H140        3.2944  -21.3829  -50.9611 H         1 UNK         0.0800 
    141 H141        1.5460  -20.3965  -47.7016 H         1 UNK         0.0800 
    142 H142        2.7379  -20.7115  -46.4862 H         1 UNK         0.0800 
    143 H143        2.0486  -23.0934  -46.3390 H         1 UNK         0.0600 
    144 H144        0.4726  -20.9235  -45.4910 H         1 UNK         0.3000 
    145 H145       -2.0922  -22.7175  -43.7450 H         1 UNK         0.0600 
    146 H146       -1.2818  -21.2056  -41.9668 H         1 UNK         0.0600 
    147 H147       -0.1189  -22.4957  -42.2308 H         1 UNK         0.0600 
    148 H148        0.2002  -20.8863  -42.8650 H         1 UNK         0.0600 
    149 H149       -1.7406  -19.9343  -44.1379 H         1 UNK         0.3000 
    150 H150       -3.6282  -19.6787  -47.2034 H         1 UNK         0.0600 
    151 H151       -5.2326  -19.7060  -45.2832 H         1 UNK         0.0600 
    152 H152       -4.8407  -18.0666  -45.7803 H         1 UNK         0.0600 
    153 H153       -4.1113  -18.7431  -44.3258 H         1 UNK         0.0600 
    154 H154       -2.3347  -17.6635  -45.7127 H         1 UNK         0.3000 
    155 H155        0.8731  -17.8833  -47.3443 H         1 UNK         0.0600 
    156 H156       -1.3702  -15.8063  -47.1641 H         1 UNK         0.0600 
    157 H157       -0.6778  -16.4131  -48.6540 H         1 UNK         0.0600 
    158 H158        0.3123  -15.4677  -47.5478 H         1 UNK         0.0600 
    159 H159        0.0564  -16.2652  -45.1697 H         1 UNK         0.3000 
    160 H160        0.9260  -18.4911  -42.5102 H         1 UNK         0.0600 
    161 H161        2.2737  -16.5107  -41.8869 H         1 UNK         0.0600 
    162 H162        2.1503  -15.8740  -43.5250 H         1 UNK         0.0600 
    163 H163        3.0352  -17.3622  -43.2229 H         1 UNK         0.0600 
    164 H164       -0.1681  -15.8192  -42.6939 H         1 UNK         0.3000 
    165 H165       -3.5926  -16.8066  -42.4437 H         1 UNK         0.0600 
    166 H166       -3.4520  -15.3061  -40.4776 H         1 UNK         0.0600 
    167 H167       -2.6911  -16.8463  -40.1126 H         1 UNK         0.0600 
    168 H168       -1.6933  -15.4393  -40.4603 H         1 UNK         0.0600 
    169 H169       -2.3179  -14.2479  -42.5517 H         1 UNK         0.3000 
    170 H170       -2.1893  -13.9215  -46.0885 H         1 UNK         0.0600 
    171 H171       -4.5945  -13.4752  -45.5937 H         1 UNK         0.0600 
    172 H172       -4.1458  -12.6378  -44.1115 H         1 UNK         0.0600 
    173 H173       -3.6703  -11.9838  -45.6794 H         1 UNK         0.0600 
    174 H174       -1.6960  -11.9511  -44.1961 H         1 UNK         0.3000 
    175 H175        0.2246  -11.7752  -42.8014 H         1 UNK         0.0600 
    176 H176        2.6701  -12.1024  -42.5920 H         1 UNK         0.0600 
    177 H177        1.8346  -13.6308  -42.3809 H         1 UNK         0.0600 
    178 H178        2.6581  -13.2867  -43.8975 H         1 UNK         0.0600 
    179 H179        2.0541  -11.1648  -44.9381 H         1 UNK         0.3000 
    180 H180        0.0771   -8.9487  -46.7634 H         1 UNK         0.0600 
    181 H181        2.2042   -8.1296  -44.7112 H         1 UNK         0.0600 
    182 H182        0.5885   -7.4454  -44.8425 H         1 UNK         0.0600 
    183 H183        1.7426   -7.2116  -46.1452 H         1 UNK         0.0600 
    184 H184        2.9153   -9.5124  -46.6127 H         1 UNK         0.3000 
    185 H185        2.8059  -11.8205  -49.3601 H         1 UNK         0.0600 
    186 H186        3.6678   -9.4320  -49.4709 H         1 UNK         0.0600 
    187 H187        4.5439   -9.6997  -47.9659 H         1 UNK         0.0600 
    188 H188        4.9514  -10.6268  -49.4032 H         1 UNK         0.0600 
    189 H189        3.3285  -12.1239  -46.5504 H         1 UNK         0.3000 
    190 H190       -0.6967  -21.4731  -48.0323 H         1 UNK         0.3000 
    191 H191       -0.7251  -23.2130  -50.2654 H         1 UNK         0.0600 
    192 H192       -2.9735  -21.5001  -49.0959 H         1 UNK         0.0600 
    193 H193       -2.9196  -22.1696  -50.7284 H         1 UNK         0.0600 
    194 H194       -1.7332  -20.9744  -50.2350 H         1 UNK         0.0600 
    195 H195       -2.4688  -23.4249  -47.1304 H         1 UNK         0.3000 
    196 H196       -4.0492  -25.7033  -47.7867 H         1 UNK         0.0600 
    197 H197       -4.3273  -25.8870  -45.3096 H         1 UNK         0.0600 
    198 H198       -4.5724  -24.2400  -45.8695 H         1 UNK         0.0600 
    199 H199       -3.0651  -24.6842  -45.0713 H         1 UNK         0.0600 
    200 H200       -0.7876  -25.4147  -46.2826 H         1 UNK         0.3000 
    201 H201       -0.3238  -28.2002  -45.9292 H         1 UNK         0.0600 
    202 H202        0.9977  -26.4544  -44.7737 H         1 UNK         0.0600 
    203 H203        1.6589  -25.8935  -46.3071 H         1 UNK         0.0600 
    204 H204        2.0624  -27.4967  -45.7053 H         1 UNK         0.0600 
    205 H205        0.2282  -26.0432  -48.7054 H         1 UNK         0.3000 
    206 H206        1.4360  -28.0340  -50.4171 H         1 UNK         0.0600 
    207 H207        1.7899  -25.5679  -50.6777 H         1 UNK         0.0600 
    208 H208        1.1482  -26.2838  -52.1479 H         1 UNK         0.0600 
    209 H209        0.0885  -25.3642  -51.0898 H         1 UNK         0.0600 
    210 H210       -1.7365  -27.7372  -49.3126 H         1 UNK         0.3000 
    211 H211       -3.6970  -28.5961  -49.7559 H         1 UNK         0.0600 
    212 H212       -2.3769  -30.4197  -51.8296 H         1 UNK         0.0600 
    213 H213       -3.9218  -30.6739  -51.0327 H         1 UNK         0.0600 
    214 H214       -2.4388  -30.7394  -50.0962 H         1 UNK         0.0600 
    215 H215       -2.7781  -26.2428  -51.2294 H         1 UNK         0.3000 
    216 H216       -4.4607  -26.2592  -53.6937 H         1 UNK         0.0600 
    217 H217       -3.3800  -24.0487  -54.0937 H         1 UNK         0.0600 
    218 H218       -2.1762  -25.3169  -53.9132 H         1 UNK         0.0600 
    219 H219       -2.4777  -24.1936  -52.5900 H         1 UNK         0.0600 
    220 H220       -3.9619  -24.6016  -50.5927 H         1 UNK         0.3000 
    221 H221       -5.0951  -23.1841  -49.3232 H         1 UNK         0.0600 
    222 H222       -7.5446  -24.8142  -50.1851 H         1 UNK         0.0600 
    223 H223       -6.3934  -25.2846  -48.9415 H         1 UNK         0.0600 
    224 H224       -7.3874  -23.8638  -48.7046 H         1 UNK         0.0600 
    225 H225       -8.0854  -22.6118  -50.0681 H         1 UNK         0.3000 
    226 H226       -9.3887  -21.1647  -51.0364 H         1 UNK         0.0600 
    227 H227       -8.5407  -22.1578  -53.1915 H         1 UNK         0.0600 
    228 H228       -9.0503  -20.4898  -53.3774 H         1 UNK         0.0600 
    229 H229       -7.3389  -20.8743  -53.2996 H         1 UNK         0.0600 
    230 H230       -9.8008  -18.9444  -51.7020 H         1 UNK         0.3000 
    231 H231       -8.6169  -17.0462  -49.9366 H         1 UNK         0.0600 
    232 H232      -11.0196  -17.0314  -50.5788 H         1 UNK         0.0600 
    233 H233      -10.5925  -16.6906  -52.2565 H         1 UNK         0.0600 
    234 H234      -10.2681  -15.5024  -51.0002 H         1 UNK         0.0600 
    235 H235       -7.5586  -18.0771  -52.9902 H         1 UNK         0.3000 
    236 H236       -6.3483  -15.7257  -54.0631 H         1 UNK         0.0600 
    237 H237       -4.9966  -17.3840  -55.3632 H         1 UNK         0.0600 
    238 H238       -5.5919  -18.6876  -54.3426 H         1 UNK         0.0600 
    239 H239       -6.7031  -17.8002  -55.3876 H         1 UNK         0.0600 
    240 H240       -5.3990  -17.9485  -51.4869 H         1 UNK         0.3000 
    241 H241       -3.0203  -16.2402  -50.9070 H         1 UNK         0.0600 
    242 H242       -5.7553  -17.1673  -47.9890 H         1 UNK         0.3800 
    243 H243       -5.8616  -18.0839  -49.4684 H         1 UNK         0.3800 
    244 H244       -1.9007  -18.1527  -49.8491 H         1 UNK         0.0800 
    245 H245       -3.2439  -19.1961  -50.2362 H         1 UNK         0.0800 
    246 H246       -0.0284  -17.6862  -53.2079 H         1 UNK         0.0800 
    247 H247       -0.7786  -16.6481  -52.0253 H         1 UNK         0.0800 
@<TRIPOS>BOND
     1    1    2 1    
     2    1  127 1    
     3    1  128 1    
     4    1  129 1    
     5    2    3 2    
     6    2    4 am   BACKBONE|DICT|INTERRES
     7    4    5 1    
     8    4  130 1    
     9    5    6 1    
    10    5   65 1    
    11    5  131 1    
    12    6    7 1    
    13    6  132 1    
    14    6  133 1    
    15    7    8 1    
    16    8    9 1    
    17    8  134 1    
    18    8  135 1    
    19    9   10 ar   
    20    9   14 ar   
    21   10   11 ar   
    22   10  136 1    
    23   11   12 ar   
    24   11  126 1    
    25   12   13 ar   
    26   12  137 1    
    27   13   14 ar   
    28   13   15 1    
    29   14  138 1    
    30   15   16 1    
    31   15  139 1    
    32   15  140 1    
    33   16   17 1    
    34   17   18 1    
    35   17  141 1    
    36   17  142 1    
    37   18   19 1    
    38   18   67 1    
    39   18  143 1    
    40   19   20 am   BACKBONE|DICT|INTERRES
    41   19  144 1    
    42   20   21 2    
    43   20   22 1    
    44   22   23 1    
    45   22   24 1    
    46   22  145 1    
    47   23  146 1    
    48   23  147 1    
    49   23  148 1    
    50   24   25 am   BACKBONE|DICT|INTERRES
    51   24  149 1    
    52   25   26 2    
    53   25   27 1    
    54   27   28 1    
    55   27   29 1    
    56   27  150 1    
    57   28  151 1    
    58   28  152 1    
    59   28  153 1    
    60   29   30 am   BACKBONE|DICT|INTERRES
    61   29  154 1    
    62   30   31 2    
    63   30   32 1    
    64   32   33 1    
    65   32   34 1    
    66   32  155 1    
    67   33  156 1    
    68   33  157 1    
    69   33  158 1    
    70   34   35 am   BACKBONE|DICT|INTERRES
    71   34  159 1    
    72   35   36 2    
    73   35   37 1    
    74   37   38 1    
    75   37   39 1    
    76   37  160 1    
    77   38  161 1    
    78   38  162 1    
    79   38  163 1    
    80   39   40 am   BACKBONE|DICT|INTERRES
    81   39  164 1    
    82   40   41 2    
    83   40   42 1    
    84   42   43 1    
    85   42   44 1    
    86   42  165 1    
    87   43  166 1    
    88   43  167 1    
    89   43  168 1    
    90   44   45 am   BACKBONE|DICT|INTERRES
    91   44  169 1    
    92   45   46 2    
    93   45   47 1    
    94   47   48 1    
    95   47   49 1    
    96   47  170 1    
    97   48  171 1    
    98   48  172 1    
    99   48  173 1    
   100   49   50 am   BACKBONE|DICT|INTERRES
   101   49  174 1    
   102   50   51 2    
   103   50   52 1    
   104   52   53 1    
   105   52   54 1    
   106   52  175 1    
   107   53  176 1    
   108   53  177 1    
   109   53  178 1    
   110   54   55 am   BACKBONE|DICT|INTERRES
   111   54  179 1    
   112   55   56 2    
   113   55   57 1    
   114   57   58 1    
   115   57   59 1    
   116   57  180 1    
   117   58  181 1    
   118   58  182 1    
   119   58  183 1    
   120   59   60 am   BACKBONE|DICT|INTERRES
   121   59  184 1    
   122   60   61 2    
   123   60   62 1    
   124   62   63 1    
   125   62   64 1    
   126   62  185 1    
   127   63  186 1    
   128   63  187 1    
   129   63  188 1    
   130   64   65 am   BACKBONE|DICT|INTERRES
   131   64  189 1    
   132   65   66 2    
   133   67   68 2    
   134   67   69 am   BACKBONE|DICT|INTERRES
   135   69   70 1    
   136   69  190 1    
   137   70   71 1    
   138   70   72 1    
   139   70  191 1    
   140   71  192 1    
   141   71  193 1    
   142   71  194 1    
   143   72   73 2    
   144   72   74 am   BACKBONE|DICT|INTERRES
   145   74   75 1    
   146   74  195 1    
   147   75   76 1    
   148   75   77 1    
   149   75  196 1    
   150   76  197 1    
   151   76  198 1    
   152   76  199 1    
   153   77   78 2    
   154   77   79 am   BACKBONE|DICT|INTERRES
   155   79   80 1    
   156   79  200 1    
   157   80   81 1    
   158   80   82 1    
   159   80  201 1    
   160   81  202 1    
   161   81  203 1    
   162   81  204 1    
   163   82   83 2    
   164   82   84 am   BACKBONE|DICT|INTERRES
   165   84   85 1    
   166   84  205 1    
   167   85   86 1    
   168   85   87 1    
   169   85  206 1    
   170   86  207 1    
   171   86  208 1    
   172   86  209 1    
   173   87   88 2    
   174   87   89 am   BACKBONE|DICT|INTERRES
   175   89   90 1    
   176   89  210 1    
   177   90   91 1    
   178   90   92 1    
   179   90  211 1    
   180   91  212 1    
   181   91  213 1    
   182   91  214 1    
   183   92   93 2    
   184   92   94 am   BACKBONE|DICT|INTERRES
   185   94   95 1    
   186   94  215 1    
   187   95   96 1    
   188   95   97 1    
   189   95  216 1    
   190   96  217 1    
   191   96  218 1    
   192   96  219 1    
   193   97   98 2    
   194   97   99 am   BACKBONE|DICT|INTERRES
   195   99  100 1    
   196   99  220 1    
   197  100  101 1    
   198  100  102 1    
   199  100  221 1    
   200  101  222 1    
   201  101  223 1    
   202  101  224 1    
   203  102  103 2    
   204  102  104 am   BACKBONE|DICT|INTERRES
   205  104  105 1    
   206  104  225 1    
   207  105  106 1    
   208  105  107 1    
   209  105  226 1    
   210  106  227 1    
   211  106  228 1    
   212  106  229 1    
   213  107  108 2    
   214  107  109 am   BACKBONE|DICT|INTERRES
   215  109  110 1    
   216  109  230 1    
   217  110  111 1    
   218  110  112 1    
   219  110  231 1    
   220  111  232 1    
   221  111  233 1    
   222  111  234 1    
   223  112  113 2    
   224  112  114 am   BACKBONE|DICT|INTERRES
   225  114  115 1    
   226  114  235 1    
   227  115  116 1    
   228  115  117 1    
   229  115  236 1    
   230  116  237 1    
   231  116  238 1    
   232  116  239 1    
   233  117  118 2    
   234  117  119 am   BACKBONE|DICT|INTERRES
   235  119  120 1    
   236  119  240 1    
   237  120  121 1    
   238  120  124 1    
   239  120  241 1    
   240  121  122 am   BACKBONE|DICT|INTERRES
   241  121  123 2    
   242  122  242 1    
   243  122  243 1    
   244  124  125 1    
   245  124  244 1    
   246  124  245 1    
   247  125  126 1    
   248  126  246 1    
   249  126  247 1    
@<TRIPOS>SUBSTRUCTURE
     1 UNK         1 GROUP             0       ****    0 ROOT    
