@<TRIPOS>MOLECULE
3R540
247   249    1
SMALL
USER_CHARGES


@<TRIPOS>ATOM
      1 CA          6.6308  -15.4063  -48.4580 C.3       0 UNK        -0.1800 
      2 C           5.4732  -14.9839  -47.5645 C.2       0 UNK         0.5000 
      3 O           5.5452  -15.1540  -46.3475 O.2       0 UNK        -0.5000 
      4 N           4.4062  -14.4428  -48.1637 N.am      1 UNK        -0.5000 
      5 CA          3.2262  -13.9382  -47.4576 C.3       1 UNK         0.1400 
      6 C6          2.0058  -13.7862  -48.3984 C.3       23 UNK        -0.0398 
      7 S7          1.3038  -15.3848  -48.9178 S.3       23 UNK        -0.2404 
      8 C8          2.0856  -15.6164  -50.5452 C.3       23 UNK        -0.0205 
      9 C9          1.3675  -16.6755  -51.3685 C.ar      23 UNK        -0.0193 
     10 C10         0.8054  -16.3447  -52.6045 C.ar      23 UNK        -0.1150 
     11 C11         0.1588  -17.3154  -53.3732 C.ar      23 UNK        -0.0193 
     12 C12         0.0717  -18.6248  -52.8916 C.ar      23 UNK        -0.1150 
     13 C13         0.6246  -18.9750  -51.6548 C.ar      23 UNK        -0.0193 
     14 C14         1.2764  -17.9903  -50.9026 C.ar      23 UNK        -0.1150 
     15 C15         0.4695  -20.4106  -51.1541 C.3       23 UNK        -0.0205 
     16 S16         1.8703  -21.0418  -50.1633 S.3       23 UNK        -0.2404 
     17 C17         1.3694  -20.6223  -48.4555 C.3       23 UNK        -0.0398 
     18 CA          0.6833  -21.8124  -47.7388 C.3       11 UNK         0.1400 
     19 N           0.8361  -21.7702  -46.2819 N.am      11 UNK        -0.5000 
     20 C           0.4772  -22.7718  -45.4630 C.2       10 UNK         0.5000 
     21 O           0.0238  -23.8487  -45.8525 O.2       10 UNK        -0.5000 
     22 CA          0.5988  -22.5155  -43.9526 C.3       10 UNK         0.1400 
     23 CB          2.0564  -22.6659  -43.4927 C.3       10 UNK        -0.1800 
     24 N           0.0824  -21.2043  -43.5598 N.am      10 UNK        -0.5000 
     25 C          -1.1932  -20.8145  -43.6972 C.2       9 UNK         0.5000 
     26 O          -2.0831  -21.5342  -44.1490 O.2       9 UNK        -0.5000 
     27 CA         -1.5256  -19.3629  -43.3075 C.3       9 UNK         0.1400 
     28 CB         -1.6508  -19.2167  -41.7838 C.3       9 UNK        -0.1800 
     29 N          -0.5476  -18.4000  -43.8120 N.am      9 UNK        -0.5000 
     30 C          -0.2743  -18.1921  -45.1086 C.2       8 UNK         0.5000 
     31 O          -0.8250  -18.7842  -46.0368 O.2       8 UNK        -0.5000 
     32 CA          0.8508  -17.1901  -45.4095 C.3       8 UNK         0.1400 
     33 CB          0.3633  -15.7449  -45.2090 C.3       8 UNK        -0.1800 
     34 N           2.0252  -17.4450  -44.5750 N.am      8 UNK        -0.5000 
     35 C           2.7857  -18.5474  -44.6582 C.2       7 UNK         0.5000 
     36 O           2.6003  -19.4498  -45.4756 O.2       7 UNK        -0.5000 
     37 CA          3.9138  -18.6854  -43.6200 C.3       7 UNK         0.1400 
     38 CB          5.1504  -17.8851  -44.0546 C.3       7 UNK        -0.1800 
     39 N           3.5033  -18.2560  -42.2819 N.am      7 UNK        -0.5000 
     40 C           2.5662  -18.8658  -41.5412 C.2       6 UNK         0.5000 
     41 O           1.9721  -19.8824  -41.8926 O.2       6 UNK        -0.5000 
     42 CA          2.1924  -18.1990  -40.2052 C.3       6 UNK         0.1400 
     43 CB          3.1139  -18.6899  -39.0790 C.3       6 UNK        -0.1800 
     44 N           2.2343  -16.7368  -40.2680 N.am      6 UNK        -0.5000 
     45 C           1.4508  -15.9883  -41.0550 C.2       5 UNK         0.5000 
     46 O           0.5995  -16.4524  -41.8185 O.2       5 UNK        -0.5000 
     47 CA          1.7294  -14.4771  -41.0327 C.3       5 UNK         0.1400 
     48 CB          2.7959  -14.1214  -42.0765 C.3       5 UNK        -0.1800 
     49 N           0.5296  -13.6840  -41.2896 N.am      5 UNK        -0.5000 
     50 C          -0.4767  -13.5342  -40.4172 C.2       4 UNK         0.5000 
     51 O          -0.4850  -14.0564  -39.3003 O.2       4 UNK        -0.5000 
     52 CA         -1.6657  -12.6508  -40.8601 C.3       4 UNK         0.1400 
     53 CB         -2.4251  -12.0300  -39.6683 C.3       4 UNK        -0.1800 
     54 N          -1.3096  -11.6159  -41.8393 N.am      4 UNK        -0.5000 
     55 C          -0.4359  -10.6094  -41.6867 C.2       3 UNK         0.5000 
     56 O           0.2128  -10.3952  -40.6607 O.2       3 UNK        -0.5000 
     57 CA         -0.2411   -9.7018  -42.9180 C.3       3 UNK         0.1400 
     58 CB         -0.3230   -8.2150  -42.5334 C.3       3 UNK        -0.1800 
     59 N           1.0216   -9.9426  -43.6225 N.am      3 UNK        -0.5000 
     60 C           1.4429  -11.1175  -44.1079 C.2       2 UNK         0.5000 
     61 O           0.8374  -12.1855  -43.9617 O.2       2 UNK        -0.5000 
     62 CA          2.7435  -11.0925  -44.9277 C.3       2 UNK         0.1400 
     63 CB          3.9960  -10.9041  -44.0524 C.3       2 UNK        -0.1800 
     64 N           2.8138  -12.3467  -45.6646 N.am      2 UNK        -0.5000 
     65 C           3.5215  -12.5902  -46.7694 C.2       1 UNK         0.5000 
     66 O           4.3150  -11.7907  -47.2728 O.2       1 UNK        -0.5000 
     67 C          -0.7978  -21.9316  -48.1433 C.2       11 UNK         0.5000 
     68 O          -1.1317  -22.7844  -48.9646 O.2       11 UNK        -0.5000 
     69 N          -1.6620  -21.1050  -47.5351 N.am      12 UNK        -0.5000 
     70 CA         -3.1055  -21.1162  -47.7610 C.3       12 UNK         0.1400 
     71 CB         -3.7714  -19.9571  -47.0070 C.3       12 UNK        -0.1800 
     72 C          -3.7559  -22.4596  -47.3942 C.2       12 UNK         0.5000 
     73 O          -4.5576  -22.9656  -48.1779 O.2       12 UNK        -0.5000 
     74 N          -3.3741  -23.0314  -46.2445 N.am      13 UNK        -0.5000 
     75 CA         -3.8181  -24.3477  -45.7862 C.3       13 UNK         0.1400 
     76 CB         -3.3084  -24.5990  -44.3591 C.3       13 UNK        -0.1800 
     77 C          -3.3856  -25.4821  -46.7323 C.2       13 UNK         0.5000 
     78 O          -4.2181  -26.3124  -47.1003 O.2       13 UNK        -0.5000 
     79 N          -2.1082  -25.4736  -47.1412 N.am      14 UNK        -0.5000 
     80 CA         -1.5290  -26.4371  -48.0810 C.3       14 UNK         0.1400 
     81 CB         -0.0115  -26.2157  -48.1702 C.3       14 UNK        -0.1800 
     82 C          -2.1680  -26.3765  -49.4813 C.2       14 UNK         0.5000 
     83 O          -2.3738  -27.4190  -50.1030 O.2       14 UNK        -0.5000 
     84 N          -2.4993  -25.1613  -49.9332 N.am      15 UNK        -0.5000 
     85 CA         -3.1423  -24.8777  -51.2148 C.3       15 UNK         0.1400 
     86 CB         -2.5986  -23.5448  -51.7506 C.3       15 UNK        -0.1800 
     87 C          -4.6858  -24.8992  -51.1545 C.2       15 UNK         0.5000 
     88 O          -5.3225  -24.3813  -52.0726 O.2       15 UNK        -0.5000 
     89 N          -5.2618  -25.5064  -50.1048 N.am      16 UNK        -0.5000 
     90 CA         -6.6931  -25.7664  -49.9077 C.3       16 UNK         0.1400 
     91 CB         -7.1963  -26.7984  -50.9392 C.3       16 UNK        -0.1800 
     92 C          -7.5383  -24.4764  -49.8884 C.2       16 UNK         0.5000 
     93 O          -8.4116  -24.2866  -50.7369 O.2       16 UNK        -0.5000 
     94 N          -7.2274  -23.6059  -48.9186 N.am      17 UNK        -0.5000 
     95 CA         -7.7426  -22.2438  -48.7417 C.3       17 UNK         0.1400 
     96 CB         -9.2719  -22.2253  -48.5339 C.3       17 UNK        -0.1800 
     97 C          -7.2569  -21.3175  -49.8732 C.2       17 UNK         0.5000 
     98 O          -8.0434  -20.5699  -50.4550 O.2       17 UNK        -0.5000 
     99 N          -5.9563  -21.4285  -50.1799 N.am      18 UNK        -0.5000 
    100 CA        -5.1676  -20.7165  -51.1947 C.3       18 UNK         0.1400 
    101 CB        -5.1914  -19.1958  -50.9550 C.3       18 UNK        -0.1800 
    102 C         -5.5070  -21.0506  -52.6608 C.2       18 UNK         0.5000 
    103 O         -4.6463  -20.8627  -53.5200 O.2       18 UNK        -0.5000 
    104 N         -6.7238  -21.5380  -52.9272 N.am      19 UNK        -0.5000 
    105 CA        -7.3304  -21.7443  -54.2428 C.3       19 UNK         0.1400 
    106 CB        -8.6979  -22.4169  -54.0513 C.3       19 UNK        -0.1800 
    107 C         -6.4889  -22.5304  -55.2658 C.2       19 UNK         0.5000 
    108 O         -6.5314  -22.1978  -56.4511 O.2       19 UNK        -0.5000 
    109 N         -5.7319  -23.5373  -54.8101 N.am      20 UNK        -0.5000 
    110 CA        -4.9071  -24.3837  -55.6757 C.3       20 UNK         0.1400 
    111 CB        -4.5571  -25.6830  -54.9346 C.3       20 UNK        -0.1800 
    112 C         -3.6236  -23.6959  -56.1830 C.2       20 UNK         0.5000 
    113 O         -3.0567  -24.1618  -57.1727 O.2       20 UNK        -0.5000 
    114 N         -3.1770  -22.6302  -55.5037 N.am      21 UNK        -0.5000 
    115 CA        -1.9287  -21.9229  -55.8024 C.3       21 UNK         0.1400 
    116 CB        -1.0025  -22.0173  -54.5802 C.3       21 UNK        -0.1800 
    117 C         -2.1573  -20.4502  -56.1782 C.2       21 UNK         0.5000 
    118 O         -1.3920  -19.9118  -56.9787 O.2       21 UNK        -0.5000 
    119 N         -3.1812  -19.8236  -55.5900 N.am      22 UNK        -0.5000 
    120 CA        -3.4858  -18.3895  -55.6909 C.3       22 UNK         0.1400 
    121 C         -4.9403  -18.0953  -56.1610 C.2       22 UNK         0.5000 
    122 N         -5.7217  -19.0851  -56.5767 N.am      22 UNK        -0.7600 
    123 O         -5.3678  -16.9444  -56.1717 O.2       22 UNK        -0.5000 
    124 C124       -3.1195  -17.6620  -54.3615 C.3       23 UNK        -0.0398 
    125 S125       -2.0677  -16.1958  -54.6258 S.3       23 UNK        -0.2404 
    126 C126       -0.4129  -16.9511  -54.7365 C.3       23 UNK        -0.0205 
    127 H127        6.4220  -15.2145  -49.5108 H         1 UNK         0.0600 
    128 H128        6.8263  -16.4721  -48.3391 H         1 UNK         0.0600 
    129 H129        7.5337  -14.8601  -48.1850 H         1 UNK         0.0600 
    130 H130        4.4227  -14.2879  -49.1605 H         1 UNK         0.3000 
    131 H131        2.9761  -14.6622  -46.6802 H         1 UNK         0.0600 
    132 H132        1.1958  -13.2560  -47.8933 H         1 UNK         0.0800 
    133 H133        2.2560  -13.1789  -49.2699 H         1 UNK         0.0800 
    134 H134        3.1260  -15.9135  -50.4084 H         1 UNK         0.0800 
    135 H135        2.0978  -14.6670  -51.0823 H         1 UNK         0.0800 
    136 H136        0.8748  -15.3317  -52.9757 H         1 UNK         0.1150 
    137 H137       -0.4306  -19.3736  -53.4859 H         1 UNK         0.1150 
    138 H138        1.7125  -18.2324  -49.9452 H         1 UNK         0.1150 
    139 H139       -0.4606  -20.4869  -50.5916 H         1 UNK         0.0800 
    140 H140        0.3595  -21.0810  -52.0073 H         1 UNK         0.0800 
    141 H141        0.7497  -19.7238  -48.4358 H         1 UNK         0.0800 
    142 H142        2.2877  -20.3576  -47.9309 H         1 UNK         0.0800 
    143 H143        1.1793  -22.7306  -48.0621 H         1 UNK         0.0600 
    144 H144        1.2237  -20.9200  -45.8858 H         1 UNK         0.3000 
    145 H145        0.0025  -23.2731  -43.4399 H         1 UNK         0.0600 
    146 H146        2.1353  -22.5967  -42.4077 H         1 UNK         0.0600 
    147 H147        2.4617  -23.6352  -43.7859 H         1 UNK         0.0600 
    148 H148        2.6967  -21.8962  -43.9247 H         1 UNK         0.0600 
    149 H149        0.7479  -20.5703  -43.1242 H         1 UNK         0.3000 
    150 H150       -2.4909  -19.1135  -43.7525 H         1 UNK         0.0600 
    151 H151       -2.4112  -19.8915  -41.3888 H         1 UNK         0.0600 
    152 H152       -1.9386  -18.2022  -41.5070 H         1 UNK         0.0600 
    153 H153       -0.7131  -19.4471  -41.2783 H         1 UNK         0.0600 
    154 H154       -0.0540  -17.8461  -43.1186 H         1 UNK         0.3000 
    155 H155        1.1458  -17.3121  -46.4539 H         1 UNK         0.0600 
    156 H156        1.1623  -15.0249  -45.3692 H         1 UNK         0.0600 
    157 H157       -0.0311  -15.5775  -44.2068 H         1 UNK         0.0600 
    158 H158       -0.4335  -15.5067  -45.9146 H         1 UNK         0.0600 
    159 H159        2.2083  -16.7862  -43.8339 H         1 UNK         0.3000 
    160 H160        4.1901  -19.7406  -43.5673 H         1 UNK         0.0600 
    161 H161        4.9479  -16.8136  -44.0859 H         1 UNK         0.0600 
    162 H162        5.4795  -18.1839  -45.0509 H         1 UNK         0.0600 
    163 H163        5.9861  -18.0491  -43.3742 H         1 UNK         0.0600 
    164 H164        3.9458  -17.4285  -41.9116 H         1 UNK         0.3000 
    165 H165        1.1697  -18.4941  -39.9623 H         1 UNK         0.0600 
    166 H166        2.8070  -18.2862  -38.1140 H         1 UNK         0.0600 
    167 H167        3.0855  -19.7774  -38.9985 H         1 UNK         0.0600 
    168 H168        4.1515  -18.4004  -39.2505 H         1 UNK         0.0600 
    169 H169        2.9145  -16.2815  -39.6763 H         1 UNK         0.3000 
    170 H170        2.1110  -14.2072  -40.0456 H         1 UNK         0.0600 
    171 H171        3.7160  -14.6844  -41.9151 H         1 UNK         0.0600 
    172 H172        2.4556  -14.3263  -43.0921 H         1 UNK         0.0600 
    173 H173        3.0479  -13.0647  -42.0095 H         1 UNK         0.0600 
    174 H174        0.4665  -13.2316  -42.1951 H         1 UNK         0.3000 
    175 H175       -2.3559  -13.3231  -41.3715 H         1 UNK         0.0600 
    176 H176       -3.2673  -11.4273  -40.0080 H         1 UNK         0.0600 
    177 H177       -2.8267  -12.8033  -39.0125 H         1 UNK         0.0600 
    178 H178       -1.7784  -11.3930  -39.0642 H         1 UNK         0.0600 
    179 H179       -1.7418  -11.7239  -42.7466 H         1 UNK         0.3000 
    180 H180       -1.0494   -9.9025  -43.6243 H         1 UNK         0.0600 
    181 H181        0.5007   -7.9207  -41.8817 H         1 UNK         0.0600 
    182 H182       -1.2526   -7.9991  -42.0052 H         1 UNK         0.0600 
    183 H183       -0.2969   -7.5762  -43.4164 H         1 UNK         0.0600 
    184 H184        1.5981   -9.1278  -43.7739 H         1 UNK         0.3000 
    185 H185        2.6712  -10.2668  -45.6387 H         1 UNK         0.0600 
    186 H186        3.8967  -10.0410  -43.3934 H         1 UNK         0.0600 
    187 H187        4.1936  -11.7755  -43.4310 H         1 UNK         0.0600 
    188 H188        4.8795  -10.7372  -44.6686 H         1 UNK         0.0600 
    189 H189        2.1391  -13.0244  -45.3302 H         1 UNK         0.3000 
    190 H190       -1.3110  -20.4082  -46.8820 H         1 UNK         0.3000 
    191 H191       -3.2634  -20.9547  -48.8279 H         1 UNK         0.0600 
    192 H192       -3.6164  -20.0340  -45.9306 H         1 UNK         0.0600 
    193 H193       -4.8473  -19.9414  -47.1860 H         1 UNK         0.0600 
    194 H194       -3.3738  -18.9961  -47.3337 H         1 UNK         0.0600 
    195 H195       -2.7411  -22.5256  -45.6295 H         1 UNK         0.3000 
    196 H196       -4.9096  -24.3379  -45.7583 H         1 UNK         0.0600 
    197 H197       -3.6302  -25.5752  -43.9943 H         1 UNK         0.0600 
    198 H198       -3.6933  -23.8499  -43.6671 H         1 UNK         0.0600 
    199 H199       -2.2195  -24.5704  -44.3086 H         1 UNK         0.0600 
    200 H200       -1.4795  -24.7626  -46.7780 H         1 UNK         0.3000 
    201 H201       -1.7040  -27.4378  -47.6809 H         1 UNK         0.0600 
    202 H202        0.4628  -26.3428  -47.1969 H         1 UNK         0.0600 
    203 H203        0.2280  -25.2144  -48.5300 H         1 UNK         0.0600 
    204 H204        0.4496  -26.9304  -48.8529 H         1 UNK         0.0600 
    205 H205       -2.2428  -24.3517  -49.3747 H         1 UNK         0.3000 
    206 H206       -2.8574  -25.6515  -51.9298 H         1 UNK         0.0600 
    207 H207       -1.5237  -23.6043  -51.9213 H         1 UNK         0.0600 
    208 H208       -3.0627  -23.2697  -52.6972 H         1 UNK         0.0600 
    209 H209       -2.7708  -22.7370  -51.0434 H         1 UNK         0.0600 
    210 H210       -4.6539  -25.8508  -49.3729 H         1 UNK         0.3000 
    211 H211       -6.7910  -26.2177  -48.9192 H         1 UNK         0.0600 
    212 H212       -7.1400  -26.4164  -51.9593 H         1 UNK         0.0600 
    213 H213       -8.2363  -27.0649  -50.7477 H         1 UNK         0.0600 
    214 H214       -6.6119  -27.7173  -50.8937 H         1 UNK         0.0600 
    215 H215       -6.4161  -23.8213  -48.3494 H         1 UNK         0.3000 
    216 H216       -7.2873  -21.8655  -47.8253 H         1 UNK         0.0600 
    217 H217       -9.6113  -21.2274  -48.2540 H         1 UNK         0.0600 
    218 H218       -9.5697  -22.9052  -47.7358 H         1 UNK         0.0600 
    219 H219       -9.8137  -22.5081  -49.4366 H         1 UNK         0.0600 
    220 H220       -5.4345  -22.1137  -49.6400 H         1 UNK         0.3000 
    221 H221       -4.1390  -21.0365  -51.0476 H         1 UNK         0.0600 
    222 H222       -6.1804  -18.7708  -51.1278 H         1 UNK         0.0600 
    223 H223       -4.8932  -18.9518  -49.9353 H         1 UNK         0.0600 
    224 H224       -4.4982  -18.6865  -51.6254 H         1 UNK         0.0600 
    225 H225       -7.3471  -21.6423  -52.1370 H         1 UNK         0.3000 
    226 H226       -7.4987  -20.7522  -54.6657 H         1 UNK         0.0600 
    227 H227       -9.2008  -22.5675  -55.0075 H         1 UNK         0.0600 
    228 H228       -8.5982  -23.3925  -53.5728 H         1 UNK         0.0600 
    229 H229       -9.3548  -21.8067  -53.4311 H         1 UNK         0.0600 
    230 H230       -5.7204  -23.7458  -53.8132 H         1 UNK         0.3000 
    231 H231       -5.5012  -24.6522  -56.5518 H         1 UNK         0.0600 
    232 H232       -5.4485  -26.1678  -54.5360 H         1 UNK         0.0600 
    233 H233       -3.8738  -25.4983  -54.1069 H         1 UNK         0.0600 
    234 H234       -4.0707  -26.3934  -55.6041 H         1 UNK         0.0600 
    235 H235       -3.7279  -22.2846  -54.7264 H         1 UNK         0.3000 
    236 H236       -1.4133  -22.3870  -56.6456 H         1 UNK         0.0600 
    237 H237       -0.0565  -21.5060  -54.7634 H         1 UNK         0.0600 
    238 H238       -1.4582  -21.5668  -53.6979 H         1 UNK         0.0600 
    239 H239       -0.7687  -23.0555  -54.3443 H         1 UNK         0.0600 
    240 H240       -3.7521  -20.3250  -54.9115 H         1 UNK         0.3000 
    241 H241       -2.8771  -17.9730  -56.4949 H         1 UNK         0.0600 
    242 H242       -5.3899  -20.0371  -56.6080 H         1 UNK         0.3800 
    243 H243       -6.6545  -18.8739  -56.8935 H         1 UNK         0.3800 
    244 H244       -4.0108  -17.3455  -53.8169 H         1 UNK         0.0800 
    245 H245       -2.6060  -18.3310  -53.6712 H         1 UNK         0.0800 
    246 H246       -0.4504  -17.8285  -55.3836 H         1 UNK         0.0800 
    247 H247        0.2576  -16.2459  -55.2299 H         1 UNK         0.0800 
@<TRIPOS>BOND
     1    1    2 1    
     2    1  127 1    
     3    1  128 1    
     4    1  129 1    
     5    2    3 2    
     6    2    4 am   BACKBONE|DICT|INTERRES
     7    4    5 1    
     8    4  130 1    
     9    5    6 1    
    10    5   65 1    
    11    5  131 1    
    12    6    7 1    
    13    6  132 1    
    14    6  133 1    
    15    7    8 1    
    16    8    9 1    
    17    8  134 1    
    18    8  135 1    
    19    9   10 ar   
    20    9   14 ar   
    21   10   11 ar   
    22   10  136 1    
    23   11   12 ar   
    24   11  126 1    
    25   12   13 ar   
    26   12  137 1    
    27   13   14 ar   
    28   13   15 1    
    29   14  138 1    
    30   15   16 1    
    31   15  139 1    
    32   15  140 1    
    33   16   17 1    
    34   17   18 1    
    35   17  141 1    
    36   17  142 1    
    37   18   19 1    
    38   18   67 1    
    39   18  143 1    
    40   19   20 am   BACKBONE|DICT|INTERRES
    41   19  144 1    
    42   20   21 2    
    43   20   22 1    
    44   22   23 1    
    45   22   24 1    
    46   22  145 1    
    47   23  146 1    
    48   23  147 1    
    49   23  148 1    
    50   24   25 am   BACKBONE|DICT|INTERRES
    51   24  149 1    
    52   25   26 2    
    53   25   27 1    
    54   27   28 1    
    55   27   29 1    
    56   27  150 1    
    57   28  151 1    
    58   28  152 1    
    59   28  153 1    
    60   29   30 am   BACKBONE|DICT|INTERRES
    61   29  154 1    
    62   30   31 2    
    63   30   32 1    
    64   32   33 1    
    65   32   34 1    
    66   32  155 1    
    67   33  156 1    
    68   33  157 1    
    69   33  158 1    
    70   34   35 am   BACKBONE|DICT|INTERRES
    71   34  159 1    
    72   35   36 2    
    73   35   37 1    
    74   37   38 1    
    75   37   39 1    
    76   37  160 1    
    77   38  161 1    
    78   38  162 1    
    79   38  163 1    
    80   39   40 am   BACKBONE|DICT|INTERRES
    81   39  164 1    
    82   40   41 2    
    83   40   42 1    
    84   42   43 1    
    85   42   44 1    
    86   42  165 1    
    87   43  166 1    
    88   43  167 1    
    89   43  168 1    
    90   44   45 am   BACKBONE|DICT|INTERRES
    91   44  169 1    
    92   45   46 2    
    93   45   47 1    
    94   47   48 1    
    95   47   49 1    
    96   47  170 1    
    97   48  171 1    
    98   48  172 1    
    99   48  173 1    
   100   49   50 am   BACKBONE|DICT|INTERRES
   101   49  174 1    
   102   50   51 2    
   103   50   52 1    
   104   52   53 1    
   105   52   54 1    
   106   52  175 1    
   107   53  176 1    
   108   53  177 1    
   109   53  178 1    
   110   54   55 am   BACKBONE|DICT|INTERRES
   111   54  179 1    
   112   55   56 2    
   113   55   57 1    
   114   57   58 1    
   115   57   59 1    
   116   57  180 1    
   117   58  181 1    
   118   58  182 1    
   119   58  183 1    
   120   59   60 am   BACKBONE|DICT|INTERRES
   121   59  184 1    
   122   60   61 2    
   123   60   62 1    
   124   62   63 1    
   125   62   64 1    
   126   62  185 1    
   127   63  186 1    
   128   63  187 1    
   129   63  188 1    
   130   64   65 am   BACKBONE|DICT|INTERRES
   131   64  189 1    
   132   65   66 2    
   133   67   68 2    
   134   67   69 am   BACKBONE|DICT|INTERRES
   135   69   70 1    
   136   69  190 1    
   137   70   71 1    
   138   70   72 1    
   139   70  191 1    
   140   71  192 1    
   141   71  193 1    
   142   71  194 1    
   143   72   73 2    
   144   72   74 am   BACKBONE|DICT|INTERRES
   145   74   75 1    
   146   74  195 1    
   147   75   76 1    
   148   75   77 1    
   149   75  196 1    
   150   76  197 1    
   151   76  198 1    
   152   76  199 1    
   153   77   78 2    
   154   77   79 am   BACKBONE|DICT|INTERRES
   155   79   80 1    
   156   79  200 1    
   157   80   81 1    
   158   80   82 1    
   159   80  201 1    
   160   81  202 1    
   161   81  203 1    
   162   81  204 1    
   163   82   83 2    
   164   82   84 am   BACKBONE|DICT|INTERRES
   165   84   85 1    
   166   84  205 1    
   167   85   86 1    
   168   85   87 1    
   169   85  206 1    
   170   86  207 1    
   171   86  208 1    
   172   86  209 1    
   173   87   88 2    
   174   87   89 am   BACKBONE|DICT|INTERRES
   175   89   90 1    
   176   89  210 1    
   177   90   91 1    
   178   90   92 1    
   179   90  211 1    
   180   91  212 1    
   181   91  213 1    
   182   91  214 1    
   183   92   93 2    
   184   92   94 am   BACKBONE|DICT|INTERRES
   185   94   95 1    
   186   94  215 1    
   187   95   96 1    
   188   95   97 1    
   189   95  216 1    
   190   96  217 1    
   191   96  218 1    
   192   96  219 1    
   193   97   98 2    
   194   97   99 am   BACKBONE|DICT|INTERRES
   195   99  100 1    
   196   99  220 1    
   197  100  101 1    
   198  100  102 1    
   199  100  221 1    
   200  101  222 1    
   201  101  223 1    
   202  101  224 1    
   203  102  103 2    
   204  102  104 am   BACKBONE|DICT|INTERRES
   205  104  105 1    
   206  104  225 1    
   207  105  106 1    
   208  105  107 1    
   209  105  226 1    
   210  106  227 1    
   211  106  228 1    
   212  106  229 1    
   213  107  108 2    
   214  107  109 am   BACKBONE|DICT|INTERRES
   215  109  110 1    
   216  109  230 1    
   217  110  111 1    
   218  110  112 1    
   219  110  231 1    
   220  111  232 1    
   221  111  233 1    
   222  111  234 1    
   223  112  113 2    
   224  112  114 am   BACKBONE|DICT|INTERRES
   225  114  115 1    
   226  114  235 1    
   227  115  116 1    
   228  115  117 1    
   229  115  236 1    
   230  116  237 1    
   231  116  238 1    
   232  116  239 1    
   233  117  118 2    
   234  117  119 am   BACKBONE|DICT|INTERRES
   235  119  120 1    
   236  119  240 1    
   237  120  121 1    
   238  120  124 1    
   239  120  241 1    
   240  121  122 am   BACKBONE|DICT|INTERRES
   241  121  123 2    
   242  122  242 1    
   243  122  243 1    
   244  124  125 1    
   245  124  244 1    
   246  124  245 1    
   247  125  126 1    
   248  126  246 1    
   249  126  247 1    
@<TRIPOS>SUBSTRUCTURE
     1 UNK         1 GROUP             0       ****    0 ROOT    
