@<TRIPOS>MOLECULE
3R540
247   249    1
SMALL
USER_CHARGES


@<TRIPOS>ATOM
      1 CA          5.0563   -9.8914  -50.6354 C.3       0 UNK        -0.1800 
      2 C           4.9207  -11.1461  -49.7844 C.2       0 UNK         0.5000 
      3 O           5.7705  -12.0333  -49.8623 O.2       0 UNK        -0.5000 
      4 N           3.8566  -11.2224  -48.9734 N.am      1 UNK        -0.5000 
      5 CA          3.5661  -12.3473  -48.0722 C.3       1 UNK         0.1400 
      6 C6          2.0723  -12.3505  -47.6379 C.3       23 UNK        -0.0398 
      7 S7          1.3211  -14.0107  -47.7009 S.3       23 UNK        -0.2404 
      8 C8          0.8771  -14.0796  -49.4631 C.3       23 UNK        -0.0205 
      9 C9          0.3545  -15.4477  -49.8712 C.ar      23 UNK        -0.0193 
     10 C10        -1.0122  -15.6456  -50.0893 C.ar      23 UNK        -0.1150 
     11 C11        -1.4905  -16.8851  -50.5248 C.ar      23 UNK        -0.0193 
     12 C12        -0.5864  -17.9284  -50.7441 C.ar      23 UNK        -0.1150 
     13 C13         0.7801  -17.7517  -50.5076 C.ar      23 UNK        -0.0193 
     14 C14         1.2445  -16.5070  -50.0730 C.ar      23 UNK        -0.1150 
     15 C15         1.7556  -18.8973  -50.7429 C.3       23 UNK        -0.0205 
     16 S16         1.9814  -19.9296  -49.2580 S.3       23 UNK        -0.2404 
     17 C17         0.3411  -20.7118  -49.1371 C.3       23 UNK        -0.0398 
     18 CA          0.3101  -21.9447  -48.2037 C.3       11 UNK         0.1400 
     19 N           0.4800  -21.5994  -46.7865 N.am      11 UNK        -0.5000 
     20 C           0.5565  -22.4890  -45.7844 C.2       10 UNK         0.5000 
     21 O           0.5614  -23.7082  -45.9525 O.2       10 UNK        -0.5000 
     22 CA          0.5710  -21.9360  -44.3470 C.3       10 UNK         0.1400 
     23 CB          1.9654  -21.4225  -43.9588 C.3       10 UNK        -0.1800 
     24 N          -0.4302  -20.8895  -44.1375 N.am      10 UNK        -0.5000 
     25 C          -1.7543  -21.0861  -44.2224 C.2       9 UNK         0.5000 
     26 O          -2.2693  -22.1848  -44.4267 O.2       9 UNK        -0.5000 
     27 CA         -2.6583  -19.8451  -44.1074 C.3       9 UNK         0.1400 
     28 CB         -2.9193  -19.4905  -42.6361 C.3       9 UNK        -0.1800 
     29 N          -2.1175  -18.6814  -44.8096 N.am      9 UNK        -0.5000 
     30 C          -1.8870  -18.6321  -46.1297 C.2       8 UNK         0.5000 
     31 O          -2.1505  -19.5552  -46.8982 O.2       8 UNK        -0.5000 
     32 CA         -1.1761  -17.3743  -46.6628 C.3       8 UNK         0.1400 
     33 CB         -2.1436  -16.1856  -46.7692 C.3       8 UNK        -0.1800 
     34 N          -0.0297  -17.0041  -45.8319 N.am      8 UNK        -0.5000 
     35 C           1.0599  -17.7680  -45.6705 C.2       7 UNK         0.5000 
     36 O           1.2245  -18.8487  -46.2318 O.2       7 UNK        -0.5000 
     37 CA          2.1127  -17.2800  -44.6613 C.3       7 UNK         0.1400 
     38 CB          3.1140  -16.3231  -45.3219 C.3       7 UNK        -0.1800 
     39 N           1.5093  -16.6464  -43.4882 N.am      7 UNK        -0.5000 
     40 C           0.7858  -17.3078  -42.5742 C.2       6 UNK         0.5000 
     41 O           0.5872  -18.5225  -42.6123 O.2       6 UNK        -0.5000 
     42 CA          0.1421  -16.4700  -41.4555 C.3       6 UNK         0.1400 
     43 CB          1.1849  -16.0551  -40.4074 C.3       6 UNK        -0.1800 
     44 N          -0.5449  -15.2790  -41.9552 N.am      6 UNK        -0.5000 
     45 C          -1.6133  -15.2807  -42.7612 C.2       5 UNK         0.5000 
     46 O          -2.1301  -16.3098  -43.1926 O.2       5 UNK        -0.5000 
     47 CA         -2.1969  -13.9182  -43.1883 C.3       5 UNK         0.1400 
     48 CB         -3.1972  -13.3855  -42.1449 C.3       5 UNK        -0.1800 
     49 N          -1.1858  -12.9136  -43.5450 N.am      5 UNK        -0.5000 
     50 C          -0.3009  -12.2959  -42.7517 C.2       4 UNK         0.5000 
     51 O          -0.2492  -12.4304  -41.5268 O.2       4 UNK        -0.5000 
     52 CA          0.7377  -11.4119  -43.4666 C.3       4 UNK         0.1400 
     53 CB          0.3999   -9.9244  -43.2892 C.3       4 UNK        -0.1800 
     54 N           2.1075  -11.6516  -43.0060 N.am      4 UNK        -0.5000 
     55 C           2.7185  -12.8428  -42.9378 C.2       3 UNK         0.5000 
     56 O           2.1911  -13.9086  -43.2606 O.2       3 UNK        -0.5000 
     57 CA          4.1930  -12.8140  -42.5060 C.3       3 UNK         0.1400 
     58 CB          4.6955  -14.1783  -42.0024 C.3       3 UNK        -0.1800 
     59 N           4.9883  -12.4130  -43.6598 N.am      3 UNK        -0.5000 
     60 C           5.2977  -11.1546  -43.9856 C.2       2 UNK         0.5000 
     61 O           5.0360  -10.1813  -43.2775 O.2       2 UNK        -0.5000 
     62 CA          5.9688  -10.9424  -45.3545 C.3       2 UNK         0.1400 
     63 CB          7.2983  -11.7135  -45.4818 C.3       2 UNK        -0.1800 
     64 N           5.0657  -11.2216  -46.4780 N.am      2 UNK        -0.5000 
     65 C           4.5190  -12.3900  -46.8545 C.2       1 UNK         0.5000 
     66 O           4.7406  -13.4644  -46.2952 O.2       1 UNK        -0.5000 
     67 C          -0.9878  -22.7402  -48.4435 C.2       11 UNK         0.5000 
     68 O          -0.9418  -23.7867  -49.0902 O.2       11 UNK        -0.5000 
     69 N          -2.1084  -22.2480  -47.8969 N.am      12 UNK        -0.5000 
     70 CA         -3.4249  -22.8779  -47.9851 C.3       12 UNK         0.1400 
     71 CB         -4.4737  -21.9655  -47.3341 C.3       12 UNK        -0.1800 
     72 C          -3.4568  -24.2823  -47.3575 C.2       12 UNK         0.5000 
     73 O          -3.9884  -25.2067  -47.9723 O.2       12 UNK        -0.5000 
     74 N          -2.8547  -24.4265  -46.1685 N.am      13 UNK        -0.5000 
     75 CA         -2.7182  -25.6954  -45.4539 C.3       13 UNK         0.1400 
     76 CB         -2.1921  -25.4330  -44.0348 C.3       13 UNK        -0.1800 
     77 C          -1.8185  -26.7060  -46.1875 C.2       13 UNK         0.5000 
     78 O          -2.1529  -27.8906  -46.2272 O.2       13 UNK        -0.5000 
     79 N          -0.7060  -26.2252  -46.7610 N.am      14 UNK        -0.5000 
     80 CA          0.2331  -27.0284  -47.5442 C.3       14 UNK         0.1400 
     81 CB          1.5203  -26.2268  -47.7916 C.3       14 UNK        -0.1800 
     82 C          -0.3693  -27.5154  -48.8737 C.2       14 UNK         0.5000 
     83 O          -0.1766  -28.6769  -49.2362 O.2       14 UNK        -0.5000 
     84 N          -1.0897  -26.6260  -49.5702 N.am      15 UNK        -0.5000 
     85 CA         -1.7763  -26.9261  -50.8253 C.3       15 UNK         0.1400 
     86 CB         -2.1886  -25.6134  -51.5080 C.3       15 UNK        -0.1800 
     87 C          -3.0067  -27.8277  -50.6324 C.2       15 UNK         0.5000 
     88 O          -3.2467  -28.7041  -51.4636 O.2       15 UNK        -0.5000 
     89 N          -3.7696  -27.5713  -49.5578 N.am      16 UNK        -0.5000 
     90 CA         -5.0722  -28.1634  -49.2313 C.3       16 UNK         0.1400 
     91 CB         -4.9293  -29.6622  -48.8957 C.3       16 UNK        -0.1800 
     92 C          -6.1332  -27.8764  -50.3178 C.2       16 UNK         0.5000 
     93 O          -6.9941  -28.7162  -50.5882 O.2       16 UNK        -0.5000 
     94 N          -6.0337  -26.6934  -50.9347 N.am      17 UNK        -0.5000 
     95 CA         -6.8177  -26.2357  -52.0744 C.3       17 UNK         0.1400 
     96 CB         -6.3365  -26.9464  -53.3552 C.3       17 UNK        -0.1800 
     97 C          -6.6559  -24.7140  -52.2023 C.2       17 UNK         0.5000 
     98 O          -5.7923  -24.1263  -51.5423 O.2       17 UNK        -0.5000 
     99 N          -7.4602  -24.1069  -53.0841 N.am      18 UNK        -0.5000 
    100 CA        -7.5074  -22.6704  -53.3827 C.3       18 UNK         0.1400 
    101 CB        -8.8621  -22.3505  -54.0399 C.3       18 UNK        -0.1800 
    102 C         -6.3130  -22.1504  -54.2213 C.2       18 UNK         0.5000 
    103 O         -6.4902  -21.2696  -55.0664 O.2       18 UNK        -0.5000 
    104 N         -5.1120  -22.6902  -53.9756 N.am      19 UNK        -0.5000 
    105 CA        -3.8473  -22.2784  -54.5839 C.3       19 UNK         0.1400 
    106 CB        -2.7313  -23.2145  -54.1024 C.3       19 UNK        -0.1800 
    107 C         -3.5124  -20.8191  -54.2337 C.2       19 UNK         0.5000 
    108 O         -3.6803  -20.4204  -53.0778 O.2       19 UNK        -0.5000 
    109 N         -3.1000  -20.0416  -55.2447 N.am      20 UNK        -0.5000 
    110 CA        -2.8140  -18.5999  -55.1798 C.3       20 UNK         0.1400 
    111 CB        -1.5327  -18.3456  -54.3599 C.3       20 UNK        -0.1800 
    112 C         -4.0111  -17.7440  -54.6979 C.2       20 UNK         0.5000 
    113 O         -3.8120  -16.6354  -54.2004 O.2       20 UNK        -0.5000 
    114 N         -5.2298  -18.2819  -54.8583 N.am      21 UNK        -0.5000 
    115 CA        -6.5138  -17.7508  -54.3994 C.3       21 UNK         0.1400 
    116 CB        -6.8251  -16.3826  -55.0437 C.3       21 UNK        -0.1800 
    117 C         -6.6827  -17.7556  -52.8633 C.2       21 UNK         0.5000 
    118 O         -7.4595  -16.9516  -52.3437 O.2       21 UNK        -0.5000 
    119 N         -6.0101  -18.6787  -52.1599 N.am      22 UNK        -0.5000 
    120 CA        -6.2566  -18.9521  -50.7329 C.3       22 UNK         0.1400 
    121 C         -6.1675  -20.4547  -50.3513 C.2       22 UNK         0.5000 
    122 N         -5.3406  -21.2593  -51.0054 N.am      22 UNK        -0.7600 
    123 O         -6.9054  -20.9093  -49.4820 O.2       22 UNK        -0.5000 
    124 C124       -5.4630  -18.0237  -49.7770 C.3       23 UNK        -0.0398 
    125 S125       -3.6710  -18.3588  -49.6685 S.3       23 UNK        -0.2404 
    126 C126       -2.9787  -17.0912  -50.7710 C.3       23 UNK        -0.0205 
    127 H127        4.2338   -9.1957  -50.4673 H         1 UNK         0.0600 
    128 H128        5.0674  -10.1550  -51.6930 H         1 UNK         0.0600 
    129 H129        5.9889   -9.3783  -50.4010 H         1 UNK         0.0600 
    130 H130        3.1926  -10.4610  -48.9627 H         1 UNK         0.3000 
    131 H131        3.7641  -13.2571  -48.6435 H         1 UNK         0.0600 
    132 H132        1.4762  -11.7007  -48.2803 H         1 UNK         0.0800 
    133 H133        1.9406  -11.9475  -46.6323 H         1 UNK         0.0800 
    134 H134        0.1342  -13.3094  -49.6762 H         1 UNK         0.0800 
    135 H135        1.7515  -13.8377  -50.0691 H         1 UNK         0.0800 
    136 H136       -1.7028  -14.8297  -49.9295 H         1 UNK         0.1150 
    137 H137       -0.9551  -18.8857  -51.0837 H         1 UNK         0.1150 
    138 H138        2.3009  -16.3584  -49.8986 H         1 UNK         0.1150 
    139 H139        1.4172  -19.5169  -51.5747 H         1 UNK         0.0800 
    140 H140        2.7263  -18.4983  -51.0409 H         1 UNK         0.0800 
    141 H141        0.0414  -20.9951  -50.1482 H         1 UNK         0.0800 
    142 H142       -0.3772  -19.9628  -48.8021 H         1 UNK         0.0800 
    143 H143        1.1399  -22.5996  -48.4777 H         1 UNK         0.0600 
    144 H144        0.5379  -20.6073  -46.5690 H         1 UNK         0.3000 
    145 H145        0.3239  -22.7612  -43.6757 H         1 UNK         0.0600 
    146 H146        1.9822  -21.0657  -42.9289 H         1 UNK         0.0600 
    147 H147        2.7073  -22.2177  -44.0408 H         1 UNK         0.0600 
    148 H148        2.2920  -20.6060  -44.6012 H         1 UNK         0.0600 
    149 H149       -0.0865  -19.9607  -43.9181 H         1 UNK         0.3000 
    150 H150       -3.6161  -20.0910  -44.5699 H         1 UNK         0.0600 
    151 H151       -3.3382  -20.3415  -42.0977 H         1 UNK         0.0600 
    152 H152       -3.6301  -18.6686  -42.5498 H         1 UNK         0.0600 
    153 H153       -2.0038  -19.1948  -42.1235 H         1 UNK         0.0600 
    154 H154       -1.9106  -17.8647  -44.2406 H         1 UNK         0.3000 
    155 H155       -0.8023  -17.5998  -47.6637 H         1 UNK         0.0600 
    156 H156       -1.6406  -15.3016  -47.1611 H         1 UNK         0.0600 
    157 H157       -2.9665  -16.4164  -47.4459 H         1 UNK         0.0600 
    158 H158       -2.5790  -15.9261  -45.8052 H         1 UNK         0.0600 
    159 H159       -0.0928  -16.1409  -45.3149 H         1 UNK         0.3000 
    160 H160        2.6685  -18.1568  -44.3228 H         1 UNK         0.0600 
    161 H161        2.6637  -15.3550  -45.5358 H         1 UNK         0.0600 
    162 H162        3.4883  -16.7279  -46.2632 H         1 UNK         0.0600 
    163 H163        3.9759  -16.1507  -44.6792 H         1 UNK         0.0600 
    164 H164        1.6501  -15.6422  -43.3848 H         1 UNK         0.3000 
    165 H165       -0.6019  -17.0987  -40.9619 H         1 UNK         0.0600 
    166 H166        1.9217  -15.3696  -40.8254 H         1 UNK         0.0600 
    167 H167        0.7134  -15.5606  -39.5580 H         1 UNK         0.0600 
    168 H168        1.7216  -16.9232  -40.0227 H         1 UNK         0.0600 
    169 H169       -0.1844  -14.3773  -41.6593 H         1 UNK         0.3000 
    170 H170       -2.7593  -14.0983  -44.1057 H         1 UNK         0.0600 
    171 H171       -4.0125  -14.0944  -41.9956 H         1 UNK         0.0600 
    172 H172       -2.7309  -13.2221  -41.1733 H         1 UNK         0.0600 
    173 H173       -3.6406  -12.4437  -42.4681 H         1 UNK         0.0600 
    174 H174       -1.1145  -12.7370  -44.5373 H         1 UNK         0.3000 
    175 H175        0.7156  -11.6427  -44.5330 H         1 UNK         0.0600 
    176 H176       -0.6076   -9.7066  -43.6461 H         1 UNK         0.0600 
    177 H177        0.4492   -9.6244  -42.2416 H         1 UNK         0.0600 
    178 H178        1.0869   -9.2926  -43.8527 H         1 UNK         0.0600 
    179 H179        2.6372  -10.8332  -42.7404 H         1 UNK         0.3000 
    180 H180        4.3053  -12.0929  -41.6935 H         1 UNK         0.0600 
    181 H181        4.1273  -14.5051  -41.1317 H         1 UNK         0.0600 
    182 H182        5.7422  -14.1231  -41.7031 H         1 UNK         0.0600 
    183 H183        4.6090  -14.9530  -42.7638 H         1 UNK         0.0600 
    184 H184        5.1239  -13.1181  -44.3783 H         1 UNK         0.3000 
    185 H185        6.2083   -9.8799  -45.4228 H         1 UNK         0.0600 
    186 H186        7.9831  -11.4391  -44.6786 H         1 UNK         0.0600 
    187 H187        7.1610  -12.7938  -45.4354 H         1 UNK         0.0600 
    188 H188        7.7947  -11.4827  -46.4244 H         1 UNK         0.0600 
    189 H189        4.8021  -10.4085  -47.0163 H         1 UNK         0.3000 
    190 H190       -2.0667  -21.3540  -47.4113 H         1 UNK         0.3000 
    191 H191       -3.6712  -22.9789  -49.0442 H         1 UNK         0.0600 
    192 H192       -4.2856  -21.8265  -46.2698 H         1 UNK         0.0600 
    193 H193       -5.4746  -22.3851  -47.4411 H         1 UNK         0.0600 
    194 H194       -4.4821  -20.9808  -47.8019 H         1 UNK         0.0600 
    195 H195       -2.4767  -23.6033  -45.7066 H         1 UNK         0.3000 
    196 H196       -3.7128  -26.1384  -45.3698 H         1 UNK         0.0600 
    197 H197       -2.0873  -26.3643  -43.4770 H         1 UNK         0.0600 
    198 H198       -2.8739  -24.7932  -43.4745 H         1 UNK         0.0600 
    199 H199       -1.2159  -24.9468  -44.0517 H         1 UNK         0.0600 
    200 H200       -0.4717  -25.2442  -46.6380 H         1 UNK         0.3000 
    201 H201        0.4941  -27.9101  -46.9553 H         1 UNK         0.0600 
    202 H202        2.0040  -25.9602  -46.8518 H         1 UNK         0.0600 
    203 H203        1.3219  -25.3043  -48.3383 H         1 UNK         0.0600 
    204 H204        2.2375  -26.8071  -48.3733 H         1 UNK         0.0600 
    205 H205       -1.1521  -25.6682  -49.2330 H         1 UNK         0.3000 
    206 H206       -1.0779  -27.4468  -51.4838 H         1 UNK         0.0600 
    207 H207       -1.3177  -24.9999  -51.7390 H         1 UNK         0.0600 
    208 H208       -2.7097  -25.8096  -52.4456 H         1 UNK         0.0600 
    209 H209       -2.8562  -25.0220  -50.8794 H         1 UNK         0.0600 
    210 H210       -3.5073  -26.7902  -48.9626 H         1 UNK         0.3000 
    211 H211       -5.4172  -27.6565  -48.3292 H         1 UNK         0.0600 
    212 H212       -4.6521  -30.2507  -49.7706 H         1 UNK         0.0600 
    213 H213       -5.8666  -30.0676  -48.5133 H         1 UNK         0.0600 
    214 H214       -4.1705  -29.8216  -48.1293 H         1 UNK         0.0600 
    215 H215       -5.3452  -26.0224  -50.6155 H         1 UNK         0.3000 
    216 H216       -7.8721  -26.4567  -51.8971 H         1 UNK         0.0600 
    217 H217       -5.2824  -26.7446  -53.5510 H         1 UNK         0.0600 
    218 H218       -6.9020  -26.6212  -54.2289 H         1 UNK         0.0600 
    219 H219       -6.4585  -28.0270  -53.2814 H         1 UNK         0.0600 
    220 H220       -8.1065  -24.6781  -53.6092 H         1 UNK         0.3000 
    221 H221       -7.4811  -22.1339  -52.4341 H         1 UNK         0.0600 
    222 H222       -9.6921  -22.6815  -53.4154 H         1 UNK         0.0600 
    223 H223       -8.9595  -22.8329  -55.0132 H         1 UNK         0.0600 
    224 H224       -8.9843  -21.2769  -54.1898 H         1 UNK         0.0600 
    225 H225       -5.0543  -23.3483  -53.2070 H         1 UNK         0.3000 
    226 H226       -3.9465  -22.3773  -55.6666 H         1 UNK         0.0600 
    227 H227       -2.9443  -24.2504  -54.3662 H         1 UNK         0.0600 
    228 H228       -1.7759  -22.9522  -54.5583 H         1 UNK         0.0600 
    229 H229       -2.6051  -23.1586  -53.0204 H         1 UNK         0.0600 
    230 H230       -3.0114  -20.4562  -56.1624 H         1 UNK         0.3000 
    231 H231       -2.6164  -18.2804  -56.2039 H         1 UNK         0.0600 
    232 H232       -1.6606  -18.6383  -53.3193 H         1 UNK         0.0600 
    233 H233       -1.2535  -17.2915  -54.3720 H         1 UNK         0.0600 
    234 H234       -0.6898  -18.9073  -54.7622 H         1 UNK         0.0600 
    235 H235       -5.2798  -19.2076  -55.2645 H         1 UNK         0.3000 
    236 H236       -7.2618  -18.4528  -54.7705 H         1 UNK         0.0600 
    237 H237       -7.8584  -16.0889  -54.8555 H         1 UNK         0.0600 
    238 H238       -6.1874  -15.5915  -54.6491 H         1 UNK         0.0600 
    239 H239       -6.6918  -16.4153  -56.1250 H         1 UNK         0.0600 
    240 H240       -5.3517  -19.2905  -52.6273 H         1 UNK         0.3000 
    241 H241       -7.3089  -18.7190  -50.5554 H         1 UNK         0.0600 
    242 H242       -5.3636  -22.2515  -50.8086 H         1 UNK         0.3800 
    243 H243       -4.6737  -20.9041  -51.6875 H         1 UNK         0.3800 
    244 H244       -5.8660  -18.1199  -48.7677 H         1 UNK         0.0800 
    245 H245       -5.6267  -16.9812  -50.0508 H         1 UNK         0.0800 
    246 H246       -3.5188  -16.1528  -50.6398 H         1 UNK         0.0800 
    247 H247       -3.1368  -17.4023  -51.8021 H         1 UNK         0.0800 
@<TRIPOS>BOND
     1    1    2 1    
     2    1  127 1    
     3    1  128 1    
     4    1  129 1    
     5    2    3 2    
     6    2    4 am   BACKBONE|DICT|INTERRES
     7    4    5 1    
     8    4  130 1    
     9    5    6 1    
    10    5   65 1    
    11    5  131 1    
    12    6    7 1    
    13    6  132 1    
    14    6  133 1    
    15    7    8 1    
    16    8    9 1    
    17    8  134 1    
    18    8  135 1    
    19    9   10 ar   
    20    9   14 ar   
    21   10   11 ar   
    22   10  136 1    
    23   11   12 ar   
    24   11  126 1    
    25   12   13 ar   
    26   12  137 1    
    27   13   14 ar   
    28   13   15 1    
    29   14  138 1    
    30   15   16 1    
    31   15  139 1    
    32   15  140 1    
    33   16   17 1    
    34   17   18 1    
    35   17  141 1    
    36   17  142 1    
    37   18   19 1    
    38   18   67 1    
    39   18  143 1    
    40   19   20 am   BACKBONE|DICT|INTERRES
    41   19  144 1    
    42   20   21 2    
    43   20   22 1    
    44   22   23 1    
    45   22   24 1    
    46   22  145 1    
    47   23  146 1    
    48   23  147 1    
    49   23  148 1    
    50   24   25 am   BACKBONE|DICT|INTERRES
    51   24  149 1    
    52   25   26 2    
    53   25   27 1    
    54   27   28 1    
    55   27   29 1    
    56   27  150 1    
    57   28  151 1    
    58   28  152 1    
    59   28  153 1    
    60   29   30 am   BACKBONE|DICT|INTERRES
    61   29  154 1    
    62   30   31 2    
    63   30   32 1    
    64   32   33 1    
    65   32   34 1    
    66   32  155 1    
    67   33  156 1    
    68   33  157 1    
    69   33  158 1    
    70   34   35 am   BACKBONE|DICT|INTERRES
    71   34  159 1    
    72   35   36 2    
    73   35   37 1    
    74   37   38 1    
    75   37   39 1    
    76   37  160 1    
    77   38  161 1    
    78   38  162 1    
    79   38  163 1    
    80   39   40 am   BACKBONE|DICT|INTERRES
    81   39  164 1    
    82   40   41 2    
    83   40   42 1    
    84   42   43 1    
    85   42   44 1    
    86   42  165 1    
    87   43  166 1    
    88   43  167 1    
    89   43  168 1    
    90   44   45 am   BACKBONE|DICT|INTERRES
    91   44  169 1    
    92   45   46 2    
    93   45   47 1    
    94   47   48 1    
    95   47   49 1    
    96   47  170 1    
    97   48  171 1    
    98   48  172 1    
    99   48  173 1    
   100   49   50 am   BACKBONE|DICT|INTERRES
   101   49  174 1    
   102   50   51 2    
   103   50   52 1    
   104   52   53 1    
   105   52   54 1    
   106   52  175 1    
   107   53  176 1    
   108   53  177 1    
   109   53  178 1    
   110   54   55 am   BACKBONE|DICT|INTERRES
   111   54  179 1    
   112   55   56 2    
   113   55   57 1    
   114   57   58 1    
   115   57   59 1    
   116   57  180 1    
   117   58  181 1    
   118   58  182 1    
   119   58  183 1    
   120   59   60 am   BACKBONE|DICT|INTERRES
   121   59  184 1    
   122   60   61 2    
   123   60   62 1    
   124   62   63 1    
   125   62   64 1    
   126   62  185 1    
   127   63  186 1    
   128   63  187 1    
   129   63  188 1    
   130   64   65 am   BACKBONE|DICT|INTERRES
   131   64  189 1    
   132   65   66 2    
   133   67   68 2    
   134   67   69 am   BACKBONE|DICT|INTERRES
   135   69   70 1    
   136   69  190 1    
   137   70   71 1    
   138   70   72 1    
   139   70  191 1    
   140   71  192 1    
   141   71  193 1    
   142   71  194 1    
   143   72   73 2    
   144   72   74 am   BACKBONE|DICT|INTERRES
   145   74   75 1    
   146   74  195 1    
   147   75   76 1    
   148   75   77 1    
   149   75  196 1    
   150   76  197 1    
   151   76  198 1    
   152   76  199 1    
   153   77   78 2    
   154   77   79 am   BACKBONE|DICT|INTERRES
   155   79   80 1    
   156   79  200 1    
   157   80   81 1    
   158   80   82 1    
   159   80  201 1    
   160   81  202 1    
   161   81  203 1    
   162   81  204 1    
   163   82   83 2    
   164   82   84 am   BACKBONE|DICT|INTERRES
   165   84   85 1    
   166   84  205 1    
   167   85   86 1    
   168   85   87 1    
   169   85  206 1    
   170   86  207 1    
   171   86  208 1    
   172   86  209 1    
   173   87   88 2    
   174   87   89 am   BACKBONE|DICT|INTERRES
   175   89   90 1    
   176   89  210 1    
   177   90   91 1    
   178   90   92 1    
   179   90  211 1    
   180   91  212 1    
   181   91  213 1    
   182   91  214 1    
   183   92   93 2    
   184   92   94 am   BACKBONE|DICT|INTERRES
   185   94   95 1    
   186   94  215 1    
   187   95   96 1    
   188   95   97 1    
   189   95  216 1    
   190   96  217 1    
   191   96  218 1    
   192   96  219 1    
   193   97   98 2    
   194   97   99 am   BACKBONE|DICT|INTERRES
   195   99  100 1    
   196   99  220 1    
   197  100  101 1    
   198  100  102 1    
   199  100  221 1    
   200  101  222 1    
   201  101  223 1    
   202  101  224 1    
   203  102  103 2    
   204  102  104 am   BACKBONE|DICT|INTERRES
   205  104  105 1    
   206  104  225 1    
   207  105  106 1    
   208  105  107 1    
   209  105  226 1    
   210  106  227 1    
   211  106  228 1    
   212  106  229 1    
   213  107  108 2    
   214  107  109 am   BACKBONE|DICT|INTERRES
   215  109  110 1    
   216  109  230 1    
   217  110  111 1    
   218  110  112 1    
   219  110  231 1    
   220  111  232 1    
   221  111  233 1    
   222  111  234 1    
   223  112  113 2    
   224  112  114 am   BACKBONE|DICT|INTERRES
   225  114  115 1    
   226  114  235 1    
   227  115  116 1    
   228  115  117 1    
   229  115  236 1    
   230  116  237 1    
   231  116  238 1    
   232  116  239 1    
   233  117  118 2    
   234  117  119 am   BACKBONE|DICT|INTERRES
   235  119  120 1    
   236  119  240 1    
   237  120  121 1    
   238  120  124 1    
   239  120  241 1    
   240  121  122 am   BACKBONE|DICT|INTERRES
   241  121  123 2    
   242  122  242 1    
   243  122  243 1    
   244  124  125 1    
   245  124  244 1    
   246  124  245 1    
   247  125  126 1    
   248  126  246 1    
   249  126  247 1    
@<TRIPOS>SUBSTRUCTURE
     1 UNK         1 GROUP             0       ****    0 ROOT    
