@<TRIPOS>MOLECULE
3R540
247   249    1
SMALL
USER_CHARGES


@<TRIPOS>ATOM
      1 CA         -3.1560  -14.5073  -45.5023 C.3       0 UNK        -0.1800 
      2 C          -2.4979  -13.3949  -46.3076 C.2       0 UNK         0.5000 
      3 O          -2.8320  -12.2250  -46.1217 O.2       0 UNK        -0.5000 
      4 N          -1.5658  -13.7575  -47.1958 N.am      1 UNK        -0.5000 
      5 CA         -0.8227  -12.8403  -48.0696 C.3       1 UNK         0.1400 
      6 C6         -0.6543  -13.4278  -49.4933 C.3       23 UNK        -0.0398 
      7 S7         -2.2249  -13.3449  -50.4144 S.3       23 UNK        -0.2404 
      8 C8         -1.7071  -13.8858  -52.0714 C.3       23 UNK        -0.0205 
      9 C9         -1.8219  -15.3932  -52.2296 C.ar      23 UNK        -0.0193 
     10 C10        -3.0552  -15.9639  -52.5564 C.ar      23 UNK        -0.1150 
     11 C11        -3.1796  -17.3454  -52.7226 C.ar      23 UNK        -0.0193 
     12 C12        -2.0516  -18.1550  -52.5731 C.ar      23 UNK        -0.1150 
     13 C13        -0.8124  -17.5991  -52.2453 C.ar      23 UNK        -0.0193 
     14 C14        -0.7034  -16.2158  -52.0698 C.ar      23 UNK        -0.1150 
     15 C15         0.4103  -18.4945  -52.1047 C.3       23 UNK        -0.0205 
     16 S16         0.2656  -19.6641  -50.7164 S.3       23 UNK        -0.2404 
     17 C17         0.2787  -18.5415  -49.2800 C.3       23 UNK        -0.0398 
     18 CA         -0.4972  -19.1191  -48.0664 C.3       11 UNK         0.1400 
     19 N          -0.0642  -18.5574  -46.7906 N.am      11 UNK        -0.5000 
     20 C           0.0081  -17.2729  -46.4215 C.2       10 UNK         0.5000 
     21 O          -0.4205  -16.3394  -47.1024 O.2       10 UNK        -0.5000 
     22 CA          0.6962  -16.9855  -45.0688 C.3       10 UNK         0.1400 
     23 CB         -0.3406  -16.7139  -43.9715 C.3       10 UNK        -0.1800 
     24 N           1.5693  -18.0785  -44.6313 N.am      10 UNK        -0.5000 
     25 C           2.7226  -18.4267  -45.2221 C.2       9 UNK         0.5000 
     26 O           3.2467  -17.7847  -46.1322 O.2       9 UNK        -0.5000 
     27 CA          3.3659  -19.7442  -44.7530 C.3       9 UNK         0.1400 
     28 CB          4.2673  -19.5225  -43.5315 C.3       9 UNK        -0.1800 
     29 N           2.3560  -20.7547  -44.4341 N.am      9 UNK        -0.5000 
     30 C           1.6966  -21.4785  -45.3495 C.2       8 UNK         0.5000 
     31 O           1.9034  -21.4018  -46.5599 O.2       8 UNK        -0.5000 
     32 CA          0.6009  -22.4276  -44.8300 C.3       8 UNK         0.1400 
     33 CB          1.1862  -23.8114  -44.5126 C.3       8 UNK        -0.1800 
     34 N          -0.0835  -21.9090  -43.6448 N.am      8 UNK        -0.5000 
     35 C          -0.9254  -20.8670  -43.6567 C.2       7 UNK         0.5000 
     36 O          -1.2300  -20.2447  -44.6731 O.2       7 UNK        -0.5000 
     37 CA         -1.5045  -20.4313  -42.2998 C.3       7 UNK         0.1400 
     38 CB         -2.7864  -21.2159  -41.9847 C.3       7 UNK        -0.1800 
     39 N          -0.5670  -20.5538  -41.1807 N.am      7 UNK        -0.5000 
     40 C           0.5935  -19.8923  -41.0891 C.2       6 UNK         0.5000 
     41 O           1.0647  -19.2033  -41.9974 O.2       6 UNK        -0.5000 
     42 CA          1.3594  -20.0186  -39.7623 C.3       6 UNK         0.1400 
     43 CB          2.6691  -20.7973  -39.9560 C.3       6 UNK        -0.1800 
     44 N           1.6594  -18.6907  -39.2347 N.am      6 UNK        -0.5000 
     45 C           0.7567  -17.8489  -38.7178 C.2       5 UNK         0.5000 
     46 O          -0.4144  -18.1616  -38.4984 O.2       5 UNK        -0.5000 
     47 CA          1.2183  -16.4084  -38.4202 C.3       5 UNK         0.1400 
     48 CB          1.9390  -16.3161  -37.0614 C.3       5 UNK        -0.1800 
     49 N           2.0031  -15.7923  -39.5003 N.am      5 UNK        -0.5000 
     50 C           3.2400  -16.0880  -39.9274 C.2       4 UNK         0.5000 
     51 O           3.9398  -16.9745  -39.4358 O.2       4 UNK        -0.5000 
     52 CA          3.7804  -15.2903  -41.1299 C.3       4 UNK         0.1400 
     53 CB          3.9618  -16.2102  -42.3445 C.3       4 UNK        -0.1800 
     54 N           2.9169  -14.1791  -41.5289 N.am      4 UNK        -0.5000 
     55 C           2.9523  -12.9454  -41.0138 C.2       3 UNK         0.5000 
     56 O           3.6846  -12.6216  -40.0774 O.2       3 UNK        -0.5000 
     57 CA          2.0348  -11.9042  -41.6924 C.3       3 UNK         0.1400 
     58 CB          2.2513  -10.4787  -41.1528 C.3       3 UNK        -0.1800 
     59 N           2.2161  -11.8900  -43.1480 N.am      3 UNK        -0.5000 
     60 C           1.6648  -12.7562  -44.0057 C.2       2 UNK         0.5000 
     61 O           0.9268  -13.6829  -43.6615 O.2       2 UNK        -0.5000 
     62 CA          2.0350  -12.5956  -45.4830 C.3       2 UNK         0.1400 
     63 CB          3.2408  -13.4776  -45.8493 C.3       2 UNK        -0.1800 
     64 N           0.8779  -12.9765  -46.2823 N.am      2 UNK        -0.5000 
     65 C           0.5338  -12.4314  -47.4545 C.2       1 UNK         0.5000 
     66 O           1.2340  -11.6051  -48.0422 O.2       1 UNK        -0.5000 
     67 C          -2.0278  -19.0730  -48.2195 C.2       11 UNK         0.5000 
     68 O          -2.6787  -20.1164  -48.1335 O.2       11 UNK        -0.5000 
     69 N          -2.5884  -17.8710  -48.4060 N.am      12 UNK        -0.5000 
     70 CA         -4.0164  -17.6412  -48.6445 C.3       12 UNK         0.1400 
     71 CB         -4.2452  -16.1588  -48.9620 C.3       12 UNK        -0.1800 
     72 C          -4.9215  -18.0890  -47.4820 C.2       12 UNK         0.5000 
     73 O          -6.0513  -18.5135  -47.7223 O.2       12 UNK        -0.5000 
     74 N          -4.3917  -18.0399  -46.2523 N.am      13 UNK        -0.5000 
     75 CA         -5.0592  -18.4934  -45.0306 C.3       13 UNK         0.1400 
     76 CB         -4.2303  -18.0429  -43.8206 C.3       13 UNK        -0.1800 
     77 C          -5.3032  -20.0164  -44.9902 C.2       13 UNK         0.5000 
     78 O          -6.2588  -20.4556  -44.3506 O.2       13 UNK        -0.5000 
     79 N          -4.4598  -20.7871  -45.6904 N.am      14 UNK        -0.5000 
     80 CA         -4.5960  -22.2329  -45.8788 C.3       14 UNK         0.1400 
     81 CB         -3.2050  -22.8795  -45.7529 C.3       14 UNK        -0.1800 
     82 C          -5.2375  -22.5815  -47.2368 C.2       14 UNK         0.5000 
     83 O          -5.2058  -23.7480  -47.6304 O.2       14 UNK        -0.5000 
     84 N          -5.7567  -21.5758  -47.9612 N.am      15 UNK        -0.5000 
     85 CA         -6.2736  -21.6562  -49.3343 C.3       15 UNK         0.1400 
     86 CB         -7.5832  -22.4700  -49.3816 C.3       15 UNK        -0.1800 
     87 C          -5.2092  -22.1634  -50.3324 C.2       15 UNK         0.5000 
     88 O          -5.5253  -22.9206  -51.2506 O.2       15 UNK        -0.5000 
     89 N          -3.9540  -21.7539  -50.0935 N.am      16 UNK        -0.5000 
     90 CA         -2.7220  -22.1366  -50.7873 C.3       16 UNK         0.1400 
     91 CB         -2.8335  -21.8651  -52.2991 C.3       16 UNK        -0.1800 
     92 C          -2.2473  -23.5733  -50.4870 C.2       16 UNK         0.5000 
     93 O          -1.2726  -24.0154  -51.0951 O.2       16 UNK        -0.5000 
     94 N          -2.9291  -24.2831  -49.5729 N.am      17 UNK        -0.5000 
     95 CA         -2.7815  -25.6971  -49.1986 C.3       17 UNK         0.1400 
     96 CB         -1.3707  -26.0141  -48.6662 C.3       17 UNK        -0.1800 
     97 C          -3.2116  -26.6642  -50.3207 C.2       17 UNK         0.5000 
     98 O          -4.0472  -27.5372  -50.0831 O.2       17 UNK        -0.5000 
     99 N          -2.6769  -26.4579  -51.5266 N.am      18 UNK        -0.5000 
    100 CA        -3.1542  -27.0081  -52.7863 C.3       18 UNK         0.1400 
    101 CB        -2.0555  -27.8774  -53.4181 C.3       18 UNK        -0.1800 
    102 C         -3.4821  -25.7952  -53.6642 C.2       18 UNK         0.5000 
    103 O         -2.5857  -24.9945  -53.9352 O.2       18 UNK        -0.5000 
    104 N         -4.7538  -25.6595  -54.0639 N.am      19 UNK        -0.5000 
    105 CA        -5.3351  -24.4642  -54.6928 C.3       19 UNK         0.1400 
    106 CB        -6.8140  -24.7340  -55.0069 C.3       19 UNK        -0.1800 
    107 C         -4.6074  -23.9441  -55.9487 C.2       19 UNK         0.5000 
    108 O         -4.6457  -22.7422  -56.2137 O.2       19 UNK        -0.5000 
    109 N         -3.9216  -24.8407  -56.6713 N.am      20 UNK        -0.5000 
    110 CA        -3.0758  -24.5331  -57.8265 C.3       20 UNK         0.1400 
    111 CB        -2.5279  -25.8451  -58.4072 C.3       20 UNK        -0.1800 
    112 C         -1.9205  -23.5580  -57.5172 C.2       20 UNK         0.5000 
    113 O         -1.5276  -22.7943  -58.4005 O.2       20 UNK        -0.5000 
    114 N         -1.4265  -23.5546  -56.2689 N.am      21 UNK        -0.5000 
    115 CA        -0.3834  -22.6398  -55.7939 C.3       21 UNK         0.1400 
    116 CB         0.1919  -23.1621  -54.4685 C.3       21 UNK        -0.1800 
    117 C         -0.8464  -21.1707  -55.6769 C.2       21 UNK         0.5000 
    118 O          0.0014  -20.2821  -55.5896 O.2       21 UNK        -0.5000 
    119 N         -2.1651  -20.9321  -55.7182 N.am      22 UNK        -0.5000 
    120 CA        -2.7710  -19.6024  -55.8902 C.3       22 UNK         0.1400 
    121 C         -2.6719  -19.0542  -57.3496 C.2       22 UNK         0.5000 
    122 N         -2.2933  -19.8491  -58.3460 N.am      22 UNK        -0.7600 
    123 O         -2.9220  -17.8764  -57.5880 O.2       22 UNK        -0.5000 
    124 C124       -4.2302  -19.6003  -55.3603 C.3       23 UNK        -0.0398 
    125 S125       -4.8514  -17.9607  -54.8455 S.3       23 UNK        -0.2404 
    126 C126       -4.5357  -17.9501  -53.0517 C.3       23 UNK        -0.0205 
    127 H127       -4.2350  -14.4944  -45.6559 H         1 UNK         0.0600 
    128 H128       -2.9608  -14.3682  -44.4391 H         1 UNK         0.0600 
    129 H129       -2.7866  -15.4903  -45.7928 H         1 UNK         0.0600 
    130 H130       -1.2835  -14.7334  -47.2599 H         1 UNK         0.3000 
    131 H131       -1.3791  -11.9054  -48.1654 H         1 UNK         0.0600 
    132 H132        0.0877  -12.8683  -50.0659 H         1 UNK         0.0800 
    133 H133       -0.3038  -14.4607  -49.4542 H         1 UNK         0.0800 
    134 H134       -2.3430  -13.3970  -52.8110 H         1 UNK         0.0800 
    135 H135       -0.6906  -13.5496  -52.2810 H         1 UNK         0.0800 
    136 H136       -3.9225  -15.3298  -52.6767 H         1 UNK         0.1150 
    137 H137       -2.1274  -19.2204  -52.7168 H         1 UNK         0.1150 
    138 H138        0.2525  -15.7773  -51.8204 H         1 UNK         0.1150 
    139 H139        0.5386  -19.0611  -53.0283 H         1 UNK         0.0800 
    140 H140        1.3179  -17.9018  -51.9803 H         1 UNK         0.0800 
    141 H141       -0.0958  -17.5560  -49.5578 H         1 UNK         0.0800 
    142 H142        1.3252  -18.3933  -49.0094 H         1 UNK         0.0800 
    143 H143       -0.2346  -20.1758  -47.9898 H         1 UNK         0.0600 
    144 H144        0.2025  -19.2439  -46.0977 H         1 UNK         0.3000 
    145 H145        1.3062  -16.0897  -45.1925 H         1 UNK         0.0600 
    146 H146        0.1428  -16.5098  -43.0156 H         1 UNK         0.0600 
    147 H147       -0.9473  -15.8429  -44.2150 H         1 UNK         0.0600 
    148 H148       -1.0105  -17.5610  -43.8331 H         1 UNK         0.0600 
    149 H149        1.2547  -18.6169  -43.8288 H         1 UNK         0.3000 
    150 H150        3.9914  -20.1182  -45.5665 H         1 UNK         0.0600 
    151 H151        5.0552  -18.8030  -43.7565 H         1 UNK         0.0600 
    152 H152        4.7520  -20.4495  -43.2250 H         1 UNK         0.0600 
    153 H153        3.7034  -19.1426  -42.6803 H         1 UNK         0.0600 
    154 H154        2.0888  -20.8369  -43.4638 H         1 UNK         0.3000 
    155 H155       -0.1360  -22.5463  -45.6271 H         1 UNK         0.0600 
    156 H156        0.4042  -24.5111  -44.2172 H         1 UNK         0.0600 
    157 H157        1.9188  -23.7645  -43.7059 H         1 UNK         0.0600 
    158 H158        1.6852  -24.2335  -45.3860 H         1 UNK         0.0600 
    159 H159        0.1090  -22.3653  -42.7652 H         1 UNK         0.3000 
    160 H160       -1.7642  -19.3752  -42.3791 H         1 UNK         0.0600 
    161 H161       -2.5849  -22.2785  -41.8444 H         1 UNK         0.0600 
    162 H162       -3.5108  -21.1246  -42.7945 H         1 UNK         0.0600 
    163 H163       -3.2662  -20.8414  -41.0803 H         1 UNK         0.0600 
    164 H164       -0.8816  -21.0988  -40.3908 H         1 UNK         0.3000 
    165 H165        0.7436  -20.5538  -39.0364 H         1 UNK         0.0600 
    166 H166        3.1837  -20.9402  -39.0057 H         1 UNK         0.0600 
    167 H167        2.4797  -21.7863  -40.3752 H         1 UNK         0.0600 
    168 H168        3.3528  -20.2789  -40.6282 H         1 UNK         0.0600 
    169 H169        2.5941  -18.3279  -39.3969 H         1 UNK         0.3000 
    170 H170        0.3126  -15.8046  -38.3433 H         1 UNK         0.0600 
    171 H171        1.2903  -16.6617  -36.2557 H         1 UNK         0.0600 
    172 H172        2.8421  -16.9261  -37.0324 H         1 UNK         0.0600 
    173 H173        2.2206  -15.2880  -36.8338 H         1 UNK         0.0600 
    174 H174        1.5193  -15.0693  -40.0129 H         1 UNK         0.3000 
    175 H175        4.7609  -14.8991  -40.8502 H         1 UNK         0.0600 
    176 H176        3.0236  -16.6913  -42.6225 H         1 UNK         0.0600 
    177 H177        4.3289  -15.6610  -43.2119 H         1 UNK         0.0600 
    178 H178        4.6882  -16.9930  -42.1263 H         1 UNK         0.0600 
    179 H179        2.2714  -14.3485  -42.2934 H         1 UNK         0.3000 
    180 H180        1.0051  -12.1894  -41.4661 H         1 UNK         0.0600 
    181 H181        1.5653   -9.7722  -41.6204 H         1 UNK         0.0600 
    182 H182        3.2684  -10.1290  -41.3340 H         1 UNK         0.0600 
    183 H183        2.0742  -10.4351  -40.0773 H         1 UNK         0.0600 
    184 H184        2.8464  -11.1863  -43.5054 H         1 UNK         0.3000 
    185 H185        2.2824  -11.5474  -45.6649 H         1 UNK         0.0600 
    186 H186        3.5123  -13.3572  -46.8981 H         1 UNK         0.0600 
    187 H187        4.1153  -13.2110  -45.2545 H         1 UNK         0.0600 
    188 H188        3.0378  -14.5350  -45.6772 H         1 UNK         0.0600 
    189 H189        0.2345  -13.6083  -45.8236 H         1 UNK         0.3000 
    190 H190       -1.9858  -17.0580  -48.3921 H         1 UNK         0.3000 
    191 H191       -4.3002  -18.2245  -49.5232 H         1 UNK         0.0600 
    192 H192       -5.2959  -15.9597  -49.1764 H         1 UNK         0.0600 
    193 H193       -3.6748  -15.8578  -49.8382 H         1 UNK         0.0600 
    194 H194       -3.9495  -15.5151  -48.1344 H         1 UNK         0.0600 
    195 H195       -3.4424  -17.7130  -46.1568 H         1 UNK         0.3000 
    196 H196       -6.0346  -18.0054  -44.9775 H         1 UNK         0.0600 
    197 H197       -3.2174  -18.4367  -43.8739 H         1 UNK         0.0600 
    198 H198       -4.1654  -16.9560  -43.7677 H         1 UNK         0.0600 
    199 H199       -4.6729  -18.3893  -42.8856 H         1 UNK         0.0600 
    200 H200       -3.7047  -20.3473  -46.2038 H         1 UNK         0.3000 
    201 H201       -5.2370  -22.6594  -45.1049 H         1 UNK         0.0600 
    202 H202       -2.4988  -22.4555  -46.4679 H         1 UNK         0.0600 
    203 H203       -3.2431  -23.9557  -45.9261 H         1 UNK         0.0600 
    204 H204       -2.8013  -22.7388  -44.7522 H         1 UNK         0.0600 
    205 H205       -5.7454  -20.6454  -47.5613 H         1 UNK         0.3000 
    206 H206       -6.5088  -20.6341  -49.6346 H         1 UNK         0.0600 
    207 H207       -8.3127  -22.0835  -48.6699 H         1 UNK         0.0600 
    208 H208       -8.0384  -22.4196  -50.3714 H         1 UNK         0.0600 
    209 H209       -7.4164  -23.5230  -49.1531 H         1 UNK         0.0600 
    210 H210       -3.7926  -21.1542  -49.2883 H         1 UNK         0.3000 
    211 H211       -1.9534  -21.4768  -50.3888 H         1 UNK         0.0600 
    212 H212       -1.8492  -21.6981  -52.7330 H         1 UNK         0.0600 
    213 H213       -3.4331  -20.9810  -52.4980 H         1 UNK         0.0600 
    214 H214       -3.2970  -22.6962  -52.8293 H         1 UNK         0.0600 
    215 H215       -3.7286  -23.8326  -49.1424 H         1 UNK         0.3000 
    216 H216       -3.4771  -25.8496  -48.3719 H         1 UNK         0.0600 
    217 H217       -1.3258  -27.0318  -48.2773 H         1 UNK         0.0600 
    218 H218       -0.6081  -25.9312  -49.4407 H         1 UNK         0.0600 
    219 H219       -1.0977  -25.3421  -47.8524 H         1 UNK         0.0600 
    220 H220       -2.0365  -25.6715  -51.6204 H         1 UNK         0.3000 
    221 H221       -4.0521  -27.6121  -52.6408 H         1 UNK         0.0600 
    222 H222       -1.8101  -28.7244  -52.7774 H         1 UNK         0.0600 
    223 H223       -1.1382  -27.3118  -53.5884 H         1 UNK         0.0600 
    224 H224       -2.3799  -28.2772  -54.3794 H         1 UNK         0.0600 
    225 H225       -5.4148  -26.3764  -53.8018 H         1 UNK         0.3000 
    226 H226       -5.2907  -23.6637  -53.9519 H         1 UNK         0.0600 
    227 H227       -6.9313  -25.5634  -55.7054 H         1 UNK         0.0600 
    228 H228       -7.3725  -24.9732  -54.1016 H         1 UNK         0.0600 
    229 H229       -7.2860  -23.8580  -55.4541 H         1 UNK         0.0600 
    230 H230       -3.9345  -25.8018  -56.3639 H         1 UNK         0.3000 
    231 H231       -3.7081  -24.0607  -58.5809 H         1 UNK         0.0600 
    232 H232       -1.9119  -26.3788  -57.6822 H         1 UNK         0.0600 
    233 H233       -1.9108  -25.6559  -59.2867 H         1 UNK         0.0600 
    234 H234       -3.3359  -26.5087  -58.7160 H         1 UNK         0.0600 
    235 H235       -1.8308  -24.1753  -55.5724 H         1 UNK         0.3000 
    236 H236        0.4259  -22.6502  -56.5270 H         1 UNK         0.0600 
    237 H237        0.9460  -22.4832  -54.0686 H         1 UNK         0.0600 
    238 H238       -0.5788  -23.2807  -53.7093 H         1 UNK         0.0600 
    239 H239        0.6683  -24.1329  -54.6051 H         1 UNK         0.0600 
    240 H240       -2.7983  -21.7171  -55.8137 H         1 UNK         0.3000 
    241 H241       -2.1948  -18.9100  -55.2751 H         1 UNK         0.0600 
    242 H242       -2.2287  -19.4681  -59.2766 H         1 UNK         0.3800 
    243 H243       -2.0601  -20.8232  -58.1928 H         1 UNK         0.3800 
    244 H244       -4.3276  -20.2786  -54.5134 H         1 UNK         0.0800 
    245 H245       -4.9082  -20.0000  -56.1164 H         1 UNK         0.0800 
    246 H246       -4.6255  -18.9530  -52.6343 H         1 UNK         0.0800 
    247 H247       -5.3170  -17.3607  -52.5692 H         1 UNK         0.0800 
@<TRIPOS>BOND
     1    1    2 1    
     2    1  127 1    
     3    1  128 1    
     4    1  129 1    
     5    2    3 2    
     6    2    4 am   BACKBONE|DICT|INTERRES
     7    4    5 1    
     8    4  130 1    
     9    5    6 1    
    10    5   65 1    
    11    5  131 1    
    12    6    7 1    
    13    6  132 1    
    14    6  133 1    
    15    7    8 1    
    16    8    9 1    
    17    8  134 1    
    18    8  135 1    
    19    9   10 ar   
    20    9   14 ar   
    21   10   11 ar   
    22   10  136 1    
    23   11   12 ar   
    24   11  126 1    
    25   12   13 ar   
    26   12  137 1    
    27   13   14 ar   
    28   13   15 1    
    29   14  138 1    
    30   15   16 1    
    31   15  139 1    
    32   15  140 1    
    33   16   17 1    
    34   17   18 1    
    35   17  141 1    
    36   17  142 1    
    37   18   19 1    
    38   18   67 1    
    39   18  143 1    
    40   19   20 am   BACKBONE|DICT|INTERRES
    41   19  144 1    
    42   20   21 2    
    43   20   22 1    
    44   22   23 1    
    45   22   24 1    
    46   22  145 1    
    47   23  146 1    
    48   23  147 1    
    49   23  148 1    
    50   24   25 am   BACKBONE|DICT|INTERRES
    51   24  149 1    
    52   25   26 2    
    53   25   27 1    
    54   27   28 1    
    55   27   29 1    
    56   27  150 1    
    57   28  151 1    
    58   28  152 1    
    59   28  153 1    
    60   29   30 am   BACKBONE|DICT|INTERRES
    61   29  154 1    
    62   30   31 2    
    63   30   32 1    
    64   32   33 1    
    65   32   34 1    
    66   32  155 1    
    67   33  156 1    
    68   33  157 1    
    69   33  158 1    
    70   34   35 am   BACKBONE|DICT|INTERRES
    71   34  159 1    
    72   35   36 2    
    73   35   37 1    
    74   37   38 1    
    75   37   39 1    
    76   37  160 1    
    77   38  161 1    
    78   38  162 1    
    79   38  163 1    
    80   39   40 am   BACKBONE|DICT|INTERRES
    81   39  164 1    
    82   40   41 2    
    83   40   42 1    
    84   42   43 1    
    85   42   44 1    
    86   42  165 1    
    87   43  166 1    
    88   43  167 1    
    89   43  168 1    
    90   44   45 am   BACKBONE|DICT|INTERRES
    91   44  169 1    
    92   45   46 2    
    93   45   47 1    
    94   47   48 1    
    95   47   49 1    
    96   47  170 1    
    97   48  171 1    
    98   48  172 1    
    99   48  173 1    
   100   49   50 am   BACKBONE|DICT|INTERRES
   101   49  174 1    
   102   50   51 2    
   103   50   52 1    
   104   52   53 1    
   105   52   54 1    
   106   52  175 1    
   107   53  176 1    
   108   53  177 1    
   109   53  178 1    
   110   54   55 am   BACKBONE|DICT|INTERRES
   111   54  179 1    
   112   55   56 2    
   113   55   57 1    
   114   57   58 1    
   115   57   59 1    
   116   57  180 1    
   117   58  181 1    
   118   58  182 1    
   119   58  183 1    
   120   59   60 am   BACKBONE|DICT|INTERRES
   121   59  184 1    
   122   60   61 2    
   123   60   62 1    
   124   62   63 1    
   125   62   64 1    
   126   62  185 1    
   127   63  186 1    
   128   63  187 1    
   129   63  188 1    
   130   64   65 am   BACKBONE|DICT|INTERRES
   131   64  189 1    
   132   65   66 2    
   133   67   68 2    
   134   67   69 am   BACKBONE|DICT|INTERRES
   135   69   70 1    
   136   69  190 1    
   137   70   71 1    
   138   70   72 1    
   139   70  191 1    
   140   71  192 1    
   141   71  193 1    
   142   71  194 1    
   143   72   73 2    
   144   72   74 am   BACKBONE|DICT|INTERRES
   145   74   75 1    
   146   74  195 1    
   147   75   76 1    
   148   75   77 1    
   149   75  196 1    
   150   76  197 1    
   151   76  198 1    
   152   76  199 1    
   153   77   78 2    
   154   77   79 am   BACKBONE|DICT|INTERRES
   155   79   80 1    
   156   79  200 1    
   157   80   81 1    
   158   80   82 1    
   159   80  201 1    
   160   81  202 1    
   161   81  203 1    
   162   81  204 1    
   163   82   83 2    
   164   82   84 am   BACKBONE|DICT|INTERRES
   165   84   85 1    
   166   84  205 1    
   167   85   86 1    
   168   85   87 1    
   169   85  206 1    
   170   86  207 1    
   171   86  208 1    
   172   86  209 1    
   173   87   88 2    
   174   87   89 am   BACKBONE|DICT|INTERRES
   175   89   90 1    
   176   89  210 1    
   177   90   91 1    
   178   90   92 1    
   179   90  211 1    
   180   91  212 1    
   181   91  213 1    
   182   91  214 1    
   183   92   93 2    
   184   92   94 am   BACKBONE|DICT|INTERRES
   185   94   95 1    
   186   94  215 1    
   187   95   96 1    
   188   95   97 1    
   189   95  216 1    
   190   96  217 1    
   191   96  218 1    
   192   96  219 1    
   193   97   98 2    
   194   97   99 am   BACKBONE|DICT|INTERRES
   195   99  100 1    
   196   99  220 1    
   197  100  101 1    
   198  100  102 1    
   199  100  221 1    
   200  101  222 1    
   201  101  223 1    
   202  101  224 1    
   203  102  103 2    
   204  102  104 am   BACKBONE|DICT|INTERRES
   205  104  105 1    
   206  104  225 1    
   207  105  106 1    
   208  105  107 1    
   209  105  226 1    
   210  106  227 1    
   211  106  228 1    
   212  106  229 1    
   213  107  108 2    
   214  107  109 am   BACKBONE|DICT|INTERRES
   215  109  110 1    
   216  109  230 1    
   217  110  111 1    
   218  110  112 1    
   219  110  231 1    
   220  111  232 1    
   221  111  233 1    
   222  111  234 1    
   223  112  113 2    
   224  112  114 am   BACKBONE|DICT|INTERRES
   225  114  115 1    
   226  114  235 1    
   227  115  116 1    
   228  115  117 1    
   229  115  236 1    
   230  116  237 1    
   231  116  238 1    
   232  116  239 1    
   233  117  118 2    
   234  117  119 am   BACKBONE|DICT|INTERRES
   235  119  120 1    
   236  119  240 1    
   237  120  121 1    
   238  120  124 1    
   239  120  241 1    
   240  121  122 am   BACKBONE|DICT|INTERRES
   241  121  123 2    
   242  122  242 1    
   243  122  243 1    
   244  124  125 1    
   245  124  244 1    
   246  124  245 1    
   247  125  126 1    
   248  126  246 1    
   249  126  247 1    
@<TRIPOS>SUBSTRUCTURE
     1 UNK         1 GROUP             0       ****    0 ROOT    
