@<TRIPOS>MOLECULE
3R540
247   249    1
SMALL
USER_CHARGES


@<TRIPOS>ATOM
      1 CA         -3.6558  -12.9344  -51.4150 C.3       0 UNK        -0.1800 
      2 C          -3.5617  -13.6111  -50.0552 C.2       0 UNK         0.5000 
      3 O          -2.6027  -14.3344  -49.7936 O.2       0 UNK        -0.5000 
      4 N          -4.5346  -13.3525  -49.1712 N.am      1 UNK        -0.5000 
      5 CA         -4.6246  -13.9170  -47.8152 C.3       1 UNK         0.1400 
      6 C6         -5.9460  -13.5149  -47.1109 C.3       23 UNK        -0.0398 
      7 S7         -7.4426  -14.0608  -48.0045 S.3       23 UNK        -0.2404 
      8 C8         -7.9680  -15.4972  -47.0135 C.3       23 UNK        -0.0205 
      9 C9         -7.0628  -16.6955  -47.2491 C.ar      23 UNK        -0.0193 
     10 C10        -7.3273  -17.5779  -48.3005 C.ar      23 UNK        -0.1150 
     11 C11        -6.4752  -18.6569  -48.5536 C.ar      23 UNK        -0.0193 
     12 C12        -5.3515  -18.8476  -47.7456 C.ar      23 UNK        -0.1150 
     13 C13        -5.0901  -17.9850  -46.6783 C.ar      23 UNK        -0.0193 
     14 C14        -5.9534  -16.9162  -46.4281 C.ar      23 UNK        -0.1150 
     15 C15        -3.8675  -18.2005  -45.8060 C.3       23 UNK        -0.0205 
     16 S16        -4.2850  -19.1547  -44.3151 S.3       23 UNK        -0.2404 
     17 C17        -2.6179  -19.4650  -43.6348 C.3       23 UNK        -0.0398 
     18 CA         -2.0024  -20.8732  -43.8788 C.3       11 UNK         0.1400 
     19 N          -2.4750  -21.8975  -42.9400 N.am      11 UNK        -0.5000 
     20 C          -3.6544  -22.5273  -42.8372 C.2       10 UNK         0.5000 
     21 O          -4.5951  -22.3877  -43.6175 O.2       10 UNK        -0.5000 
     22 CA         -3.7921  -23.5095  -41.6561 C.3       10 UNK         0.1400 
     23 CB         -3.5447  -24.9489  -42.1347 C.3       10 UNK        -0.1800 
     24 N          -2.8629  -23.2073  -40.5625 N.am      10 UNK        -0.5000 
     25 C          -3.0177  -22.2030  -39.6864 C.2       9 UNK         0.5000 
     26 O          -4.0171  -21.4861  -39.6342 O.2       9 UNK        -0.5000 
     27 CA         -1.8321  -21.9322  -38.7384 C.3       9 UNK         0.1400 
     28 CB         -1.9275  -22.8141  -37.4841 C.3       9 UNK        -0.1800 
     29 N          -0.5319  -22.1438  -39.3854 N.am      9 UNK        -0.5000 
     30 C          -0.0503  -21.3856  -40.3795 C.2       8 UNK         0.5000 
     31 O          -0.6314  -20.3961  -40.8297 O.2       8 UNK        -0.5000 
     32 CA          1.2684  -21.8437  -41.0145 C.3       8 UNK         0.1400 
     33 CB          1.0510  -23.0938  -41.8886 C.3       8 UNK        -0.1800 
     34 N           1.8207  -20.7528  -41.8144 N.am      8 UNK        -0.5000 
     35 C           3.1011  -20.6190  -42.1707 C.2       7 UNK         0.5000 
     36 O           3.9601  -21.4737  -41.9449 O.2       7 UNK        -0.5000 
     37 CA          3.4793  -19.3096  -42.8932 C.3       7 UNK         0.1400 
     38 CB          5.0019  -19.1243  -43.0239 C.3       7 UNK        -0.1800 
     39 N           2.8956  -19.2271  -44.2293 N.am      7 UNK        -0.5000 
     40 C           1.6494  -18.8470  -44.5297 C.2       6 UNK         0.5000 
     41 O           0.8017  -18.5923  -43.6727 O.2       6 UNK        -0.5000 
     42 CA          1.3060  -18.7179  -46.0328 C.3       6 UNK         0.1400 
     43 CB          0.0091  -17.9268  -46.2781 C.3       6 UNK        -0.1800 
     44 N           2.3741  -18.0972  -46.8195 N.am      6 UNK        -0.5000 
     45 C           3.4821  -18.7132  -47.2558 C.2       5 UNK         0.5000 
     46 O           3.7715  -19.8696  -46.9544 O.2       5 UNK        -0.5000 
     47 CA          4.4346  -17.9156  -48.1667 C.3       5 UNK         0.1400 
     48 CB          4.1634  -18.2657  -49.6369 C.3       5 UNK        -0.1800 
     49 N           4.3211  -16.4675  -48.0016 N.am      5 UNK        -0.5000 
     50 C           4.6920  -15.7840  -46.9106 C.2       4 UNK         0.5000 
     51 O           5.2501  -16.2959  -45.9398 O.2       4 UNK        -0.5000 
     52 CA          4.3652  -14.2772  -46.8935 C.3       4 UNK         0.1400 
     53 CB          5.6115  -13.4541  -47.2538 C.3       4 UNK        -0.1800 
     54 N           3.2637  -13.8877  -47.7831 N.am      4 UNK        -0.5000 
     55 C           1.9914  -14.2879  -47.6532 C.2       3 UNK         0.5000 
     56 O           1.6147  -15.1058  -46.8123 O.2       3 UNK        -0.5000 
     57 CA          0.9798  -13.7029  -48.6580 C.3       3 UNK         0.1400 
     58 CB          0.6105  -14.7624  -49.7086 C.3       3 UNK        -0.1800 
     59 N          -0.2398  -13.2023  -48.0143 N.am      3 UNK        -0.5000 
     60 C          -0.2735  -12.2573  -47.0598 C.2       2 UNK         0.5000 
     61 O           0.7349  -11.6783  -46.6511 O.2       2 UNK        -0.5000 
     62 CA         -1.6436  -11.8557  -46.4715 C.3       2 UNK         0.1400 
     63 CB         -1.8049  -10.3255  -46.4307 C.3       2 UNK        -0.1800 
     64 N          -2.7773  -12.4113  -47.2087 N.am      2 UNK        -0.5000 
     65 C          -3.4256  -13.5450  -46.9112 C.2       1 UNK         0.5000 
     66 O          -3.1224  -14.2799  -45.9713 O.2       1 UNK        -0.5000 
     67 C          -1.9595  -21.3245  -45.3568 C.2       11 UNK         0.5000 
     68 O          -0.8985  -21.2639  -45.9812 O.2       11 UNK        -0.5000 
     69 N          -3.0870  -21.8202  -45.8799 N.am      12 UNK        -0.5000 
     70 CA         -3.2639  -22.2925  -47.2529 C.3       12 UNK         0.1400 
     71 CB         -4.7414  -22.6443  -47.4808 C.3       12 UNK        -0.1800 
     72 C          -2.3720  -23.4963  -47.5961 C.2       12 UNK         0.5000 
     73 O          -1.9384  -23.6167  -48.7406 O.2       12 UNK        -0.5000 
     74 N          -2.0925  -24.3403  -46.5930 N.am      13 UNK        -0.5000 
     75 CA         -1.2154  -25.5058  -46.6936 C.3       13 UNK         0.1400 
     76 CB         -1.3350  -26.3374  -45.4072 C.3       13 UNK        -0.1800 
     77 C           0.2530  -25.1269  -46.9589 C.2       13 UNK         0.5000 
     78 O           0.9115  -25.7860  -47.7630 O.2       13 UNK        -0.5000 
     79 N           0.7284  -24.0565  -46.3056 N.am      14 UNK        -0.5000 
     80 CA          2.0784  -23.5165  -46.4851 C.3       14 UNK         0.1400 
     81 CB          2.4332  -22.6094  -45.2998 C.3       14 UNK        -0.1800 
     82 C           2.2268  -22.7689  -47.8202 C.2       14 UNK         0.5000 
     83 O           3.2600  -22.8935  -48.4781 O.2       14 UNK        -0.5000 
     84 N           1.1659  -22.0538  -48.2197 N.am      15 UNK        -0.5000 
     85 CA          1.0595  -21.3795  -49.5146 C.3       15 UNK         0.1400 
     86 CB         -0.1106  -20.3863  -49.4485 C.3       15 UNK        -0.1800 
     87 C           0.8635  -22.3463  -50.7020 C.2       15 UNK         0.5000 
     88 O           0.9762  -21.9168  -51.8518 O.2       15 UNK        -0.5000 
     89 N           0.5146  -23.6087  -50.4038 N.am      16 UNK        -0.5000 
     90 CA          0.1145  -24.6768  -51.3272 C.3       16 UNK         0.1400 
     91 CB          1.3252  -25.1527  -52.1552 C.3       16 UNK        -0.1800 
     92 C          -1.0895  -24.2682  -52.2032 C.2       16 UNK         0.5000 
     93 O          -1.1527  -24.6333  -53.3787 O.2       16 UNK        -0.5000 
     94 N          -1.9824  -23.4502  -51.6234 N.am      17 UNK        -0.5000 
     95 CA         -3.0762  -22.6750  -52.2227 C.3       17 UNK         0.1400 
     96 CB         -4.1536  -23.5985  -52.8195 C.3       17 UNK        -0.1800 
     97 C          -2.6201  -21.6156  -53.2504 C.2       17 UNK         0.5000 
     98 O          -3.0958  -20.4809  -53.2024 O.2       17 UNK        -0.5000 
     99 N          -1.7136  -21.9992  -54.1557 N.am      18 UNK        -0.5000 
    100 CA        -1.2180  -21.2322  -55.2949 C.3       18 UNK         0.1400 
    101 CB        -0.2157  -22.0927  -56.0784 C.3       18 UNK        -0.1800 
    102 C         -0.5954  -19.8745  -54.9333 C.2       18 UNK         0.5000 
    103 O         -0.9046  -18.8842  -55.5963 O.2       18 UNK        -0.5000 
    104 N          0.2388  -19.8267  -53.8835 N.am      19 UNK        -0.5000 
    105 CA         0.9169  -18.5951  -53.4595 C.3       19 UNK         0.1400 
    106 CB         2.0987  -18.9356  -52.5418 C.3       19 UNK        -0.1800 
    107 C         -0.0278  -17.5779  -52.7890 C.2       19 UNK         0.5000 
    108 O          0.2848  -16.3879  -52.7714 O.2       19 UNK        -0.5000 
    109 N         -1.1731  -18.0568  -52.2850 N.am      20 UNK        -0.5000 
    110 CA        -2.2630  -17.2387  -51.7514 C.3       20 UNK         0.1400 
    111 CB        -2.9003  -17.9833  -50.5650 C.3       20 UNK        -0.1800 
    112 C         -3.3125  -16.8940  -52.8318 C.2       20 UNK         0.5000 
    113 O         -4.2844  -16.2037  -52.5272 O.2       20 UNK        -0.5000 
    114 N         -3.1045  -17.3788  -54.0682 N.am      21 UNK        -0.5000 
    115 CA        -3.9781  -17.2614  -55.2410 C.3       21 UNK         0.1400 
    116 CB        -4.1200  -15.7892  -55.6817 C.3       21 UNK        -0.1800 
    117 C         -5.3356  -17.9776  -55.0670 C.2       21 UNK         0.5000 
    118 O         -6.3291  -17.5693  -55.6718 O.2       21 UNK        -0.5000 
    119 N         -5.3508  -19.0411  -54.2547 N.am      22 UNK        -0.5000 
    120 CA        -6.5420  -19.8372  -53.9167 C.3       22 UNK         0.1400 
    121 C         -6.7506  -21.0724  -54.8401 C.2       22 UNK         0.5000 
    122 N         -5.8633  -21.3574  -55.7859 N.am      22 UNK        -0.7600 
    123 O         -7.7432  -21.7821  -54.7040 O.2       22 UNK        -0.5000 
    124 C124       -6.5414  -20.2538  -52.4228 C.3       23 UNK        -0.0398 
    125 S125       -6.4224  -18.8231  -51.3010 S.3       23 UNK        -0.2404 
    126 C126       -6.7648  -19.6103  -49.7018 C.3       23 UNK        -0.0205 
    127 H127       -3.4788  -13.6571  -52.2108 H         1 UNK         0.0600 
    128 H128       -4.6365  -12.4867  -51.5762 H         1 UNK         0.0600 
    129 H129       -2.9024  -12.1510  -51.4949 H         1 UNK         0.0600 
    130 H130       -5.3067  -12.7615  -49.4453 H         1 UNK         0.3000 
    131 H131       -4.6066  -15.0025  -47.9260 H         1 UNK         0.0600 
    132 H132       -6.0005  -12.4298  -47.0071 H         1 UNK         0.0800 
    133 H133       -5.9792  -13.9080  -46.0935 H         1 UNK         0.0800 
    134 H134       -8.9931  -15.7540  -47.2849 H         1 UNK         0.0800 
    135 H135       -7.9934  -15.2342  -45.9549 H         1 UNK         0.0800 
    136 H136       -8.1857  -17.4145  -48.9371 H         1 UNK         0.1150 
    137 H137       -4.6778  -19.6669  -47.9470 H         1 UNK         0.1150 
    138 H138       -5.7465  -16.2467  -45.6053 H         1 UNK         0.1150 
    139 H139       -3.1043  -18.7280  -46.3782 H         1 UNK         0.0800 
    140 H140       -3.4358  -17.2395  -45.5206 H         1 UNK         0.0800 
    141 H141       -1.9406  -18.6962  -44.0041 H         1 UNK         0.0800 
    142 H142       -2.6679  -19.2834  -42.5602 H         1 UNK         0.0800 
    143 H143       -0.9514  -20.7694  -43.6047 H         1 UNK         0.0600 
    144 H144       -1.8173  -22.1001  -42.2036 H         1 UNK         0.3000 
    145 H145       -4.8158  -23.4408  -41.2819 H         1 UNK         0.0600 
    146 H146       -3.7002  -25.6644  -41.3271 H         1 UNK         0.0600 
    147 H147       -4.2297  -25.2170  -42.9403 H         1 UNK         0.0600 
    148 H148       -2.5292  -25.0815  -42.5097 H         1 UNK         0.0600 
    149 H149       -2.0278  -23.7712  -40.5052 H         1 UNK         0.3000 
    150 H150       -1.8898  -20.8874  -38.4256 H         1 UNK         0.0600 
    151 H151       -2.8784  -22.6616  -36.9717 H         1 UNK         0.0600 
    152 H152       -1.1356  -22.5759  -36.7737 H         1 UNK         0.0600 
    153 H153       -1.8527  -23.8745  -37.7282 H         1 UNK         0.0600 
    154 H154        0.0070  -22.9355  -39.0637 H         1 UNK         0.3000 
    155 H155        1.9611  -22.0805  -40.2041 H         1 UNK         0.0600 
    156 H156        2.0051  -23.5244  -42.1901 H         1 UNK         0.0600 
    157 H157        0.4824  -22.8642  -42.7902 H         1 UNK         0.0600 
    158 H158        0.5146  -23.8751  -41.3492 H         1 UNK         0.0600 
    159 H159        1.1636  -20.0088  -42.0327 H         1 UNK         0.3000 
    160 H160        3.0979  -18.4830  -42.2900 H         1 UNK         0.0600 
    161 H161        5.2432  -18.1615  -43.4754 H         1 UNK         0.0600 
    162 H162        5.4517  -19.9035  -43.6407 H         1 UNK         0.0600 
    163 H163        5.4862  -19.1547  -42.0471 H         1 UNK         0.0600 
    164 H164        3.5008  -19.4760  -45.0041 H         1 UNK         0.3000 
    165 H165        1.1571  -19.7285  -46.4143 H         1 UNK         0.0600 
    166 H166        0.0051  -16.9763  -45.7434 H         1 UNK         0.0600 
    167 H167       -0.1419  -17.7107  -47.3356 H         1 UNK         0.0600 
    168 H168       -0.8519  -18.4979  -45.9443 H         1 UNK         0.0600 
    169 H169        2.2456  -17.1136  -47.0288 H         1 UNK         0.3000 
    170 H170        5.4565  -18.2119  -47.9210 H         1 UNK         0.0600 
    171 H171        4.2542  -19.3393  -49.8089 H         1 UNK         0.0600 
    172 H172        3.1571  -17.9689  -49.9338 H         1 UNK         0.0600 
    173 H173        4.8716  -17.7696  -50.3007 H         1 UNK         0.0600 
    174 H174        3.8815  -15.9574  -48.7528 H         1 UNK         0.3000 
    175 H175        4.0713  -14.0233  -45.8729 H         1 UNK         0.0600 
    176 H176        5.9380  -13.6455  -48.2768 H         1 UNK         0.0600 
    177 H177        5.4213  -12.3852  -47.1550 H         1 UNK         0.0600 
    178 H178        6.4449  -13.6959  -46.5927 H         1 UNK         0.0600 
    179 H179        3.4927  -13.2201  -48.5055 H         1 UNK         0.3000 
    180 H180        1.4457  -12.8602  -49.1725 H         1 UNK         0.0600 
    181 H181        0.0529  -15.5904  -49.2682 H         1 UNK         0.0600 
    182 H182        1.5003  -15.1808  -50.1808 H         1 UNK         0.0600 
    183 H183       -0.0000  -14.3341  -50.5036 H         1 UNK         0.0600 
    184 H184       -1.1091  -13.6292  -48.3108 H         1 UNK         0.3000 
    185 H185       -1.6640  -12.2202  -45.4424 H         1 UNK         0.0600 
    186 H186       -1.0266   -9.8611  -45.8238 H         1 UNK         0.0600 
    187 H187       -1.7484   -9.8887  -47.4285 H         1 UNK         0.0600 
    188 H188       -2.7625  -10.0417  -45.9938 H         1 UNK         0.0600 
    189 H189       -3.0836  -11.8901  -48.0176 H         1 UNK         0.3000 
    190 H190       -3.8909  -21.8881  -45.2588 H         1 UNK         0.3000 
    191 H191       -2.9945  -21.4747  -47.9230 H         1 UNK         0.0600 
    192 H192       -4.9207  -22.9231  -48.5201 H         1 UNK         0.0600 
    193 H193       -5.3936  -21.8020  -47.2516 H         1 UNK         0.0600 
    194 H194       -5.0548  -23.4815  -46.8558 H         1 UNK         0.0600 
    195 H195       -2.5066  -24.1563  -45.6918 H         1 UNK         0.3000 
    196 H196       -1.5600  -26.1159  -47.5313 H         1 UNK         0.0600 
    197 H197       -0.7143  -27.2327  -45.4628 H         1 UNK         0.0600 
    198 H198       -2.3617  -26.6652  -45.2427 H         1 UNK         0.0600 
    199 H199       -1.0181  -25.7728  -44.5295 H         1 UNK         0.0600 
    200 H200        0.1066  -23.5380  -45.7030 H         1 UNK         0.3000 
    201 H201        2.7879  -24.3469  -46.4941 H         1 UNK         0.0600 
    202 H202        2.5216  -23.1907  -44.3846 H         1 UNK         0.0600 
    203 H203        1.6828  -21.8360  -45.1395 H         1 UNK         0.0600 
    204 H204        3.3928  -22.1150  -45.4543 H         1 UNK         0.0600 
    205 H205        0.3692  -21.9788  -47.5981 H         1 UNK         0.3000 
    206 H206        1.9815  -20.8217  -49.6894 H         1 UNK         0.0600 
    207 H207        0.0503  -19.6397  -48.6735 H         1 UNK         0.0600 
    208 H208       -0.2295  -19.8528  -50.3902 H         1 UNK         0.0600 
    209 H209       -1.0544  -20.8895  -49.2399 H         1 UNK         0.0600 
    210 H210        0.4032  -23.8307  -49.4243 H         1 UNK         0.3000 
    211 H211       -0.2211  -25.5108  -50.7094 H         1 UNK         0.0600 
    212 H212        1.6765  -24.3793  -52.8392 H         1 UNK         0.0600 
    213 H213        1.0711  -26.0284  -52.7533 H         1 UNK         0.0600 
    214 H214        2.1574  -25.4320  -51.5090 H         1 UNK         0.0600 
    215 H215       -1.8452  -23.2875  -50.6290 H         1 UNK         0.3000 
    216 H216       -3.5331  -22.1275  -51.3967 H         1 UNK         0.0600 
    217 H217       -3.7712  -24.1886  -53.6525 H         1 UNK         0.0600 
    218 H218       -4.9997  -23.0236  -53.1956 H         1 UNK         0.0600 
    219 H219       -4.5381  -24.2888  -52.0688 H         1 UNK         0.0600 
    220 H220       -1.3849  -22.9591  -54.0827 H         1 UNK         0.3000 
    221 H221       -2.0739  -21.0348  -55.9432 H         1 UNK         0.0600 
    222 H222        0.6390  -22.3742  -55.4615 H         1 UNK         0.0600 
    223 H223       -0.6820  -23.0091  -56.4405 H         1 UNK         0.0600 
    224 H224        0.1668  -21.5570  -56.9484 H         1 UNK         0.0600 
    225 H225        0.4384  -20.6707  -53.3532 H         1 UNK         0.3000 
    226 H226        1.3255  -18.1153  -54.3516 H         1 UNK         0.0600 
    227 H227        2.7533  -19.6806  -52.9943 H         1 UNK         0.0600 
    228 H228        2.7017  -18.0481  -52.3479 H         1 UNK         0.0600 
    229 H229        1.7651  -19.3202  -51.5802 H         1 UNK         0.0600 
    230 H230       -1.3695  -19.0432  -52.3884 H         1 UNK         0.3000 
    231 H231       -1.8624  -16.2946  -51.3794 H         1 UNK         0.0600 
    232 H232       -3.3116  -18.9471  -50.8665 H         1 UNK         0.0600 
    233 H233       -3.7135  -17.4011  -50.1289 H         1 UNK         0.0600 
    234 H234       -2.1727  -18.1590  -49.7729 H         1 UNK         0.0600 
    235 H235       -2.2689  -17.9291  -54.2215 H         1 UNK         0.3000 
    236 H236       -3.4666  -17.7915  -56.0453 H         1 UNK         0.0600 
    237 H237       -3.1446  -15.3164  -55.7959 H         1 UNK         0.0600 
    238 H238       -4.6287  -15.7165  -56.6435 H         1 UNK         0.0600 
    239 H239       -4.6956  -15.2037  -54.9644 H         1 UNK         0.0600 
    240 H240       -4.4857  -19.3371  -53.8105 H         1 UNK         0.3000 
    241 H241       -7.4257  -19.2147  -54.0681 H         1 UNK         0.0600 
    242 H242       -5.0544  -20.7729  -55.9173 H         1 UNK         0.3800 
    243 H243       -6.0135  -22.1540  -56.3847 H         1 UNK         0.3800 
    244 H244       -7.4524  -20.8030  -52.1784 H         1 UNK         0.0800 
    245 H245       -5.7075  -20.9230  -52.2111 H         1 UNK         0.0800 
    246 H246       -6.1626  -20.5154  -49.6074 H         1 UNK         0.0800 
    247 H247       -7.8090  -19.9238  -49.6652 H         1 UNK         0.0800 
@<TRIPOS>BOND
     1    1    2 1    
     2    1  127 1    
     3    1  128 1    
     4    1  129 1    
     5    2    3 2    
     6    2    4 am   BACKBONE|DICT|INTERRES
     7    4    5 1    
     8    4  130 1    
     9    5    6 1    
    10    5   65 1    
    11    5  131 1    
    12    6    7 1    
    13    6  132 1    
    14    6  133 1    
    15    7    8 1    
    16    8    9 1    
    17    8  134 1    
    18    8  135 1    
    19    9   10 ar   
    20    9   14 ar   
    21   10   11 ar   
    22   10  136 1    
    23   11   12 ar   
    24   11  126 1    
    25   12   13 ar   
    26   12  137 1    
    27   13   14 ar   
    28   13   15 1    
    29   14  138 1    
    30   15   16 1    
    31   15  139 1    
    32   15  140 1    
    33   16   17 1    
    34   17   18 1    
    35   17  141 1    
    36   17  142 1    
    37   18   19 1    
    38   18   67 1    
    39   18  143 1    
    40   19   20 am   BACKBONE|DICT|INTERRES
    41   19  144 1    
    42   20   21 2    
    43   20   22 1    
    44   22   23 1    
    45   22   24 1    
    46   22  145 1    
    47   23  146 1    
    48   23  147 1    
    49   23  148 1    
    50   24   25 am   BACKBONE|DICT|INTERRES
    51   24  149 1    
    52   25   26 2    
    53   25   27 1    
    54   27   28 1    
    55   27   29 1    
    56   27  150 1    
    57   28  151 1    
    58   28  152 1    
    59   28  153 1    
    60   29   30 am   BACKBONE|DICT|INTERRES
    61   29  154 1    
    62   30   31 2    
    63   30   32 1    
    64   32   33 1    
    65   32   34 1    
    66   32  155 1    
    67   33  156 1    
    68   33  157 1    
    69   33  158 1    
    70   34   35 am   BACKBONE|DICT|INTERRES
    71   34  159 1    
    72   35   36 2    
    73   35   37 1    
    74   37   38 1    
    75   37   39 1    
    76   37  160 1    
    77   38  161 1    
    78   38  162 1    
    79   38  163 1    
    80   39   40 am   BACKBONE|DICT|INTERRES
    81   39  164 1    
    82   40   41 2    
    83   40   42 1    
    84   42   43 1    
    85   42   44 1    
    86   42  165 1    
    87   43  166 1    
    88   43  167 1    
    89   43  168 1    
    90   44   45 am   BACKBONE|DICT|INTERRES
    91   44  169 1    
    92   45   46 2    
    93   45   47 1    
    94   47   48 1    
    95   47   49 1    
    96   47  170 1    
    97   48  171 1    
    98   48  172 1    
    99   48  173 1    
   100   49   50 am   BACKBONE|DICT|INTERRES
   101   49  174 1    
   102   50   51 2    
   103   50   52 1    
   104   52   53 1    
   105   52   54 1    
   106   52  175 1    
   107   53  176 1    
   108   53  177 1    
   109   53  178 1    
   110   54   55 am   BACKBONE|DICT|INTERRES
   111   54  179 1    
   112   55   56 2    
   113   55   57 1    
   114   57   58 1    
   115   57   59 1    
   116   57  180 1    
   117   58  181 1    
   118   58  182 1    
   119   58  183 1    
   120   59   60 am   BACKBONE|DICT|INTERRES
   121   59  184 1    
   122   60   61 2    
   123   60   62 1    
   124   62   63 1    
   125   62   64 1    
   126   62  185 1    
   127   63  186 1    
   128   63  187 1    
   129   63  188 1    
   130   64   65 am   BACKBONE|DICT|INTERRES
   131   64  189 1    
   132   65   66 2    
   133   67   68 2    
   134   67   69 am   BACKBONE|DICT|INTERRES
   135   69   70 1    
   136   69  190 1    
   137   70   71 1    
   138   70   72 1    
   139   70  191 1    
   140   71  192 1    
   141   71  193 1    
   142   71  194 1    
   143   72   73 2    
   144   72   74 am   BACKBONE|DICT|INTERRES
   145   74   75 1    
   146   74  195 1    
   147   75   76 1    
   148   75   77 1    
   149   75  196 1    
   150   76  197 1    
   151   76  198 1    
   152   76  199 1    
   153   77   78 2    
   154   77   79 am   BACKBONE|DICT|INTERRES
   155   79   80 1    
   156   79  200 1    
   157   80   81 1    
   158   80   82 1    
   159   80  201 1    
   160   81  202 1    
   161   81  203 1    
   162   81  204 1    
   163   82   83 2    
   164   82   84 am   BACKBONE|DICT|INTERRES
   165   84   85 1    
   166   84  205 1    
   167   85   86 1    
   168   85   87 1    
   169   85  206 1    
   170   86  207 1    
   171   86  208 1    
   172   86  209 1    
   173   87   88 2    
   174   87   89 am   BACKBONE|DICT|INTERRES
   175   89   90 1    
   176   89  210 1    
   177   90   91 1    
   178   90   92 1    
   179   90  211 1    
   180   91  212 1    
   181   91  213 1    
   182   91  214 1    
   183   92   93 2    
   184   92   94 am   BACKBONE|DICT|INTERRES
   185   94   95 1    
   186   94  215 1    
   187   95   96 1    
   188   95   97 1    
   189   95  216 1    
   190   96  217 1    
   191   96  218 1    
   192   96  219 1    
   193   97   98 2    
   194   97   99 am   BACKBONE|DICT|INTERRES
   195   99  100 1    
   196   99  220 1    
   197  100  101 1    
   198  100  102 1    
   199  100  221 1    
   200  101  222 1    
   201  101  223 1    
   202  101  224 1    
   203  102  103 2    
   204  102  104 am   BACKBONE|DICT|INTERRES
   205  104  105 1    
   206  104  225 1    
   207  105  106 1    
   208  105  107 1    
   209  105  226 1    
   210  106  227 1    
   211  106  228 1    
   212  106  229 1    
   213  107  108 2    
   214  107  109 am   BACKBONE|DICT|INTERRES
   215  109  110 1    
   216  109  230 1    
   217  110  111 1    
   218  110  112 1    
   219  110  231 1    
   220  111  232 1    
   221  111  233 1    
   222  111  234 1    
   223  112  113 2    
   224  112  114 am   BACKBONE|DICT|INTERRES
   225  114  115 1    
   226  114  235 1    
   227  115  116 1    
   228  115  117 1    
   229  115  236 1    
   230  116  237 1    
   231  116  238 1    
   232  116  239 1    
   233  117  118 2    
   234  117  119 am   BACKBONE|DICT|INTERRES
   235  119  120 1    
   236  119  240 1    
   237  120  121 1    
   238  120  124 1    
   239  120  241 1    
   240  121  122 am   BACKBONE|DICT|INTERRES
   241  121  123 2    
   242  122  242 1    
   243  122  243 1    
   244  124  125 1    
   245  124  244 1    
   246  124  245 1    
   247  125  126 1    
   248  126  246 1    
   249  126  247 1    
@<TRIPOS>SUBSTRUCTURE
     1 UNK         1 GROUP             0       ****    0 ROOT    
