@<TRIPOS>MOLECULE
3R540
247   249    1
SMALL
USER_CHARGES


@<TRIPOS>ATOM
      1 CA         -5.8270  -16.3669  -47.9726 C.3       0 UNK        -0.1800 
      2 C          -4.5628  -17.1014  -47.5311 C.2       0 UNK         0.5000 
      3 O          -4.6066  -18.3150  -47.3483 O.2       0 UNK        -0.5000 
      4 N          -3.4173  -16.4254  -47.3666 N.am      1 UNK        -0.5000 
      5 CA         -3.2214  -14.9743  -47.4801 C.3       1 UNK         0.1400 
      6 C6         -1.7291  -14.5949  -47.6408 C.3       23 UNK        -0.0398 
      7 S7         -0.9162  -15.4078  -49.0555 S.3       23 UNK        -0.2404 
      8 C8          0.4243  -16.3261  -48.2158 C.3       23 UNK        -0.0205 
      9 C9          1.1900  -17.3177  -49.0928 C.ar      23 UNK        -0.0193 
     10 C10         1.2374  -17.2114  -50.4892 C.ar      23 UNK        -0.1150 
     11 C11         1.9385  -18.1472  -51.2547 C.ar      23 UNK        -0.0193 
     12 C12         2.6246  -19.1824  -50.6165 C.ar      23 UNK        -0.1150 
     13 C13         2.5752  -19.3142  -49.2279 C.ar      23 UNK        -0.0193 
     14 C14         1.8694  -18.3717  -48.4727 C.ar      23 UNK        -0.1150 
     15 C15         3.2356  -20.5095  -48.5513 C.3       23 UNK        -0.0205 
     16 S16         2.4355  -22.0846  -49.0091 S.3       23 UNK        -0.2404 
     17 C17         0.6856  -21.7074  -48.6571 C.3       23 UNK        -0.0398 
     18 CA         -0.0623  -22.8281  -47.9094 C.3       11 UNK         0.1400 
     19 N           0.5767  -23.1759  -46.6376 N.am      11 UNK        -0.5000 
     20 C           0.3001  -24.2815  -45.9336 C.2       10 UNK         0.5000 
     21 O          -0.5279  -25.1228  -46.2815 O.2       10 UNK        -0.5000 
     22 CA          1.0267  -24.4390  -44.5847 C.3       10 UNK         0.1400 
     23 CB          2.4226  -25.0454  -44.7906 C.3       10 UNK        -0.1800 
     24 N           1.1488  -23.1779  -43.8485 N.am      10 UNK        -0.5000 
     25 C           0.1154  -22.4191  -43.4578 C.2       9 UNK         0.5000 
     26 O          -1.0594  -22.7228  -43.6596 O.2       9 UNK        -0.5000 
     27 CA          0.4268  -21.0903  -42.7490 C.3       9 UNK         0.1400 
     28 CB          0.1134  -21.1932  -41.2493 C.3       9 UNK        -0.1800 
     29 N           1.8019  -20.6173  -42.9128 N.am      9 UNK        -0.5000 
     30 C           2.3348  -20.1445  -44.0489 C.2       8 UNK         0.5000 
     31 O           1.7728  -20.2146  -45.1437 O.2       8 UNK        -0.5000 
     32 CA          3.7085  -19.4568  -43.9135 C.3       8 UNK         0.1400 
     33 CB          3.9608  -18.3987  -45.0029 C.3       8 UNK        -0.1800 
     34 N           3.8281  -18.8305  -42.5949 N.am      8 UNK        -0.5000 
     35 C           4.9464  -18.7473  -41.8627 C.2       7 UNK         0.5000 
     36 O           6.0297  -19.2038  -42.2319 O.2       7 UNK        -0.5000 
     37 CA          4.8318  -18.0733  -40.4740 C.3       7 UNK         0.1400 
     38 CB          6.1374  -17.3761  -40.0356 C.3       7 UNK        -0.1800 
     39 N           3.6750  -17.1764  -40.3405 N.am      7 UNK        -0.5000 
     40 C           3.4608  -16.0232  -40.9905 C.2       6 UNK         0.5000 
     41 O           4.2648  -15.4970  -41.7620 O.2       6 UNK        -0.5000 
     42 CA          2.0747  -15.3800  -40.7820 C.3       6 UNK         0.1400 
     43 CB          2.1997  -13.9268  -40.2986 C.3       6 UNK        -0.1800 
     44 N           1.2915  -15.4114  -42.0178 N.am      6 UNK        -0.5000 
     45 C           0.9541  -16.5271  -42.6839 C.2       5 UNK         0.5000 
     46 O           1.1604  -17.6573  -42.2426 O.2       5 UNK        -0.5000 
     47 CA          0.2918  -16.3771  -44.0694 C.3       5 UNK         0.1400 
     48 CB         -1.1749  -16.8322  -44.0264 C.3       5 UNK        -0.1800 
     49 N           0.3528  -15.0112  -44.5900 N.am      5 UNK        -0.5000 
     50 C           1.4503  -14.4178  -45.0809 C.2       4 UNK         0.5000 
     51 O           2.5152  -15.0070  -45.2574 O.2       4 UNK        -0.5000 
     52 CA          1.3542  -12.9141  -45.4253 C.3       4 UNK         0.1400 
     53 CB          1.5662  -12.6781  -46.9297 C.3       4 UNK        -0.1800 
     54 N           0.1068  -12.2553  -45.0116 N.am      4 UNK        -0.5000 
     55 C          -0.2797  -12.0666  -43.7398 C.2       3 UNK         0.5000 
     56 O           0.3443  -12.5017  -42.7719 O.2       3 UNK        -0.5000 
     57 CA         -1.5975  -11.3126  -43.5126 C.3       3 UNK         0.1400 
     58 CB         -1.3720   -9.7911  -43.5203 C.3       3 UNK        -0.1800 
     59 N          -2.6096  -11.6795  -44.5069 N.am      3 UNK        -0.5000 
     60 C          -3.9275  -11.7117  -44.2703 C.2       2 UNK         0.5000 
     61 O          -4.4337  -11.4176  -43.1864 O.2       2 UNK        -0.5000 
     62 CA         -4.8468  -12.1345  -45.4354 C.3       2 UNK         0.1400 
     63 CB         -5.4400  -10.8943  -46.1220 C.3       2 UNK        -0.1800 
     64 N          -4.2010  -12.9734  -46.4516 N.am      2 UNK        -0.5000 
     65 C          -3.8125  -14.2405  -46.2564 C.2       1 UNK         0.5000 
     66 O          -3.8853  -14.8154  -45.1686 O.2       1 UNK        -0.5000 
     67 C          -1.5340  -22.4100  -47.7205 C.2       11 UNK         0.5000 
     68 O          -2.3429  -22.6315  -48.6217 O.2       11 UNK        -0.5000 
     69 N          -1.8529  -21.8026  -46.5692 N.am      12 UNK        -0.5000 
     70 CA         -3.2094  -21.4071  -46.1937 C.3       12 UNK         0.1400 
     71 CB         -3.1529  -20.3444  -45.0854 C.3       12 UNK        -0.1800 
     72 C          -4.0444  -22.6254  -45.7667 C.2       12 UNK         0.5000 
     73 O          -5.1978  -22.7422  -46.1777 O.2       12 UNK        -0.5000 
     74 N          -3.4290  -23.5407  -45.0039 N.am      13 UNK        -0.5000 
     75 CA         -4.0057  -24.8216  -44.5893 C.3       13 UNK         0.1400 
     76 CB         -3.0689  -25.4963  -43.5759 C.3       13 UNK        -0.1800 
     77 C          -4.2922  -25.7586  -45.7782 C.2       13 UNK         0.5000 
     78 O          -5.3335  -26.4153  -45.7991 O.2       13 UNK        -0.5000 
     79 N          -3.3858  -25.7685  -46.7659 N.am      14 UNK        -0.5000 
     80 CA         -3.5433  -26.4732  -48.0411 C.3       14 UNK         0.1400 
     81 CB         -2.1632  -26.5987  -48.7063 C.3       14 UNK        -0.1800 
     82 C          -4.5330  -25.7870  -49.0068 C.2       14 UNK         0.5000 
     83 O          -4.9121  -26.3962  -50.0070 O.2       14 UNK        -0.5000 
     84 N          -4.8975  -24.5293  -48.7133 N.am      15 UNK        -0.5000 
     85 CA         -5.7379  -23.6124  -49.4929 C.3       15 UNK         0.1400 
     86 CB         -7.1568  -24.1799  -49.6964 C.3       15 UNK        -0.1800 
     87 C          -5.1010  -23.1404  -50.8166 C.2       15 UNK         0.5000 
     88 O          -5.7702  -22.4727  -51.6046 O.2       15 UNK        -0.5000 
     89 N          -3.8112  -23.4355  -51.0244 N.am      16 UNK        -0.5000 
     90 CA         -3.0248  -23.0127  -52.1813 C.3       16 UNK         0.1400 
     91 CB         -1.6735  -23.7423  -52.1768 C.3       16 UNK        -0.1800 
     92 C          -2.8150  -21.4917  -52.2152 C.2       16 UNK         0.5000 
     93 O          -2.8672  -20.8988  -53.2921 O.2       16 UNK        -0.5000 
     94 N          -2.6196  -20.8873  -51.0355 N.am      17 UNK        -0.5000 
     95 CA         -2.5148  -19.4378  -50.8663 C.3       17 UNK         0.1400 
     96 CB         -1.9587  -19.1247  -49.4722 C.3       17 UNK        -0.1800 
     97 C          -3.8566  -18.7184  -51.0932 C.2       17 UNK         0.5000 
     98 O          -3.8719  -17.6223  -51.6519 O.2       17 UNK        -0.5000 
     99 N          -4.9584  -19.3606  -50.6813 N.am      18 UNK        -0.5000 
    100 CA        -6.3224  -18.8593  -50.8478 C.3       18 UNK         0.1400 
    101 CB        -7.2692  -19.6394  -49.9225 C.3       18 UNK        -0.1800 
    102 C         -6.7924  -18.9305  -52.3113 C.2       18 UNK         0.5000 
    103 O         -7.4073  -17.9829  -52.8012 O.2       18 UNK        -0.5000 
    104 N         -6.4704  -20.0407  -52.9885 N.am      19 UNK        -0.5000 
    105 CA        -6.7606  -20.2704  -54.4048 C.3       19 UNK         0.1400 
    106 CB        -6.6509  -21.7777  -54.6867 C.3       19 UNK        -0.1800 
    107 C         -5.8342  -19.4899  -55.3584 C.2       19 UNK         0.5000 
    108 O         -6.1583  -19.3719  -56.5406 O.2       19 UNK        -0.5000 
    109 N         -4.6907  -19.0135  -54.8414 N.am      20 UNK        -0.5000 
    110 CA        -3.5604  -18.4201  -55.5674 C.3       20 UNK         0.1400 
    111 CB        -3.9604  -17.0975  -56.2530 C.3       20 UNK        -0.1800 
    112 C         -2.8857  -19.4277  -56.5259 C.2       20 UNK         0.5000 
    113 O         -2.3560  -19.0453  -57.5704 O.2       20 UNK        -0.5000 
    114 N         -2.9108  -20.7067  -56.1316 N.am      21 UNK        -0.5000 
    115 CA        -2.2909  -21.8369  -56.8217 C.3       21 UNK         0.1400 
    116 CB        -3.1368  -23.0907  -56.5481 C.3       21 UNK        -0.1800 
    117 C         -0.8325  -22.0584  -56.3739 C.2       21 UNK         0.5000 
    118 O         -0.1309  -22.8722  -56.9750 O.2       21 UNK        -0.5000 
    119 N         -0.4080  -21.3413  -55.3261 N.am      22 UNK        -0.5000 
    120 CA         0.9372  -21.3632  -54.7352 C.3       22 UNK         0.1400 
    121 C          2.0968  -20.8566  -55.6471 C.2       22 UNK         0.5000 
    122 N          1.8284  -20.1957  -56.7668 N.am      22 UNK        -0.7600 
    123 O          3.2633  -21.0755  -55.3323 O.2       22 UNK        -0.5000 
    124 C124        0.9378  -20.6475  -53.3609 C.3       23 UNK        -0.0398 
    125 S125        0.4554  -18.8831  -53.4618 S.3       23 UNK        -0.2404 
    126 C126        1.9230  -18.0542  -52.7721 C.3       23 UNK        -0.0205 
    127 H127       -5.6696  -15.8577  -48.9232 H         1 UNK         0.0600 
    128 H128       -6.1399  -15.6383  -47.2256 H         1 UNK         0.0600 
    129 H129       -6.6476  -17.0717  -48.1068 H         1 UNK         0.0600 
    130 H130       -2.6046  -16.9427  -47.0719 H         1 UNK         0.3000 
    131 H131       -3.7465  -14.6283  -48.3723 H         1 UNK         0.0600 
    132 H132       -1.6274  -13.5186  -47.7887 H         1 UNK         0.0800 
    133 H133       -1.1808  -14.8295  -46.7308 H         1 UNK         0.0800 
    134 H134       -0.0048  -16.8618  -47.3676 H         1 UNK         0.0800 
    135 H135        1.1398  -15.6122  -47.8087 H         1 UNK         0.0800 
    136 H136        0.7166  -16.4119  -50.9954 H         1 UNK         0.1150 
    137 H137        3.1686  -19.9123  -51.1982 H         1 UNK         0.1150 
    138 H138        1.8282  -18.4740  -47.3968 H         1 UNK         0.1150 
    139 H139        3.2004  -20.4109  -47.4670 H         1 UNK         0.0800 
    140 H140        4.2904  -20.5469  -48.8265 H         1 UNK         0.0800 
    141 H141        0.2059  -21.4988  -49.6154 H         1 UNK         0.0800 
    142 H142        0.6249  -20.7899  -48.0709 H         1 UNK         0.0800 
    143 H143       -0.0564  -23.7174  -48.5433 H         1 UNK         0.0600 
    144 H144        1.2550  -22.5192  -46.2761 H         1 UNK         0.3000 
    145 H145        0.4405  -25.1266  -43.9717 H         1 UNK         0.0600 
    146 H146        2.3602  -25.9957  -45.3227 H         1 UNK         0.0600 
    147 H147        2.9128  -25.2403  -43.8367 H         1 UNK         0.0600 
    148 H148        3.0677  -24.3852  -45.3719 H         1 UNK         0.0600 
    149 H149        2.0821  -22.8546  -43.6422 H         1 UNK         0.3000 
    150 H150       -0.2349  -20.3364  -43.1807 H         1 UNK         0.0600 
    151 H151        0.7632  -21.9134  -40.7507 H         1 UNK         0.0600 
    152 H152       -0.9173  -21.5107  -41.0849 H         1 UNK         0.0600 
    153 H153        0.2363  -20.2288  -40.7557 H         1 UNK         0.0600 
    154 H154        2.3445  -20.5309  -42.0663 H         1 UNK         0.3000 
    155 H155        4.4573  -20.2447  -44.0145 H         1 UNK         0.0600 
    156 H156        4.9245  -17.9090  -44.8627 H         1 UNK         0.0600 
    157 H157        3.1923  -17.6264  -44.9941 H         1 UNK         0.0600 
    158 H158        3.9707  -18.8440  -45.9961 H         1 UNK         0.0600 
    159 H159        2.9702  -18.4169  -42.2378 H         1 UNK         0.3000 
    160 H160        4.6532  -18.8879  -39.7709 H         1 UNK         0.0600 
    161 H161        6.4452  -16.6056  -40.7428 H         1 UNK         0.0600 
    162 H162        6.9565  -18.0922  -39.9604 H         1 UNK         0.0600 
    163 H163        6.0266  -16.9097  -39.0567 H         1 UNK         0.0600 
    164 H164        2.9317  -17.5276  -39.7522 H         1 UNK         0.3000 
    165 H165        1.5278  -15.9434  -40.0232 H         1 UNK         0.0600 
    166 H166        1.2201  -13.4938  -40.0950 H         1 UNK         0.0600 
    167 H167        2.7798  -13.8699  -39.3768 H         1 UNK         0.0600 
    168 H168        2.6943  -13.2968  -41.0393 H         1 UNK         0.0600 
    169 H169        1.0794  -14.5123  -42.4333 H         1 UNK         0.3000 
    170 H170        0.8274  -17.0355  -44.7564 H         1 UNK         0.0600 
    171 H171       -1.6251  -16.8102  -45.0181 H         1 UNK         0.0600 
    172 H172       -1.7750  -16.1984  -43.3723 H         1 UNK         0.0600 
    173 H173       -1.2572  -17.8559  -43.6585 H         1 UNK         0.0600 
    174 H174       -0.4661  -14.4405  -44.4443 H         1 UNK         0.3000 
    175 H175        2.1735  -12.4254  -44.8939 H         1 UNK         0.0600 
    176 H176        2.5027  -13.1225  -47.2697 H         1 UNK         0.0600 
    177 H177        0.7654  -13.1115  -47.5270 H         1 UNK         0.0600 
    178 H178        1.6161  -11.6134  -47.1583 H         1 UNK         0.0600 
    179 H179       -0.4195  -11.8145  -45.7496 H         1 UNK         0.3000 
    180 H180       -1.9496  -11.6017  -42.5197 H         1 UNK         0.0600 
    181 H181       -1.0483   -9.4367  -44.4995 H         1 UNK         0.0600 
    182 H182       -0.6080   -9.5049  -42.7963 H         1 UNK         0.0600 
    183 H183       -2.2845   -9.2562  -43.2563 H         1 UNK         0.0600 
    184 H184       -2.2849  -11.9567  -45.4194 H         1 UNK         0.3000 
    185 H185       -5.6706  -12.7068  -45.0032 H         1 UNK         0.0600 
    186 H186       -5.9588  -10.2590  -45.4027 H         1 UNK         0.0600 
    187 H187       -4.6671  -10.2884  -46.5966 H         1 UNK         0.0600 
    188 H188       -6.1654  -11.1744  -46.8861 H         1 UNK         0.0600 
    189 H189       -4.1110  -12.5630  -47.3705 H         1 UNK         0.3000 
    190 H190       -1.1367  -21.6872  -45.8671 H         1 UNK         0.3000 
    191 H191       -3.6962  -20.9592  -47.0626 H         1 UNK         0.0600 
    192 H192       -2.5758  -19.4762  -45.4041 H         1 UNK         0.0600 
    193 H193       -4.1551  -19.9914  -44.8395 H         1 UNK         0.0600 
    194 H194       -2.7071  -20.7277  -44.1681 H         1 UNK         0.0600 
    195 H195       -2.4950  -23.3331  -44.6581 H         1 UNK         0.3000 
    196 H196       -4.9553  -24.6142  -44.0919 H         1 UNK         0.0600 
    197 H197       -3.4881  -26.4395  -43.2235 H         1 UNK         0.0600 
    198 H198       -2.9113  -24.8628  -42.7027 H         1 UNK         0.0600 
    199 H199       -2.0930  -25.7120  -44.0116 H         1 UNK         0.0600 
    200 H200       -2.5123  -25.2692  -46.6306 H         1 UNK         0.3000 
    201 H201       -3.9213  -27.4777  -47.8404 H         1 UNK         0.0600 
    202 H202       -2.2269  -27.1488  -49.6460 H         1 UNK         0.0600 
    203 H203       -1.4638  -27.1351  -48.0646 H         1 UNK         0.0600 
    204 H204       -1.7332  -25.6209  -48.9262 H         1 UNK         0.0600 
    205 H205       -4.5287  -24.1319  -47.8594 H         1 UNK         0.3000 
    206 H206       -5.8343  -22.7144  -48.8815 H         1 UNK         0.0600 
    207 H207       -7.5945  -24.4946  -48.7490 H         1 UNK         0.0600 
    208 H208       -7.8202  -23.4277  -50.1249 H         1 UNK         0.0600 
    209 H209       -7.1606  -25.0362  -50.3710 H         1 UNK         0.0600 
    210 H210       -3.3125  -23.8991  -50.2780 H         1 UNK         0.3000 
    211 H211       -3.5708  -23.2971  -53.0826 H         1 UNK         0.0600 
    212 H212       -1.0872  -23.5020  -51.2887 H         1 UNK         0.0600 
    213 H213       -1.0791  -23.4675  -53.0494 H         1 UNK         0.0600 
    214 H214       -1.8102  -24.8235  -52.2052 H         1 UNK         0.0600 
    215 H215       -2.5964  -21.4592  -50.1970 H         1 UNK         0.3000 
    216 H216       -1.8099  -19.0512  -51.6039 H         1 UNK         0.0600 
    217 H217       -1.9800  -18.0539  -49.2803 H         1 UNK         0.0600 
    218 H218       -0.9221  -19.4416  -49.3829 H         1 UNK         0.0600 
    219 H219       -2.5363  -19.6073  -48.6850 H         1 UNK         0.0600 
    220 H220       -4.8548  -20.2643  -50.2471 H         1 UNK         0.3000 
    221 H221       -6.3400  -17.8108  -50.5445 H         1 UNK         0.0600 
    222 H222       -7.3098  -20.6978  -50.1806 H         1 UNK         0.0600 
    223 H223       -6.9561  -19.5603  -48.8811 H         1 UNK         0.0600 
    224 H224       -8.2851  -19.2478  -49.9873 H         1 UNK         0.0600 
    225 H225       -6.0322  -20.8108  -52.4893 H         1 UNK         0.3000 
    226 H226       -7.7865  -19.9558  -54.6072 H         1 UNK         0.0600 
    227 H227       -6.8900  -22.0026  -55.7269 H         1 UNK         0.0600 
    228 H228       -5.6437  -22.1494  -54.4931 H         1 UNK         0.0600 
    229 H229       -7.3418  -22.3466  -54.0642 H         1 UNK         0.0600 
    230 H230       -4.5209  -19.1948  -53.8613 H         1 UNK         0.3000 
    231 H231       -2.8124  -18.1821  -54.8093 H         1 UNK         0.0600 
    232 H232       -4.6454  -17.2599  -57.0853 H         1 UNK         0.0600 
    233 H233       -3.0835  -16.5844  -56.6493 H         1 UNK         0.0600 
    234 H234       -4.4415  -16.4192  -55.5483 H         1 UNK         0.0600 
    235 H235       -3.2843  -20.8974  -55.2072 H         1 UNK         0.3000 
    236 H236       -2.2858  -21.6500  -57.8974 H         1 UNK         0.0600 
    237 H237       -3.1529  -23.3413  -55.4872 H         1 UNK         0.0600 
    238 H238       -4.1674  -22.9499  -56.8749 H         1 UNK         0.0600 
    239 H239       -2.7416  -23.9547  -57.0838 H         1 UNK         0.0600 
    240 H240       -1.0646  -20.7102  -54.8879 H         1 UNK         0.3000 
    241 H241        1.1643  -22.4138  -54.5446 H         1 UNK         0.0600 
    242 H242        0.8756  -20.0046  -57.0320 H         1 UNK         0.3800 
    243 H243        2.5860  -19.8770  -57.3499 H         1 UNK         0.3800 
    244 H244        1.9156  -20.7501  -52.8917 H         1 UNK         0.0800 
    245 H245        0.2414  -21.1443  -52.6847 H         1 UNK         0.0800 
    246 H246        1.9102  -17.0063  -53.0749 H         1 UNK         0.0800 
    247 H247        2.8310  -18.4834  -53.1990 H         1 UNK         0.0800 
@<TRIPOS>BOND
     1    1    2 1    
     2    1  127 1    
     3    1  128 1    
     4    1  129 1    
     5    2    3 2    
     6    2    4 am   BACKBONE|DICT|INTERRES
     7    4    5 1    
     8    4  130 1    
     9    5    6 1    
    10    5   65 1    
    11    5  131 1    
    12    6    7 1    
    13    6  132 1    
    14    6  133 1    
    15    7    8 1    
    16    8    9 1    
    17    8  134 1    
    18    8  135 1    
    19    9   10 ar   
    20    9   14 ar   
    21   10   11 ar   
    22   10  136 1    
    23   11   12 ar   
    24   11  126 1    
    25   12   13 ar   
    26   12  137 1    
    27   13   14 ar   
    28   13   15 1    
    29   14  138 1    
    30   15   16 1    
    31   15  139 1    
    32   15  140 1    
    33   16   17 1    
    34   17   18 1    
    35   17  141 1    
    36   17  142 1    
    37   18   19 1    
    38   18   67 1    
    39   18  143 1    
    40   19   20 am   BACKBONE|DICT|INTERRES
    41   19  144 1    
    42   20   21 2    
    43   20   22 1    
    44   22   23 1    
    45   22   24 1    
    46   22  145 1    
    47   23  146 1    
    48   23  147 1    
    49   23  148 1    
    50   24   25 am   BACKBONE|DICT|INTERRES
    51   24  149 1    
    52   25   26 2    
    53   25   27 1    
    54   27   28 1    
    55   27   29 1    
    56   27  150 1    
    57   28  151 1    
    58   28  152 1    
    59   28  153 1    
    60   29   30 am   BACKBONE|DICT|INTERRES
    61   29  154 1    
    62   30   31 2    
    63   30   32 1    
    64   32   33 1    
    65   32   34 1    
    66   32  155 1    
    67   33  156 1    
    68   33  157 1    
    69   33  158 1    
    70   34   35 am   BACKBONE|DICT|INTERRES
    71   34  159 1    
    72   35   36 2    
    73   35   37 1    
    74   37   38 1    
    75   37   39 1    
    76   37  160 1    
    77   38  161 1    
    78   38  162 1    
    79   38  163 1    
    80   39   40 am   BACKBONE|DICT|INTERRES
    81   39  164 1    
    82   40   41 2    
    83   40   42 1    
    84   42   43 1    
    85   42   44 1    
    86   42  165 1    
    87   43  166 1    
    88   43  167 1    
    89   43  168 1    
    90   44   45 am   BACKBONE|DICT|INTERRES
    91   44  169 1    
    92   45   46 2    
    93   45   47 1    
    94   47   48 1    
    95   47   49 1    
    96   47  170 1    
    97   48  171 1    
    98   48  172 1    
    99   48  173 1    
   100   49   50 am   BACKBONE|DICT|INTERRES
   101   49  174 1    
   102   50   51 2    
   103   50   52 1    
   104   52   53 1    
   105   52   54 1    
   106   52  175 1    
   107   53  176 1    
   108   53  177 1    
   109   53  178 1    
   110   54   55 am   BACKBONE|DICT|INTERRES
   111   54  179 1    
   112   55   56 2    
   113   55   57 1    
   114   57   58 1    
   115   57   59 1    
   116   57  180 1    
   117   58  181 1    
   118   58  182 1    
   119   58  183 1    
   120   59   60 am   BACKBONE|DICT|INTERRES
   121   59  184 1    
   122   60   61 2    
   123   60   62 1    
   124   62   63 1    
   125   62   64 1    
   126   62  185 1    
   127   63  186 1    
   128   63  187 1    
   129   63  188 1    
   130   64   65 am   BACKBONE|DICT|INTERRES
   131   64  189 1    
   132   65   66 2    
   133   67   68 2    
   134   67   69 am   BACKBONE|DICT|INTERRES
   135   69   70 1    
   136   69  190 1    
   137   70   71 1    
   138   70   72 1    
   139   70  191 1    
   140   71  192 1    
   141   71  193 1    
   142   71  194 1    
   143   72   73 2    
   144   72   74 am   BACKBONE|DICT|INTERRES
   145   74   75 1    
   146   74  195 1    
   147   75   76 1    
   148   75   77 1    
   149   75  196 1    
   150   76  197 1    
   151   76  198 1    
   152   76  199 1    
   153   77   78 2    
   154   77   79 am   BACKBONE|DICT|INTERRES
   155   79   80 1    
   156   79  200 1    
   157   80   81 1    
   158   80   82 1    
   159   80  201 1    
   160   81  202 1    
   161   81  203 1    
   162   81  204 1    
   163   82   83 2    
   164   82   84 am   BACKBONE|DICT|INTERRES
   165   84   85 1    
   166   84  205 1    
   167   85   86 1    
   168   85   87 1    
   169   85  206 1    
   170   86  207 1    
   171   86  208 1    
   172   86  209 1    
   173   87   88 2    
   174   87   89 am   BACKBONE|DICT|INTERRES
   175   89   90 1    
   176   89  210 1    
   177   90   91 1    
   178   90   92 1    
   179   90  211 1    
   180   91  212 1    
   181   91  213 1    
   182   91  214 1    
   183   92   93 2    
   184   92   94 am   BACKBONE|DICT|INTERRES
   185   94   95 1    
   186   94  215 1    
   187   95   96 1    
   188   95   97 1    
   189   95  216 1    
   190   96  217 1    
   191   96  218 1    
   192   96  219 1    
   193   97   98 2    
   194   97   99 am   BACKBONE|DICT|INTERRES
   195   99  100 1    
   196   99  220 1    
   197  100  101 1    
   198  100  102 1    
   199  100  221 1    
   200  101  222 1    
   201  101  223 1    
   202  101  224 1    
   203  102  103 2    
   204  102  104 am   BACKBONE|DICT|INTERRES
   205  104  105 1    
   206  104  225 1    
   207  105  106 1    
   208  105  107 1    
   209  105  226 1    
   210  106  227 1    
   211  106  228 1    
   212  106  229 1    
   213  107  108 2    
   214  107  109 am   BACKBONE|DICT|INTERRES
   215  109  110 1    
   216  109  230 1    
   217  110  111 1    
   218  110  112 1    
   219  110  231 1    
   220  111  232 1    
   221  111  233 1    
   222  111  234 1    
   223  112  113 2    
   224  112  114 am   BACKBONE|DICT|INTERRES
   225  114  115 1    
   226  114  235 1    
   227  115  116 1    
   228  115  117 1    
   229  115  236 1    
   230  116  237 1    
   231  116  238 1    
   232  116  239 1    
   233  117  118 2    
   234  117  119 am   BACKBONE|DICT|INTERRES
   235  119  120 1    
   236  119  240 1    
   237  120  121 1    
   238  120  124 1    
   239  120  241 1    
   240  121  122 am   BACKBONE|DICT|INTERRES
   241  121  123 2    
   242  122  242 1    
   243  122  243 1    
   244  124  125 1    
   245  124  244 1    
   246  124  245 1    
   247  125  126 1    
   248  126  246 1    
   249  126  247 1    
@<TRIPOS>SUBSTRUCTURE
     1 UNK         1 GROUP             0       ****    0 ROOT    
