@<TRIPOS>MOLECULE
3R540
247   249    1
SMALL
USER_CHARGES


@<TRIPOS>ATOM
      1 CA         -2.8475  -11.6441  -46.8873 C.3       0 UNK        -0.1800 
      2 C          -1.3451  -11.8843  -46.8962 C.2       0 UNK         0.5000 
      3 O          -0.7407  -11.9902  -45.8302 O.2       0 UNK        -0.5000 
      4 N          -0.7451  -11.9680  -48.0942 N.am      1 UNK        -0.5000 
      5 CA          0.6865  -12.2159  -48.3264 C.3       1 UNK         0.1400 
      6 C6          1.1144  -13.6254  -47.8392 C.3       23 UNK        -0.0398 
      7 S7          2.5125  -14.3308  -48.7749 S.3       23 UNK        -0.2404 
      8 C8          2.6175  -15.9896  -48.0190 C.3       23 UNK        -0.0205 
      9 C9          1.9569  -17.0976  -48.8367 C.ar      23 UNK        -0.0193 
     10 C10         0.7102  -16.9171  -49.4479 C.ar      23 UNK        -0.1150 
     11 C11         0.0998  -17.9551  -50.1566 C.ar      23 UNK        -0.0193 
     12 C12         0.7560  -19.1832  -50.2678 C.ar      23 UNK        -0.1150 
     13 C13         1.9947  -19.3862  -49.6558 C.ar      23 UNK        -0.0193 
     14 C14         2.5890  -18.3410  -48.9430 C.ar      23 UNK        -0.1150 
     15 C15         2.6852  -20.7378  -49.7595 C.3       23 UNK        -0.0205 
     16 S16         2.3704  -21.7762  -48.2977 S.3       23 UNK        -0.2404 
     17 C17         0.5713  -22.0422  -48.4291 C.3       23 UNK        -0.0398 
     18 CA          0.0693  -23.1264  -47.4498 C.3       11 UNK         0.1400 
     19 N           0.1691  -22.7159  -46.0456 N.am      11 UNK        -0.5000 
     20 C          -0.0362  -23.5296  -45.0005 C.2       10 UNK         0.5000 
     21 O          -0.2926  -24.7275  -45.1104 O.2       10 UNK        -0.5000 
     22 CA         -0.0140  -22.8957  -43.5990 C.3       10 UNK         0.1400 
     23 CB          1.4254  -22.6579  -43.1196 C.3       10 UNK        -0.1800 
     24 N          -0.7817  -21.6515  -43.5391 N.am      10 UNK        -0.5000 
     25 C          -2.1058  -21.5750  -43.7391 C.2       9 UNK         0.5000 
     26 O          -2.8222  -22.5563  -43.9388 O.2       9 UNK        -0.5000 
     27 CA         -2.7320  -20.1683  -43.7598 C.3       9 UNK         0.1400 
     28 CB         -2.9979  -19.6686  -42.3323 C.3       9 UNK        -0.1800 
     29 N          -1.9154  -19.1905  -44.4795 N.am      9 UNK        -0.5000 
     30 C          -1.6130  -19.2603  -45.7842 C.2       8 UNK         0.5000 
     31 O          -2.0287  -20.1400  -46.5364 O.2       8 UNK        -0.5000 
     32 CA         -0.6277  -18.2085  -46.3236 C.3       8 UNK         0.1400 
     33 CB         -1.3319  -16.8653  -46.5633 C.3       8 UNK        -0.1800 
     34 N           0.5213  -18.0180  -45.4366 N.am      8 UNK        -0.5000 
     35 C           1.3936  -18.9872  -45.1223 C.2       7 UNK         0.5000 
     36 O           1.3452  -20.1268  -45.5799 O.2       7 UNK        -0.5000 
     37 CA          2.4537  -18.6502  -44.0632 C.3       7 UNK         0.1400 
     38 CB          3.6496  -17.9178  -44.6894 C.3       7 UNK        -0.1800 
     39 N           1.8839  -17.8581  -42.9729 N.am      7 UNK        -0.5000 
     40 C           1.0375  -18.3518  -42.0563 C.2       6 UNK         0.5000 
     41 O           0.6979  -19.5338  -42.0098 O.2       6 UNK        -0.5000 
     42 CA          0.4389  -17.3542  -41.0469 C.3       6 UNK         0.1400 
     43 CB          1.3840  -17.1606  -39.8520 C.3       6 UNK        -0.1800 
     44 N           0.1431  -16.0531  -41.6467 N.am      6 UNK        -0.5000 
     45 C          -0.7899  -15.8437  -42.5863 C.2       5 UNK         0.5000 
     46 O          -1.5449  -16.7208  -43.0035 O.2       5 UNK        -0.5000 
     47 CA         -0.8535  -14.4317  -43.1991 C.3       5 UNK         0.1400 
     48 CB         -1.8512  -13.5491  -42.4364 C.3       5 UNK        -0.1800 
     49 N           0.4475  -13.7607  -43.2453 N.am      5 UNK        -0.5000 
     50 C           1.5075  -14.1879  -43.9414 C.2       4 UNK         0.5000 
     51 O           1.5046  -15.2364  -44.5895 O.2       4 UNK        -0.5000 
     52 CA          2.7724  -13.3050  -43.8865 C.3       4 UNK         0.1400 
     53 CB          3.8828  -13.7931  -44.8340 C.3       4 UNK        -0.1800 
     54 N           2.4886  -11.8979  -44.1799 N.am      4 UNK        -0.5000 
     55 C           2.0182  -11.0036  -43.2951 C.2       3 UNK         0.5000 
     56 O           1.7055  -11.3108  -42.1436 O.2       3 UNK        -0.5000 
     57 CA          1.8606   -9.5357  -43.7373 C.3       3 UNK         0.1400 
     58 CB          2.8886   -8.6342  -43.0302 C.3       3 UNK        -0.1800 
     59 N           1.9771   -9.3744  -45.1833 N.am      3 UNK        -0.5000 
     60 C           1.4125   -8.4173  -45.9221 C.2       2 UNK         0.5000 
     61 O           0.7584   -7.4832  -45.4569 O.2       2 UNK        -0.5000 
     62 CA          1.5837   -8.5464  -47.4491 C.3       2 UNK         0.1400 
     63 CB          3.0333   -8.2590  -47.8875 C.3       2 UNK        -0.1800 
     64 N           1.0958   -9.8277  -47.9799 N.am      2 UNK        -0.5000 
     65 C           1.5580  -11.0694  -47.7585 C.2       1 UNK         0.5000 
     66 O           2.5669  -11.3152  -47.0913 O.2       1 UNK        -0.5000 
     67 C          -1.3598  -23.5684  -47.8199 C.2       11 UNK         0.5000 
     68 O          -1.5143  -24.5795  -48.5048 O.2       11 UNK        -0.5000 
     69 N          -2.3811  -22.8399  -47.3484 N.am      12 UNK        -0.5000 
     70 CA         -3.7932  -23.1831  -47.5315 C.3       12 UNK         0.1400 
     71 CB         -4.6829  -22.0553  -46.9901 C.3       12 UNK        -0.1800 
     72 C          -4.1718  -24.5390  -46.9082 C.2       12 UNK         0.5000 
     73 O          -4.9477  -25.2832  -47.5073 O.2       12 UNK        -0.5000 
     74 N          -3.5972  -24.8444  -45.7387 N.am      13 UNK        -0.5000 
     75 CA         -3.7784  -26.1109  -45.0382 C.3       13 UNK         0.1400 
     76 CB         -3.4040  -25.9309  -43.5579 C.3       13 UNK        -0.1800 
     77 C          -2.9773  -27.2617  -45.6752 C.2       13 UNK         0.5000 
     78 O          -3.5603  -28.2944  -46.0076 O.2       13 UNK        -0.5000 
     79 N          -1.6549  -27.0849  -45.7963 N.am      14 UNK        -0.5000 
     80 CA         -0.7163  -28.1618  -46.1156 C.3       14 UNK         0.1400 
     81 CB          0.6498  -27.8425  -45.4881 C.3       14 UNK        -0.1800 
     82 C          -0.5565  -28.4225  -47.6211 C.2       14 UNK         0.5000 
     83 O          -0.4427  -29.5827  -48.0189 O.2       14 UNK        -0.5000 
     84 N          -0.5238  -27.3539  -48.4268 N.am      15 UNK        -0.5000 
     85 CA         -0.2562  -27.4141  -49.8678 C.3       15 UNK         0.1400 
     86 CB          0.7808  -26.3334  -50.2250 C.3       15 UNK        -0.1800 
     87 C          -1.5321  -27.2517  -50.7145 C.2       15 UNK         0.5000 
     88 O          -1.4467  -27.3291  -51.9403 O.2       15 UNK        -0.5000 
     89 N          -2.6780  -27.0192  -50.0557 N.am      16 UNK        -0.5000 
     90 CA         -3.9891  -26.7041  -50.6350 C.3       16 UNK         0.1400 
     91 CB         -4.5276  -27.8780  -51.4805 C.3       16 UNK        -0.1800 
     92 C          -4.0040  -25.3516  -51.3830 C.2       16 UNK         0.5000 
     93 O          -4.7512  -25.1965  -52.3506 O.2       16 UNK        -0.5000 
     94 N          -3.1923  -24.4031  -50.8880 N.am      17 UNK        -0.5000 
     95 CA         -2.9556  -23.0374  -51.3683 C.3       17 UNK         0.1400 
     96 CB         -4.2703  -22.2403  -51.4851 C.3       17 UNK        -0.1800 
     97 C          -2.1324  -22.9748  -52.6704 C.2       17 UNK         0.5000 
     98 O          -2.0871  -23.9319  -53.4450 O.2       17 UNK        -0.5000 
     99 N          -1.4788  -21.8252  -52.8850 N.am      18 UNK        -0.5000 
    100 CA        -0.6467  -21.5552  -54.0639 C.3       18 UNK         0.1400 
    101 CB         0.3604  -20.4473  -53.7171 C.3       18 UNK        -0.1800 
    102 C         -1.4620  -21.1686  -55.3151 C.2       18 UNK         0.5000 
    103 O         -0.9238  -21.1961  -56.4227 O.2       18 UNK        -0.5000 
    104 N         -2.7329  -20.8080  -55.1189 N.am      19 UNK        -0.5000 
    105 CA        -3.6976  -20.3948  -56.1302 C.3       19 UNK         0.1400 
    106 CB        -3.4072  -18.9468  -56.5704 C.3       19 UNK        -0.1800 
    107 C         -5.1007  -20.5284  -55.5193 C.2       19 UNK         0.5000 
    108 O         -5.2185  -20.8315  -54.3274 O.2       19 UNK        -0.5000 
    109 N         -6.1406  -20.2822  -56.3274 N.am      20 UNK        -0.5000 
    110 CA        -7.5458  -20.2660  -55.9097 C.3       20 UNK         0.1400 
    111 CB        -8.4325  -19.9476  -57.1237 C.3       20 UNK        -0.1800 
    112 C         -7.7821  -19.2556  -54.7703 C.2       20 UNK         0.5000 
    113 O         -7.5475  -18.0598  -54.9609 O.2       20 UNK        -0.5000 
    114 N         -8.1553  -19.7722  -53.5900 N.am      21 UNK        -0.5000 
    115 CA        -8.2955  -19.0536  -52.3145 C.3       21 UNK         0.1400 
    116 CB        -9.5047  -18.0965  -52.3653 C.3       21 UNK        -0.1800 
    117 C         -6.9970  -18.3476  -51.8537 C.2       21 UNK         0.5000 
    118 O         -7.0619  -17.3501  -51.1334 O.2       21 UNK        -0.5000 
    119 N         -5.8420  -18.8692  -52.2922 N.am      22 UNK        -0.5000 
    120 CA        -4.5039  -18.2742  -52.1479 C.3       22 UNK         0.1400 
    121 C         -4.2842  -16.9768  -52.9903 C.2       22 UNK         0.5000 
    122 N         -5.1349  -16.6541  -53.9588 N.am      22 UNK        -0.7600 
    123 O         -3.3095  -16.2592  -52.7901 O.2       22 UNK        -0.5000 
    124 C124       -4.0524  -18.1419  -50.6592 C.3       23 UNK        -0.0398 
    125 S125       -2.4799  -18.9954  -50.2943 S.3       23 UNK        -0.2404 
    126 C126       -1.2626  -17.7379  -50.8006 C.3       23 UNK        -0.0205 
    127 H127       -3.2553  -11.5818  -47.8964 H         1 UNK         0.0600 
    128 H128       -3.0742  -10.7121  -46.3696 H         1 UNK         0.0600 
    129 H129       -3.3525  -12.4568  -46.3652 H         1 UNK         0.0600 
    130 H130       -1.3064  -11.8666  -48.9287 H         1 UNK         0.3000 
    131 H131        0.8121  -12.1816  -49.4098 H         1 UNK         0.0600 
    132 H132        0.2748  -14.3084  -47.9451 H         1 UNK         0.0800 
    133 H133        1.3464  -13.6208  -46.7753 H         1 UNK         0.0800 
    134 H134        2.1681  -15.9757  -47.0267 H         1 UNK         0.0800 
    135 H135        3.6740  -16.2162  -47.8690 H         1 UNK         0.0800 
    136 H136        0.2026  -15.9690  -49.3706 H         1 UNK         0.1150 
    137 H137        0.2879  -19.9904  -50.8106 H         1 UNK         0.1150 
    138 H138        3.5421  -18.5042  -48.4598 H         1 UNK         0.1150 
    139 H139        2.3643  -21.2661  -50.6585 H         1 UNK         0.0800 
    140 H140        3.7613  -20.5907  -49.8619 H         1 UNK         0.0800 
    141 H141        0.3533  -22.3233  -49.4614 H         1 UNK         0.0800 
    142 H142        0.0568  -21.0971  -48.2456 H         1 UNK         0.0800 
    143 H143        0.7048  -24.0064  -47.5728 H         1 UNK         0.0600 
    144 H144        0.4297  -21.7469  -45.8740 H         1 UNK         0.3000 
    145 H145       -0.4812  -23.6033  -42.9109 H         1 UNK         0.0600 
    146 H146        1.4424  -22.2664  -42.1024 H         1 UNK         0.0600 
    147 H147        1.9557  -21.9526  -43.7584 H         1 UNK         0.0600 
    148 H148        1.9933  -23.5890  -43.1193 H         1 UNK         0.0600 
    149 H149       -0.2637  -20.8041  -43.3344 H         1 UNK         0.3000 
    150 H150       -3.6909  -20.2402  -44.2764 H         1 UNK         0.0600 
    151 H151       -3.6249  -20.3717  -41.7827 H         1 UNK         0.0600 
    152 H152       -3.5151  -18.7090  -42.3408 H         1 UNK         0.0600 
    153 H153       -2.0723  -19.5439  -41.7699 H         1 UNK         0.0600 
    154 H154       -1.5733  -18.3997  -43.9404 H         1 UNK         0.3000 
    155 H155       -0.2462  -18.5727  -47.2791 H         1 UNK         0.0600 
    156 H156       -1.8306  -16.4997  -45.6662 H         1 UNK         0.0600 
    157 H157       -2.0873  -16.9606  -47.3443 H         1 UNK         0.0600 
    158 H158       -0.6241  -16.1034  -46.8827 H         1 UNK         0.0600 
    159 H159        0.6496  -17.0982  -45.0300 H         1 UNK         0.3000 
    160 H160        2.8214  -19.5899  -43.6456 H         1 UNK         0.0600 
    161 H161        3.3520  -16.9850  -45.1647 H         1 UNK         0.0600 
    162 H162        4.1210  -18.5344  -45.4557 H         1 UNK         0.0600 
    163 H163        4.4092  -17.6882  -43.9422 H         1 UNK         0.0600 
    164 H164        2.0576  -16.8636  -42.9962 H         1 UNK         0.3000 
    165 H165       -0.4974  -17.7772  -40.6768 H         1 UNK         0.0600 
    166 H166        0.9364  -16.5154  -39.0958 H         1 UNK         0.0600 
    167 H167        1.6068  -18.1149  -39.3728 H         1 UNK         0.0600 
    168 H168        2.3327  -16.7159  -40.1550 H         1 UNK         0.0600 
    169 H169        0.7175  -15.2741  -41.3604 H         1 UNK         0.3000 
    170 H170       -1.2065  -14.5346  -44.2272 H         1 UNK         0.0600 
    171 H171       -2.8374  -14.0142  -42.4018 H         1 UNK         0.0600 
    172 H172       -1.5316  -13.3754  -41.4082 H         1 UNK         0.0600 
    173 H173       -1.9666  -12.5796  -42.9218 H         1 UNK         0.0600 
    174 H174        0.5388  -12.8878  -42.7380 H         1 UNK         0.3000 
    175 H175        3.1620  -13.3796  -42.8692 H         1 UNK         0.0600 
    176 H176        3.5643  -13.7766  -45.8761 H         1 UNK         0.0600 
    177 H177        4.7732  -13.1701  -44.7496 H         1 UNK         0.0600 
    178 H178        4.1827  -14.8134  -44.5955 H         1 UNK         0.0600 
    179 H179        2.6478  -11.6257  -45.1420 H         1 UNK         0.3000 
    180 H180        0.8579   -9.2290  -43.4323 H         1 UNK         0.0600 
    181 H181        2.7218   -7.5827  -43.2644 H         1 UNK         0.0600 
    182 H182        3.9083   -8.8855  -43.3242 H         1 UNK         0.0600 
    183 H183        2.8227   -8.7375  -41.9464 H         1 UNK         0.0600 
    184 H184        2.4526  -10.1091  -45.6967 H         1 UNK         0.3000 
    185 H185        0.9523   -7.7797  -47.9010 H         1 UNK         0.0600 
    186 H186        3.7426   -8.9732  -47.4690 H         1 UNK         0.0600 
    187 H187        3.1286   -8.2906  -48.9727 H         1 UNK         0.0600 
    188 H188        3.3452   -7.2657  -47.5627 H         1 UNK         0.0600 
    189 H189        0.2331   -9.7583  -48.5015 H         1 UNK         0.3000 
    190 H190       -2.1855  -21.9751  -46.8485 H         1 UNK         0.3000 
    191 H191       -3.9793  -23.2577  -48.6010 H         1 UNK         0.0600 
    192 H192       -4.4731  -21.1122  -47.4954 H         1 UNK         0.0600 
    193 H193       -4.5364  -21.9038  -45.9213 H         1 UNK         0.0600 
    194 H194       -5.7381  -22.2808  -47.1484 H         1 UNK         0.0600 
    195 H195       -3.0083  -24.1515  -45.2894 H         1 UNK         0.3000 
    196 H196       -4.8362  -26.3800  -45.0799 H         1 UNK         0.0600 
    197 H197       -4.0399  -25.1846  -43.0813 H         1 UNK         0.0600 
    198 H198       -2.3691  -25.6093  -43.4361 H         1 UNK         0.0600 
    199 H199       -3.5266  -26.8638  -43.0064 H         1 UNK         0.0600 
    200 H200       -1.2427  -26.1947  -45.5194 H         1 UNK         0.3000 
    201 H201       -1.0769  -29.0859  -45.6582 H         1 UNK         0.0600 
    202 H202        0.5651  -27.6970  -44.4110 H         1 UNK         0.0600 
    203 H203        1.0887  -26.9393  -45.9139 H         1 UNK         0.0600 
    204 H204        1.3554  -28.6580  -45.6521 H         1 UNK         0.0600 
    205 H205       -0.6831  -26.4299  -48.0418 H         1 UNK         0.3000 
    206 H206        0.1764  -28.3813  -50.1313 H         1 UNK         0.0600 
    207 H207        0.3926  -25.3262  -50.0779 H         1 UNK         0.0600 
    208 H208        1.6823  -26.4367  -49.6210 H         1 UNK         0.0600 
    209 H209        1.0818  -26.4134  -51.2702 H         1 UNK         0.0600 
    210 H210       -2.6219  -26.9631  -49.0485 H         1 UNK         0.3000 
    211 H211       -4.6677  -26.5841  -49.7906 H         1 UNK         0.0600 
    212 H212       -3.9611  -28.0105  -52.4024 H         1 UNK         0.0600 
    213 H213       -5.5680  -27.7101  -51.7609 H         1 UNK         0.0600 
    214 H214       -4.4902  -28.8147  -50.9244 H         1 UNK         0.0600 
    215 H215       -2.6079  -24.6733  -50.1019 H         1 UNK         0.3000 
    216 H216       -2.3539  -22.5618  -50.5923 H         1 UNK         0.0600 
    217 H217       -4.0706  -21.1908  -51.6914 H         1 UNK         0.0600 
    218 H218       -4.8495  -22.2798  -50.5634 H         1 UNK         0.0600 
    219 H219       -4.9021  -22.6087  -52.2930 H         1 UNK         0.0600 
    220 H220       -1.5632  -21.0759  -52.2135 H         1 UNK         0.3000 
    221 H221       -0.0816  -22.4562  -54.3124 H         1 UNK         0.0600 
    222 H222       -0.1392  -19.5309  -53.4012 H         1 UNK         0.0600 
    223 H223        1.0317  -20.7629  -52.9190 H         1 UNK         0.0600 
    224 H224        0.9837  -20.1998  -54.5774 H         1 UNK         0.0600 
    225 H225       -3.1333  -20.8936  -54.1938 H         1 UNK         0.3000 
    226 H226       -3.6324  -21.0668  -56.9881 H         1 UNK         0.0600 
    227 H227       -2.4163  -18.8583  -57.0157 H         1 UNK         0.0600 
    228 H228       -4.1238  -18.6049  -57.3176 H         1 UNK         0.0600 
    229 H229       -3.4550  -18.2559  -55.7285 H         1 UNK         0.0600 
    230 H230       -5.9602  -20.0174  -57.2846 H         1 UNK         0.3000 
    231 H231       -7.7997  -21.2677  -55.5566 H         1 UNK         0.0600 
    232 H232       -9.4867  -19.9368  -56.8439 H         1 UNK         0.0600 
    233 H233       -8.3126  -20.6956  -57.9076 H         1 UNK         0.0600 
    234 H234       -8.1964  -18.9721  -57.5509 H         1 UNK         0.0600 
    235 H235       -8.2789  -20.7737  -53.5314 H         1 UNK         0.3000 
    236 H236       -8.5069  -19.8117  -51.5592 H         1 UNK         0.0600 
    237 H237       -9.3364  -17.2680  -53.0540 H         1 UNK         0.0600 
    238 H238      -10.4075  -18.6182  -52.6826 H         1 UNK         0.0600 
    239 H239       -9.7085  -17.6685  -51.3831 H         1 UNK         0.0600 
    240 H240       -5.8801  -19.6793  -52.9039 H         1 UNK         0.3000 
    241 H241       -3.8486  -18.9958  -52.6351 H         1 UNK         0.0600 
    242 H242       -4.9686  -15.8162  -54.4925 H         1 UNK         0.3800 
    243 H243       -5.9548  -17.2167  -54.1626 H         1 UNK         0.3800 
    244 H244       -4.7901  -18.5946  -49.9957 H         1 UNK         0.0800 
    245 H245       -3.9956  -17.1010  -50.3365 H         1 UNK         0.0800 
    246 H246       -1.6441  -16.7482  -50.5454 H         1 UNK         0.0800 
    247 H247       -1.1533  -17.7571  -51.8853 H         1 UNK         0.0800 
@<TRIPOS>BOND
     1    1    2 1    
     2    1  127 1    
     3    1  128 1    
     4    1  129 1    
     5    2    3 2    
     6    2    4 am   BACKBONE|DICT|INTERRES
     7    4    5 1    
     8    4  130 1    
     9    5    6 1    
    10    5   65 1    
    11    5  131 1    
    12    6    7 1    
    13    6  132 1    
    14    6  133 1    
    15    7    8 1    
    16    8    9 1    
    17    8  134 1    
    18    8  135 1    
    19    9   10 ar   
    20    9   14 ar   
    21   10   11 ar   
    22   10  136 1    
    23   11   12 ar   
    24   11  126 1    
    25   12   13 ar   
    26   12  137 1    
    27   13   14 ar   
    28   13   15 1    
    29   14  138 1    
    30   15   16 1    
    31   15  139 1    
    32   15  140 1    
    33   16   17 1    
    34   17   18 1    
    35   17  141 1    
    36   17  142 1    
    37   18   19 1    
    38   18   67 1    
    39   18  143 1    
    40   19   20 am   BACKBONE|DICT|INTERRES
    41   19  144 1    
    42   20   21 2    
    43   20   22 1    
    44   22   23 1    
    45   22   24 1    
    46   22  145 1    
    47   23  146 1    
    48   23  147 1    
    49   23  148 1    
    50   24   25 am   BACKBONE|DICT|INTERRES
    51   24  149 1    
    52   25   26 2    
    53   25   27 1    
    54   27   28 1    
    55   27   29 1    
    56   27  150 1    
    57   28  151 1    
    58   28  152 1    
    59   28  153 1    
    60   29   30 am   BACKBONE|DICT|INTERRES
    61   29  154 1    
    62   30   31 2    
    63   30   32 1    
    64   32   33 1    
    65   32   34 1    
    66   32  155 1    
    67   33  156 1    
    68   33  157 1    
    69   33  158 1    
    70   34   35 am   BACKBONE|DICT|INTERRES
    71   34  159 1    
    72   35   36 2    
    73   35   37 1    
    74   37   38 1    
    75   37   39 1    
    76   37  160 1    
    77   38  161 1    
    78   38  162 1    
    79   38  163 1    
    80   39   40 am   BACKBONE|DICT|INTERRES
    81   39  164 1    
    82   40   41 2    
    83   40   42 1    
    84   42   43 1    
    85   42   44 1    
    86   42  165 1    
    87   43  166 1    
    88   43  167 1    
    89   43  168 1    
    90   44   45 am   BACKBONE|DICT|INTERRES
    91   44  169 1    
    92   45   46 2    
    93   45   47 1    
    94   47   48 1    
    95   47   49 1    
    96   47  170 1    
    97   48  171 1    
    98   48  172 1    
    99   48  173 1    
   100   49   50 am   BACKBONE|DICT|INTERRES
   101   49  174 1    
   102   50   51 2    
   103   50   52 1    
   104   52   53 1    
   105   52   54 1    
   106   52  175 1    
   107   53  176 1    
   108   53  177 1    
   109   53  178 1    
   110   54   55 am   BACKBONE|DICT|INTERRES
   111   54  179 1    
   112   55   56 2    
   113   55   57 1    
   114   57   58 1    
   115   57   59 1    
   116   57  180 1    
   117   58  181 1    
   118   58  182 1    
   119   58  183 1    
   120   59   60 am   BACKBONE|DICT|INTERRES
   121   59  184 1    
   122   60   61 2    
   123   60   62 1    
   124   62   63 1    
   125   62   64 1    
   126   62  185 1    
   127   63  186 1    
   128   63  187 1    
   129   63  188 1    
   130   64   65 am   BACKBONE|DICT|INTERRES
   131   64  189 1    
   132   65   66 2    
   133   67   68 2    
   134   67   69 am   BACKBONE|DICT|INTERRES
   135   69   70 1    
   136   69  190 1    
   137   70   71 1    
   138   70   72 1    
   139   70  191 1    
   140   71  192 1    
   141   71  193 1    
   142   71  194 1    
   143   72   73 2    
   144   72   74 am   BACKBONE|DICT|INTERRES
   145   74   75 1    
   146   74  195 1    
   147   75   76 1    
   148   75   77 1    
   149   75  196 1    
   150   76  197 1    
   151   76  198 1    
   152   76  199 1    
   153   77   78 2    
   154   77   79 am   BACKBONE|DICT|INTERRES
   155   79   80 1    
   156   79  200 1    
   157   80   81 1    
   158   80   82 1    
   159   80  201 1    
   160   81  202 1    
   161   81  203 1    
   162   81  204 1    
   163   82   83 2    
   164   82   84 am   BACKBONE|DICT|INTERRES
   165   84   85 1    
   166   84  205 1    
   167   85   86 1    
   168   85   87 1    
   169   85  206 1    
   170   86  207 1    
   171   86  208 1    
   172   86  209 1    
   173   87   88 2    
   174   87   89 am   BACKBONE|DICT|INTERRES
   175   89   90 1    
   176   89  210 1    
   177   90   91 1    
   178   90   92 1    
   179   90  211 1    
   180   91  212 1    
   181   91  213 1    
   182   91  214 1    
   183   92   93 2    
   184   92   94 am   BACKBONE|DICT|INTERRES
   185   94   95 1    
   186   94  215 1    
   187   95   96 1    
   188   95   97 1    
   189   95  216 1    
   190   96  217 1    
   191   96  218 1    
   192   96  219 1    
   193   97   98 2    
   194   97   99 am   BACKBONE|DICT|INTERRES
   195   99  100 1    
   196   99  220 1    
   197  100  101 1    
   198  100  102 1    
   199  100  221 1    
   200  101  222 1    
   201  101  223 1    
   202  101  224 1    
   203  102  103 2    
   204  102  104 am   BACKBONE|DICT|INTERRES
   205  104  105 1    
   206  104  225 1    
   207  105  106 1    
   208  105  107 1    
   209  105  226 1    
   210  106  227 1    
   211  106  228 1    
   212  106  229 1    
   213  107  108 2    
   214  107  109 am   BACKBONE|DICT|INTERRES
   215  109  110 1    
   216  109  230 1    
   217  110  111 1    
   218  110  112 1    
   219  110  231 1    
   220  111  232 1    
   221  111  233 1    
   222  111  234 1    
   223  112  113 2    
   224  112  114 am   BACKBONE|DICT|INTERRES
   225  114  115 1    
   226  114  235 1    
   227  115  116 1    
   228  115  117 1    
   229  115  236 1    
   230  116  237 1    
   231  116  238 1    
   232  116  239 1    
   233  117  118 2    
   234  117  119 am   BACKBONE|DICT|INTERRES
   235  119  120 1    
   236  119  240 1    
   237  120  121 1    
   238  120  124 1    
   239  120  241 1    
   240  121  122 am   BACKBONE|DICT|INTERRES
   241  121  123 2    
   242  122  242 1    
   243  122  243 1    
   244  124  125 1    
   245  124  244 1    
   246  124  245 1    
   247  125  126 1    
   248  126  246 1    
   249  126  247 1    
@<TRIPOS>SUBSTRUCTURE
     1 UNK         1 GROUP             0       ****    0 ROOT    
