@<TRIPOS>MOLECULE
3R540
247   249    1
SMALL
USER_CHARGES


@<TRIPOS>ATOM
      1 CA          0.4811  -10.4642  -50.4469 C.3       0 UNK        -0.1800 
      2 C           0.8252  -11.9025  -50.0860 C.2       0 UNK         0.5000 
      3 O           1.8998  -12.3841  -50.4454 O.2       0 UNK        -0.5000 
      4 N          -0.0851  -12.5907  -49.3876 N.am      1 UNK        -0.5000 
      5 CA          0.0912  -13.9613  -48.9049 C.3       1 UNK         0.1400 
      6 C6         -1.2440  -14.5919  -48.4467 C.3       23 UNK        -0.0398 
      7 S7         -2.4148  -14.8630  -49.8140 S.3       23 UNK        -0.2404 
      8 C8         -2.4686  -16.6824  -49.8687 C.3       23 UNK        -0.0205 
      9 C9         -1.1894  -17.2741  -50.4425 C.ar      23 UNK        -0.0193 
     10 C10        -0.9869  -17.2628  -51.8234 C.ar      23 UNK        -0.1150 
     11 C11         0.1667  -17.8163  -52.3802 C.ar      23 UNK        -0.0193 
     12 C12         1.1261  -18.3905  -51.5415 C.ar      23 UNK        -0.1150 
     13 C13         0.9434  -18.4014  -50.1540 C.ar      23 UNK        -0.0193 
     14 C14        -0.2164  -17.8373  -49.6094 C.ar      23 UNK        -0.1150 
     15 C15         2.0170  -18.9976  -49.2527 C.3       23 UNK        -0.0205 
     16 S16         1.6684  -20.7287  -48.8015 S.3       23 UNK        -0.2404 
     17 C17         0.7338  -20.5008  -47.2546 C.3       23 UNK        -0.0398 
     18 CA          0.3227  -21.8347  -46.5796 C.3       11 UNK         0.1400 
     19 N           0.1498  -21.6815  -45.1318 N.am      11 UNK        -0.5000 
     20 C          -0.1053  -22.6727  -44.2659 C.2       10 UNK         0.5000 
     21 O          -0.1688  -23.8586  -44.5846 O.2       10 UNK        -0.5000 
     22 CA         -0.3934  -22.2685  -42.8073 C.3       10 UNK         0.1400 
     23 CB          0.9101  -22.0512  -42.0251 C.3       10 UNK        -0.1800 
     24 N          -1.2382  -21.0763  -42.7109 N.am      10 UNK        -0.5000 
     25 C          -2.5037  -21.0136  -43.1515 C.2       9 UNK         0.5000 
     26 O          -3.1084  -21.9730  -43.6285 O.2       9 UNK        -0.5000 
     27 CA         -3.1921  -19.6382  -43.1057 C.3       9 UNK         0.1400 
     28 CB         -3.7253  -19.3349  -41.6978 C.3       9 UNK        -0.1800 
     29 N          -2.3100  -18.5571  -43.5439 N.am      9 UNK        -0.5000 
     30 C          -1.7869  -18.4534  -44.7741 C.2       8 UNK         0.5000 
     31 O          -2.0338  -19.2315  -45.6957 O.2       8 UNK        -0.5000 
     32 CA         -0.7756  -17.3162  -44.9948 C.3       8 UNK         0.1400 
     33 CB         -1.5070  -15.9804  -45.1810 C.3       8 UNK        -0.1800 
     34 N           0.1872  -17.2047  -43.8976 N.am      8 UNK        -0.5000 
     35 C           1.0585  -18.1596  -43.5419 C.2       7 UNK         0.5000 
     36 O           1.1876  -19.2203  -44.1482 O.2       7 UNK        -0.5000 
     37 CA          1.8841  -17.9190  -42.2661 C.3       7 UNK         0.1400 
     38 CB          3.1530  -17.1039  -42.5559 C.3       7 UNK        -0.1800 
     39 N           1.0972  -17.2558  -41.2293 N.am      7 UNK        -0.5000 
     40 C           0.1041  -17.8433  -40.5476 C.2       6 UNK         0.5000 
     41 O          -0.2211  -19.0222  -40.6922 O.2       6 UNK        -0.5000 
     42 CA         -0.6821  -16.9443  -39.5760 C.3       6 UNK         0.1400 
     43 CB          0.0483  -16.8302  -38.2297 C.3       6 UNK        -0.1800 
     44 N          -0.9096  -15.6040  -40.1215 N.am      6 UNK        -0.5000 
     45 C          -1.7008  -15.3459  -41.1723 C.2       5 UNK         0.5000 
     46 O          -2.3581  -16.2080  -41.7549 O.2       5 UNK        -0.5000 
     47 CA         -1.7287  -13.8922  -41.6845 C.3       5 UNK         0.1400 
     48 CB         -2.7998  -13.0813  -40.9403 C.3       5 UNK        -0.1800 
     49 N          -0.4381  -13.2022  -41.5809 N.am      5 UNK        -0.5000 
     50 C           0.6853  -13.5815  -42.2040 C.2       4 UNK         0.5000 
     51 O           0.7682  -14.5856  -42.9156 O.2       4 UNK        -0.5000 
     52 CA          1.9348  -12.7299  -41.9444 C.3       4 UNK         0.1400 
     53 CB          2.4807  -13.0003  -40.5280 C.3       4 UNK        -0.1800 
     54 N           2.9487  -13.0614  -42.9416 N.am      4 UNK        -0.5000 
     55 C           4.0493  -12.3489  -43.2116 C.2       3 UNK         0.5000 
     56 O           4.3077  -11.2704  -42.6752 O.2       3 UNK        -0.5000 
     57 CA          5.0477  -12.9367  -44.2286 C.3       3 UNK         0.1400 
     58 CB          6.2509  -13.5470  -43.4915 C.3       3 UNK        -0.1800 
     59 N           4.4537  -13.9701  -45.0791 N.am      3 UNK        -0.5000 
     60 C           3.8823  -13.7470  -46.2696 C.2       2 UNK         0.5000 
     61 O           3.8519  -12.6390  -46.8105 O.2       2 UNK        -0.5000 
     62 CA          3.2868  -14.9824  -46.9883 C.3       2 UNK         0.1400 
     63 CB          2.7587  -16.0521  -46.0083 C.3       2 UNK        -0.1800 
     64 N           2.2411  -14.6638  -47.9661 N.am      2 UNK        -0.5000 
     65 C           1.1017  -13.9944  -47.7424 C.2       1 UNK         0.5000 
     66 O           0.8038  -13.4563  -46.6740 O.2       1 UNK        -0.5000 
     67 C          -0.9336  -22.4431  -47.2361 C.2       11 UNK         0.5000 
     68 O          -0.8258  -23.4480  -47.9374 O.2       11 UNK        -0.5000 
     69 N          -2.1044  -21.8566  -46.9470 N.am      12 UNK        -0.5000 
     70 CA         -3.4097  -22.3120  -47.4290 C.3       12 UNK         0.1400 
     71 CB         -4.4721  -21.2658  -47.0613 C.3       12 UNK        -0.1800 
     72 C          -3.8104  -23.7081  -46.9129 C.2       12 UNK         0.5000 
     73 O          -4.4742  -24.4533  -47.6328 O.2       12 UNK        -0.5000 
     74 N          -3.3995  -24.0506  -45.6848 N.am      13 UNK        -0.5000 
     75 CA         -3.5745  -25.3842  -45.1107 C.3       13 UNK         0.1400 
     76 CB         -3.3262  -25.3317  -43.5955 C.3       13 UNK        -0.1800 
     77 C          -2.6644  -26.4313  -45.7804 C.2       13 UNK         0.5000 
     78 O          -3.1033  -27.5598  -46.0060 O.2       13 UNK        -0.5000 
     79 N          -1.4185  -26.0422  -46.0825 N.am      14 UNK        -0.5000 
     80 CA         -0.4130  -26.8905  -46.7181 C.3       14 UNK         0.1400 
     81 CB          0.9784  -26.2668  -46.5274 C.3       14 UNK        -0.1800 
     82 C          -0.6888  -27.1497  -48.2096 C.2       14 UNK         0.5000 
     83 O          -0.5043  -28.2812  -48.6615 O.2       14 UNK        -0.5000 
     84 N          -1.1053  -26.1126  -48.9470 N.am      15 UNK        -0.5000 
     85 CA         -1.3231  -26.1564  -50.3886 C.3       15 UNK         0.1400 
     86 CB         -0.1919  -25.3862  -51.0908 C.3       15 UNK        -0.1800 
     87 C          -2.6852  -25.5492  -50.7432 C.2       15 UNK         0.5000 
     88 O          -2.9464  -24.3887  -50.4219 O.2       15 UNK        -0.5000 
     89 N          -3.5013  -26.3151  -51.4798 N.am      16 UNK        -0.5000 
     90 CA         -4.7886  -25.8723  -52.0252 C.3       16 UNK         0.1400 
     91 CB         -5.5263  -27.0776  -52.6263 C.3       16 UNK        -0.1800 
     92 C          -4.6490  -24.7472  -53.0703 C.2       16 UNK         0.5000 
     93 O          -5.5664  -23.9412  -53.2209 O.2       16 UNK        -0.5000 
     94 N          -3.4892  -24.6822  -53.7413 N.am      17 UNK        -0.5000 
     95 CA         -3.1133  -23.5961  -54.6456 C.3       17 UNK         0.1400 
     96 CB         -1.7874  -23.9384  -55.3411 C.3       17 UNK        -0.1800 
     97 C          -3.0119  -22.2437  -53.9196 C.2       17 UNK         0.5000 
     98 O          -3.5160  -21.2473  -54.4317 O.2       17 UNK        -0.5000 
     99 N          -2.4182  -22.2412  -52.7180 N.am      18 UNK        -0.5000 
    100 CA        -2.3112  -21.0608  -51.8608 C.3       18 UNK         0.1400 
    101 CB        -1.2938  -21.3219  -50.7465 C.3       18 UNK        -0.1800 
    102 C         -3.6697  -20.6298  -51.2850 C.2       18 UNK         0.5000 
    103 O         -3.9260  -19.4318  -51.1849 O.2       18 UNK        -0.5000 
    104 N         -4.5504  -21.5973  -50.9878 N.am      19 UNK        -0.5000 
    105 CA        -5.9408  -21.3423  -50.5931 C.3       19 UNK         0.1400 
    106 CB        -6.5977  -22.6492  -50.1264 C.3       19 UNK        -0.1800 
    107 C         -6.7701  -20.6814  -51.7149 C.2       19 UNK         0.5000 
    108 O         -7.6493  -19.8701  -51.4249 O.2       19 UNK        -0.5000 
    109 N         -6.4423  -21.0054  -52.9729 N.am      20 UNK        -0.5000 
    110 CA        -6.9881  -20.3873  -54.1830 C.3       20 UNK         0.1400 
    111 CB        -6.9148  -21.4108  -55.3289 C.3       20 UNK        -0.1800 
    112 C         -6.2827  -19.0665  -54.5710 C.2       20 UNK         0.5000 
    113 O         -6.6594  -18.4653  -55.5775 O.2       20 UNK        -0.5000 
    114 N         -5.2847  -18.6396  -53.7815 N.am      21 UNK        -0.5000 
    115 CA        -4.4444  -17.4478  -53.9464 C.3       21 UNK         0.1400 
    116 CB        -5.2836  -16.1539  -53.9025 C.3       21 UNK        -0.1800 
    117 C         -3.4829  -17.5115  -55.1549 C.2       21 UNK         0.5000 
    118 O         -3.0556  -16.4681  -55.6527 O.2       21 UNK        -0.5000 
    119 N         -3.1250  -18.7322  -55.5704 N.am      22 UNK        -0.5000 
    120 CA        -2.1869  -19.0725  -56.6524 C.3       22 UNK         0.1400 
    121 C         -2.6585  -18.6107  -58.0678 C.2       22 UNK         0.5000 
    122 N         -1.7822  -18.5829  -59.0647 N.am      22 UNK        -0.7600 
    123 O         -3.8318  -18.3263  -58.2988 O.2       22 UNK        -0.5000 
    124 C124       -0.7133  -18.6870  -56.3237 C.3       23 UNK        -0.0398 
    125 S125       -0.1566  -19.3034  -54.6927 S.3       23 UNK        -0.2404 
    126 C126        0.3762  -17.7620  -53.8846 C.3       23 UNK        -0.0205 
    127 H127       -0.5030  -10.1769  -50.0755 H         1 UNK         0.0600 
    128 H128        0.4860  -10.3374  -51.5296 H         1 UNK         0.0600 
    129 H129        1.2178   -9.7839  -50.0194 H         1 UNK         0.0600 
    130 H130       -0.9464  -12.1401  -49.1146 H         1 UNK         0.3000 
    131 H131        0.4823  -14.5664  -49.7266 H         1 UNK         0.0600 
    132 H132       -1.7316  -13.9662  -47.6968 H         1 UNK         0.0800 
    133 H133       -1.0540  -15.5491  -47.9621 H         1 UNK         0.0800 
    134 H134       -3.3133  -16.9798  -50.4908 H         1 UNK         0.0800 
    135 H135       -2.6726  -17.0842  -48.8749 H         1 UNK         0.0800 
    136 H136       -1.7255  -16.8086  -52.4665 H         1 UNK         0.1150 
    137 H137        2.0201  -18.8208  -51.9707 H         1 UNK         0.1150 
    138 H138       -0.3639  -17.8400  -48.5396 H         1 UNK         0.1150 
    139 H139        2.9823  -18.9641  -49.7602 H         1 UNK         0.0800 
    140 H140        2.1339  -18.3900  -48.3553 H         1 UNK         0.0800 
    141 H141       -0.1306  -19.8633  -47.4393 H         1 UNK         0.0800 
    142 H142        1.3867  -19.9369  -46.5892 H         1 UNK         0.0800 
    143 H143        1.1382  -22.5494  -46.7102 H         1 UNK         0.0600 
    144 H144        0.2523  -20.7393  -44.7644 H         1 UNK         0.3000 
    145 H145       -0.9326  -23.0931  -42.3367 H         1 UNK         0.0600 
    146 H146        0.7081  -21.8088  -40.9816 H         1 UNK         0.0600 
    147 H147        1.5067  -21.2430  -42.4466 H         1 UNK         0.0600 
    148 H148        1.5249  -22.9520  -42.0376 H         1 UNK         0.0600 
    149 H149       -0.8239  -20.2524  -42.2893 H         1 UNK         0.3000 
    150 H150       -4.0420  -19.6704  -43.7904 H         1 UNK         0.0600 
    151 H151       -4.4041  -20.1190  -41.3603 H         1 UNK         0.0600 
    152 H152       -4.2784  -18.3956  -41.6807 H         1 UNK         0.0600 
    153 H153       -2.9197  -19.2603  -40.9673 H         1 UNK         0.0600 
    154 H154       -2.0970  -17.8374  -42.8600 H         1 UNK         0.3000 
    155 H155       -0.2185  -17.5333  -45.9082 H         1 UNK         0.0600 
    156 H156       -2.2121  -16.0340  -46.0105 H         1 UNK         0.0600 
    157 H157       -0.8071  -15.1711  -45.3850 H         1 UNK         0.0600 
    158 H158       -2.0806  -15.7069  -44.2978 H         1 UNK         0.0600 
    159 H159        0.1989  -16.3257  -43.3877 H         1 UNK         0.3000 
    160 H160        2.1951  -18.8937  -41.8846 H         1 UNK         0.0600 
    161 H161        2.9221  -16.1139  -42.9457 H         1 UNK         0.0600 
    162 H162        3.7799  -17.6127  -43.2888 H         1 UNK         0.0600 
    163 H163        3.7515  -16.9750  -41.6540 H         1 UNK         0.0600 
    164 H164        1.2626  -16.2701  -41.0933 H         1 UNK         0.3000 
    165 H165       -1.6531  -17.4124  -39.4000 H         1 UNK         0.0600 
    166 H166       -0.5368  -16.2553  -37.5117 H         1 UNK         0.0600 
    167 H167        0.2184  -17.8157  -37.7941 H         1 UNK         0.0600 
    168 H168        1.0198  -16.3458  -38.3360 H         1 UNK         0.0600 
    169 H169       -0.4085  -14.8400  -39.6931 H         1 UNK         0.3000 
    170 H170       -2.0011  -13.9207  -42.7410 H         1 UNK         0.0600 
    171 H171       -2.5670  -12.9833  -39.8793 H         1 UNK         0.0600 
    172 H172       -2.8968  -12.0788  -41.3576 H         1 UNK         0.0600 
    173 H173       -3.7769  -13.5601  -41.0194 H         1 UNK         0.0600 
    174 H174       -0.4202  -12.3733  -41.0043 H         1 UNK         0.3000 
    175 H175        1.6625  -11.6775  -42.0459 H         1 UNK         0.0600 
    176 H176        2.7793  -14.0424  -40.4063 H         1 UNK         0.0600 
    177 H177        3.3488  -12.3787  -40.3090 H         1 UNK         0.0600 
    178 H178        1.7331  -12.7806  -39.7651 H         1 UNK         0.0600 
    179 H179        2.7455  -13.8989  -43.4707 H         1 UNK         0.3000 
    180 H180        5.4130  -12.1134  -44.8461 H         1 UNK         0.0600 
    181 H181        6.9951  -13.9219  -44.1944 H         1 UNK         0.0600 
    182 H182        5.9516  -14.3735  -42.8456 H         1 UNK         0.0600 
    183 H183        6.7444  -12.8030  -42.8647 H         1 UNK         0.0600 
    184 H184        4.4740  -14.9128  -44.7196 H         1 UNK         0.3000 
    185 H185        4.1044  -15.4262  -47.5580 H         1 UNK         0.0600 
    186 H186        2.0492  -15.6252  -45.2986 H         1 UNK         0.0600 
    187 H187        2.2498  -16.8589  -46.5343 H         1 UNK         0.0600 
    188 H188        3.5706  -16.5103  -45.4446 H         1 UNK         0.0600 
    189 H189        2.4151  -14.9995  -48.9029 H         1 UNK         0.3000 
    190 H190       -2.1023  -21.0209  -46.3674 H         1 UNK         0.3000 
    191 H191       -3.3568  -22.3751  -48.5167 H         1 UNK         0.0600 
    192 H192       -4.2564  -20.3060  -47.5316 H         1 UNK         0.0600 
    193 H193       -4.5215  -21.1076  -45.9835 H         1 UNK         0.0600 
    194 H194       -5.4628  -21.5772  -47.3933 H         1 UNK         0.0600 
    195 H195       -2.9362  -23.3563  -45.1082 H         1 UNK         0.3000 
    196 H196       -4.6102  -25.6919  -45.2695 H         1 UNK         0.0600 
    197 H197       -4.0108  -24.6374  -43.1081 H         1 UNK         0.0600 
    198 H198       -2.3091  -25.0163  -43.3629 H         1 UNK         0.0600 
    199 H199       -3.4779  -26.3115  -43.1413 H         1 UNK         0.0600 
    200 H200       -1.1192  -25.1090  -45.8173 H         1 UNK         0.3000 
    201 H201       -0.4165  -27.8567  -46.2090 H         1 UNK         0.0600 
    202 H202        1.2239  -26.1684  -45.4698 H         1 UNK         0.0600 
    203 H203        1.0411  -25.2757  -46.9781 H         1 UNK         0.0600 
    204 H204        1.7514  -26.8858  -46.9845 H         1 UNK         0.0600 
    205 H205       -1.2213  -25.1988  -48.5116 H         1 UNK         0.3000 
    206 H206       -1.3044  -27.1868  -50.7495 H         1 UNK         0.0600 
    207 H207       -0.1400  -24.3504  -50.7518 H         1 UNK         0.0600 
    208 H208        0.7762  -25.8476  -50.8952 H         1 UNK         0.0600 
    209 H209       -0.3343  -25.3740  -52.1720 H         1 UNK         0.0600 
    210 H210       -3.2180  -27.2572  -51.7085 H         1 UNK         0.3000 
    211 H211       -5.3859  -25.4814  -51.1989 H         1 UNK         0.0600 
    212 H212       -4.9648  -27.5261  -53.4468 H         1 UNK         0.0600 
    213 H213       -6.5008  -26.7825  -53.0179 H         1 UNK         0.0600 
    214 H214       -5.6997  -27.8487  -51.8754 H         1 UNK         0.0600 
    215 H215       -2.7971  -25.3960  -53.5713 H         1 UNK         0.3000 
    216 H216       -3.8891  -23.5082  -55.4092 H         1 UNK         0.0600 
    217 H217       -1.4920  -23.1439  -56.0280 H         1 UNK         0.0600 
    218 H218       -1.8731  -24.8556  -55.9239 H         1 UNK         0.0600 
    219 H219       -0.9760  -24.0700  -54.6241 H         1 UNK         0.0600 
    220 H220       -2.0875  -23.1121  -52.3294 H         1 UNK         0.3000 
    221 H221       -1.9391  -20.2301  -52.4637 H         1 UNK         0.0600 
    222 H222       -1.2573  -20.4888  -50.0446 H         1 UNK         0.0600 
    223 H223       -1.5407  -22.2160  -50.1784 H         1 UNK         0.0600 
    224 H224       -0.2909  -21.4495  -51.1536 H         1 UNK         0.0600 
    225 H225       -4.2601  -22.5630  -51.0745 H         1 UNK         0.3000 
    226 H226       -5.9219  -20.6519  -49.7475 H         1 UNK         0.0600 
    227 H227       -6.0084  -23.1357  -49.3508 H         1 UNK         0.0600 
    228 H228       -7.5874  -22.4571  -49.7107 H         1 UNK         0.0600 
    229 H229       -6.7222  -23.3569  -50.9449 H         1 UNK         0.0600 
    230 H230       -5.7408  -21.7219  -53.1163 H         1 UNK         0.3000 
    231 H231       -8.0403  -20.1506  -54.0128 H         1 UNK         0.0600 
    232 H232       -7.3841  -21.0226  -56.2336 H         1 UNK         0.0600 
    233 H233       -7.4318  -22.3340  -55.0664 H         1 UNK         0.0600 
    234 H234       -5.8848  -21.6652  -55.5782 H         1 UNK         0.0600 
    235 H235       -5.0489  -19.2081  -52.9771 H         1 UNK         0.3000 
    236 H236       -3.8041  -17.4359  -53.0657 H         1 UNK         0.0600 
    237 H237       -5.8991  -16.0381  -54.7948 H         1 UNK         0.0600 
    238 H238       -5.9416  -16.1398  -53.0337 H         1 UNK         0.0600 
    239 H239       -4.6413  -15.2751  -53.8345 H         1 UNK         0.0600 
    240 H240       -3.5058  -19.5404  -55.0839 H         1 UNK         0.3000 
    241 H241       -2.2235  -20.1610  -56.7038 H         1 UNK         0.0600 
    242 H242       -2.0998  -18.3035  -59.9802 H         1 UNK         0.3800 
    243 H243       -0.8160  -18.8388  -58.9378 H         1 UNK         0.3800 
    244 H244       -0.5861  -17.6058  -56.3878 H         1 UNK         0.0800 
    245 H245       -0.0345  -19.1121  -57.0635 H         1 UNK         0.0800 
    246 H246       -0.1748  -16.9123  -54.2903 H         1 UNK         0.0800 
    247 H247        1.4277  -17.5811  -54.1121 H         1 UNK         0.0800 
@<TRIPOS>BOND
     1    1    2 1    
     2    1  127 1    
     3    1  128 1    
     4    1  129 1    
     5    2    3 2    
     6    2    4 am   BACKBONE|DICT|INTERRES
     7    4    5 1    
     8    4  130 1    
     9    5    6 1    
    10    5   65 1    
    11    5  131 1    
    12    6    7 1    
    13    6  132 1    
    14    6  133 1    
    15    7    8 1    
    16    8    9 1    
    17    8  134 1    
    18    8  135 1    
    19    9   10 ar   
    20    9   14 ar   
    21   10   11 ar   
    22   10  136 1    
    23   11   12 ar   
    24   11  126 1    
    25   12   13 ar   
    26   12  137 1    
    27   13   14 ar   
    28   13   15 1    
    29   14  138 1    
    30   15   16 1    
    31   15  139 1    
    32   15  140 1    
    33   16   17 1    
    34   17   18 1    
    35   17  141 1    
    36   17  142 1    
    37   18   19 1    
    38   18   67 1    
    39   18  143 1    
    40   19   20 am   BACKBONE|DICT|INTERRES
    41   19  144 1    
    42   20   21 2    
    43   20   22 1    
    44   22   23 1    
    45   22   24 1    
    46   22  145 1    
    47   23  146 1    
    48   23  147 1    
    49   23  148 1    
    50   24   25 am   BACKBONE|DICT|INTERRES
    51   24  149 1    
    52   25   26 2    
    53   25   27 1    
    54   27   28 1    
    55   27   29 1    
    56   27  150 1    
    57   28  151 1    
    58   28  152 1    
    59   28  153 1    
    60   29   30 am   BACKBONE|DICT|INTERRES
    61   29  154 1    
    62   30   31 2    
    63   30   32 1    
    64   32   33 1    
    65   32   34 1    
    66   32  155 1    
    67   33  156 1    
    68   33  157 1    
    69   33  158 1    
    70   34   35 am   BACKBONE|DICT|INTERRES
    71   34  159 1    
    72   35   36 2    
    73   35   37 1    
    74   37   38 1    
    75   37   39 1    
    76   37  160 1    
    77   38  161 1    
    78   38  162 1    
    79   38  163 1    
    80   39   40 am   BACKBONE|DICT|INTERRES
    81   39  164 1    
    82   40   41 2    
    83   40   42 1    
    84   42   43 1    
    85   42   44 1    
    86   42  165 1    
    87   43  166 1    
    88   43  167 1    
    89   43  168 1    
    90   44   45 am   BACKBONE|DICT|INTERRES
    91   44  169 1    
    92   45   46 2    
    93   45   47 1    
    94   47   48 1    
    95   47   49 1    
    96   47  170 1    
    97   48  171 1    
    98   48  172 1    
    99   48  173 1    
   100   49   50 am   BACKBONE|DICT|INTERRES
   101   49  174 1    
   102   50   51 2    
   103   50   52 1    
   104   52   53 1    
   105   52   54 1    
   106   52  175 1    
   107   53  176 1    
   108   53  177 1    
   109   53  178 1    
   110   54   55 am   BACKBONE|DICT|INTERRES
   111   54  179 1    
   112   55   56 2    
   113   55   57 1    
   114   57   58 1    
   115   57   59 1    
   116   57  180 1    
   117   58  181 1    
   118   58  182 1    
   119   58  183 1    
   120   59   60 am   BACKBONE|DICT|INTERRES
   121   59  184 1    
   122   60   61 2    
   123   60   62 1    
   124   62   63 1    
   125   62   64 1    
   126   62  185 1    
   127   63  186 1    
   128   63  187 1    
   129   63  188 1    
   130   64   65 am   BACKBONE|DICT|INTERRES
   131   64  189 1    
   132   65   66 2    
   133   67   68 2    
   134   67   69 am   BACKBONE|DICT|INTERRES
   135   69   70 1    
   136   69  190 1    
   137   70   71 1    
   138   70   72 1    
   139   70  191 1    
   140   71  192 1    
   141   71  193 1    
   142   71  194 1    
   143   72   73 2    
   144   72   74 am   BACKBONE|DICT|INTERRES
   145   74   75 1    
   146   74  195 1    
   147   75   76 1    
   148   75   77 1    
   149   75  196 1    
   150   76  197 1    
   151   76  198 1    
   152   76  199 1    
   153   77   78 2    
   154   77   79 am   BACKBONE|DICT|INTERRES
   155   79   80 1    
   156   79  200 1    
   157   80   81 1    
   158   80   82 1    
   159   80  201 1    
   160   81  202 1    
   161   81  203 1    
   162   81  204 1    
   163   82   83 2    
   164   82   84 am   BACKBONE|DICT|INTERRES
   165   84   85 1    
   166   84  205 1    
   167   85   86 1    
   168   85   87 1    
   169   85  206 1    
   170   86  207 1    
   171   86  208 1    
   172   86  209 1    
   173   87   88 2    
   174   87   89 am   BACKBONE|DICT|INTERRES
   175   89   90 1    
   176   89  210 1    
   177   90   91 1    
   178   90   92 1    
   179   90  211 1    
   180   91  212 1    
   181   91  213 1    
   182   91  214 1    
   183   92   93 2    
   184   92   94 am   BACKBONE|DICT|INTERRES
   185   94   95 1    
   186   94  215 1    
   187   95   96 1    
   188   95   97 1    
   189   95  216 1    
   190   96  217 1    
   191   96  218 1    
   192   96  219 1    
   193   97   98 2    
   194   97   99 am   BACKBONE|DICT|INTERRES
   195   99  100 1    
   196   99  220 1    
   197  100  101 1    
   198  100  102 1    
   199  100  221 1    
   200  101  222 1    
   201  101  223 1    
   202  101  224 1    
   203  102  103 2    
   204  102  104 am   BACKBONE|DICT|INTERRES
   205  104  105 1    
   206  104  225 1    
   207  105  106 1    
   208  105  107 1    
   209  105  226 1    
   210  106  227 1    
   211  106  228 1    
   212  106  229 1    
   213  107  108 2    
   214  107  109 am   BACKBONE|DICT|INTERRES
   215  109  110 1    
   216  109  230 1    
   217  110  111 1    
   218  110  112 1    
   219  110  231 1    
   220  111  232 1    
   221  111  233 1    
   222  111  234 1    
   223  112  113 2    
   224  112  114 am   BACKBONE|DICT|INTERRES
   225  114  115 1    
   226  114  235 1    
   227  115  116 1    
   228  115  117 1    
   229  115  236 1    
   230  116  237 1    
   231  116  238 1    
   232  116  239 1    
   233  117  118 2    
   234  117  119 am   BACKBONE|DICT|INTERRES
   235  119  120 1    
   236  119  240 1    
   237  120  121 1    
   238  120  124 1    
   239  120  241 1    
   240  121  122 am   BACKBONE|DICT|INTERRES
   241  121  123 2    
   242  122  242 1    
   243  122  243 1    
   244  124  125 1    
   245  124  244 1    
   246  124  245 1    
   247  125  126 1    
   248  126  246 1    
   249  126  247 1    
@<TRIPOS>SUBSTRUCTURE
     1 UNK         1 GROUP             0       ****    0 ROOT    
