@<TRIPOS>MOLECULE
3R540
247   249    1
SMALL
USER_CHARGES


@<TRIPOS>ATOM
      1 CA          3.1371  -13.0237  -46.6076 C.3       0 UNK        -0.1800 
      2 C           1.6834  -13.2504  -46.2253 C.2       0 UNK         0.5000 
      3 O           1.3856  -13.4419  -45.0462 O.2       0 UNK        -0.5000 
      4 N           0.7760  -13.2418  -47.2100 N.am      1 UNK        -0.5000 
      5 CA         -0.6668  -13.4497  -47.0203 C.3       1 UNK         0.1400 
      6 C6         -1.3980  -13.7258  -48.3578 C.3       23 UNK        -0.0398 
      7 S7         -1.0796  -15.4171  -48.9565 S.3       23 UNK        -0.2404 
      8 C8          0.1540  -15.1590  -50.2677 C.3       23 UNK        -0.0205 
      9 C9          0.7449  -16.4938  -50.6930 C.ar      23 UNK        -0.0193 
     10 C10         0.0538  -17.3179  -51.5844 C.ar      23 UNK        -0.1150 
     11 C11         0.5489  -18.5854  -51.9164 C.ar      23 UNK        -0.0193 
     12 C12         1.7650  -19.0045  -51.3660 C.ar      23 UNK        -0.1150 
     13 C13         2.4656  -18.1919  -50.4714 C.ar      23 UNK        -0.0193 
     14 C14         1.9596  -16.9283  -50.1578 C.ar      23 UNK        -0.1150 
     15 C15         3.7623  -18.6736  -49.8347 C.3       23 UNK        -0.0205 
     16 S16         3.4728  -19.5943  -48.2841 S.3       23 UNK        -0.2404 
     17 C17         3.2199  -21.3039  -48.8830 C.3       23 UNK        -0.0398 
     18 CA          1.9149  -22.0001  -48.4190 C.3       11 UNK         0.1400 
     19 N           1.8190  -22.1297  -46.9628 N.am      11 UNK        -0.5000 
     20 C           1.3141  -23.2016  -46.3376 C.2       10 UNK         0.5000 
     21 O           0.9822  -24.2345  -46.9215 O.2       10 UNK        -0.5000 
     22 CA          1.1233  -23.0941  -44.8115 C.3       10 UNK         0.1400 
     23 CB          1.0454  -24.4632  -44.1052 C.3       10 UNK        -0.1800 
     24 N           2.0863  -22.2152  -44.1504 N.am      10 UNK        -0.5000 
     25 C           3.4107  -22.3682  -44.0255 C.2       9 UNK         0.5000 
     26 O           4.0455  -23.3149  -44.4912 O.2       9 UNK        -0.5000 
     27 CA          4.1545  -21.2643  -43.2445 C.3       9 UNK         0.1400 
     28 CB          4.9089  -20.3481  -44.2205 C.3       9 UNK        -0.1800 
     29 N           3.2652  -20.4437  -42.4139 N.am      9 UNK        -0.5000 
     30 C           2.6635  -20.8529  -41.2869 C.2       8 UNK         0.5000 
     31 O           2.8699  -21.9468  -40.7609 O.2       8 UNK        -0.5000 
     32 CA          1.6174  -19.8988  -40.6752 C.3       8 UNK         0.1400 
     33 CB          2.2904  -18.8084  -39.8280 C.3       8 UNK        -0.1800 
     34 N           0.7650  -19.2762  -41.6921 N.am      8 UNK        -0.5000 
     35 C          -0.1198  -19.9387  -42.4533 C.2       7 UNK         0.5000 
     36 O          -0.3628  -21.1380  -42.3309 O.2       7 UNK        -0.5000 
     37 CA         -0.8013  -19.1484  -43.5834 C.3       7 UNK         0.1400 
     38 CB         -2.0554  -18.4161  -43.0840 C.3       7 UNK        -0.1800 
     39 N           0.1236  -18.1951  -44.1943 N.am      7 UNK        -0.5000 
     40 C           1.0727  -18.5342  -45.0776 C.2       6 UNK         0.5000 
     41 O           1.1914  -19.6664  -45.5471 O.2       6 UNK        -0.5000 
     42 CA          2.0580  -17.4315  -45.5042 C.3       6 UNK         0.1400 
     43 CB          1.5747  -16.7640  -46.7902 C.3       6 UNK        -0.1800 
     44 N           2.2524  -16.4027  -44.4842 N.am      6 UNK        -0.5000 
     45 C           2.8980  -16.5991  -43.3280 C.2       5 UNK         0.5000 
     46 O           3.4243  -17.6641  -43.0128 O.2       5 UNK        -0.5000 
     47 CA          2.8962  -15.4254  -42.3361 C.3       5 UNK         0.1400 
     48 CB          4.0677  -14.4737  -42.6183 C.3       5 UNK        -0.1800 
     49 N           1.6454  -14.6726  -42.3904 N.am      5 UNK        -0.5000 
     50 C           0.4440  -15.1282  -42.0122 C.2       4 UNK         0.5000 
     51 O           0.2716  -16.2568  -41.5494 O.2       4 UNK        -0.5000 
     52 CA         -0.7674  -14.1988  -42.2535 C.3       4 UNK         0.1400 
     53 CB         -1.7790  -14.2346  -41.0908 C.3       4 UNK        -0.1800 
     54 N          -0.3890  -12.8234  -42.6083 N.am      4 UNK        -0.5000 
     55 C           0.2201  -11.9065  -41.8396 C.2       3 UNK         0.5000 
     56 O           0.4341  -12.0493  -40.6358 O.2       3 UNK        -0.5000 
     57 CA          0.7380  -10.6378  -42.5457 C.3       3 UNK         0.1400 
     58 CB          2.2743  -10.6652  -42.6156 C.3       3 UNK        -0.1800 
     59 N           0.2236  -10.4967  -43.9090 N.am      3 UNK        -0.5000 
     60 C          -0.9033   -9.8538  -44.2421 C.2       2 UNK         0.5000 
     61 O          -1.6328   -9.2831  -43.4309 O.2       2 UNK        -0.5000 
     62 CA         -1.2824   -9.8587  -45.7366 C.3       2 UNK         0.1400 
     63 CB         -0.7141   -8.6164  -46.4393 C.3       2 UNK        -0.1800 
     64 N          -0.8228  -11.0595  -46.4411 N.am      2 UNK        -0.5000 
     65 C          -1.3290  -12.2870  -46.2531 C.2       1 UNK         0.5000 
     66 O          -2.2530  -12.5286  -45.4764 O.2       1 UNK        -0.5000 
     67 C           0.6483  -21.3488  -49.0088 C.2       11 UNK         0.5000 
     68 O           0.3236  -21.6274  -50.1626 O.2       11 UNK        -0.5000 
     69 N          -0.0470  -20.5152  -48.2196 N.am      12 UNK        -0.5000 
     70 CA         -1.2827  -19.8404  -48.6138 C.3       12 UNK         0.1400 
     71 CB         -1.6486  -18.7966  -47.5481 C.3       12 UNK        -0.1800 
     72 C          -2.4568  -20.8180  -48.7821 C.2       12 UNK         0.5000 
     73 O          -2.5715  -21.7831  -48.0222 O.2       12 UNK        -0.5000 
     74 N          -3.3677  -20.4984  -49.7111 N.am      13 UNK        -0.5000 
     75 CA         -4.6099  -21.2364  -49.9665 C.3       13 UNK         0.1400 
     76 CB         -5.3401  -20.6069  -51.1597 C.3       13 UNK        -0.1800 
     77 C          -5.5464  -21.3185  -48.7443 C.2       13 UNK         0.5000 
     78 O          -6.2890  -22.2914  -48.6157 O.2       13 UNK        -0.5000 
     79 N          -5.4418  -20.3347  -47.8387 N.am      14 UNK        -0.5000 
     80 CA         -6.1041  -20.2907  -46.5327 C.3       14 UNK         0.1400 
     81 CB         -5.7916  -18.9403  -45.8691 C.3       14 UNK        -0.1800 
     82 C          -5.7116  -21.4495  -45.5911 C.2       14 UNK         0.5000 
     83 O          -6.5006  -21.8048  -44.7155 O.2       14 UNK        -0.5000 
     84 N          -4.5235  -22.0348  -45.8010 N.am      15 UNK        -0.5000 
     85 CA         -4.0249  -23.2144  -45.0918 C.3       15 UNK         0.1400 
     86 CB         -2.5186  -23.0372  -44.8474 C.3       15 UNK        -0.1800 
     87 C          -4.3253  -24.5236  -45.8547 C.2       15 UNK         0.5000 
     88 O          -3.7292  -25.5543  -45.5407 O.2       15 UNK        -0.5000 
     89 N          -5.2337  -24.4630  -46.8415 N.am      16 UNK        -0.5000 
     90 CA         -5.6862  -25.5484  -47.7176 C.3       16 UNK         0.1400 
     91 CB         -6.3188  -26.7040  -46.9129 C.3       16 UNK        -0.1800 
     92 C          -4.6121  -26.0190  -48.7201 C.2       16 UNK         0.5000 
     93 O          -4.6493  -27.1672  -49.1652 O.2       16 UNK        -0.5000 
     94 N          -3.6933  -25.1152  -49.0938 N.am      17 UNK        -0.5000 
     95 CA         -2.6550  -25.3557  -50.1023 C.3       17 UNK         0.1400 
     96 CB         -1.5656  -24.2846  -49.9646 C.3       17 UNK        -0.1800 
     97 C          -3.1924  -25.3863  -51.5497 C.2       17 UNK         0.5000 
     98 O          -2.4882  -25.8681  -52.4376 O.2       17 UNK        -0.5000 
     99 N          -4.4203  -24.8835  -51.7552 N.am      18 UNK        -0.5000 
    100 CA        -5.1559  -24.7979  -53.0184 C.3       18 UNK         0.1400 
    101 CB        -5.5003  -26.2041  -53.5585 C.3       18 UNK        -0.1800 
    102 C         -4.4480  -23.8866  -54.0400 C.2       18 UNK         0.5000 
    103 O         -4.5404  -22.6655  -53.9085 O.2       18 UNK        -0.5000 
    104 N         -3.7970  -24.4794  -55.0527 N.am      19 UNK        -0.5000 
    105 CA        -3.0691  -23.8149  -56.1437 C.3       19 UNK         0.1400 
    106 CB        -1.8061  -23.1154  -55.5964 C.3       19 UNK        -0.1800 
    107 C         -3.9623  -22.8713  -56.9802 C.2       19 UNK         0.5000 
    108 O         -3.5179  -21.7959  -57.3854 O.2       19 UNK        -0.5000 
    109 N         -5.2262  -23.2786  -57.1814 N.am      20 UNK        -0.5000 
    110 CA        -6.3109  -22.5138  -57.8136 C.3       20 UNK         0.1400 
    111 CB        -6.0281  -22.2969  -59.3154 C.3       20 UNK        -0.1800 
    112 C         -6.6270  -21.2023  -57.0585 C.2       20 UNK         0.5000 
    113 O         -6.8737  -20.1704  -57.6845 O.2       20 UNK        -0.5000 
    114 N         -6.5880  -21.2808  -55.7188 N.am      21 UNK        -0.5000 
    115 CA        -6.6740  -20.1793  -54.7538 C.3       21 UNK         0.1400 
    116 CB        -8.0452  -19.4737  -54.8182 C.3       21 UNK        -0.1800 
    117 C         -5.4740  -19.2172  -54.8787 C.2       21 UNK         0.5000 
    118 O         -5.6519  -17.9976  -54.8737 O.2       21 UNK        -0.5000 
    119 N         -4.2748  -19.8032  -55.0013 N.am      22 UNK        -0.5000 
    120 CA        -2.9907  -19.1297  -55.2600 C.3       22 UNK         0.1400 
    121 C         -2.9897  -18.3194  -56.5889 C.2       22 UNK         0.5000 
    122 N         -3.3083  -18.9626  -57.7041 N.am      22 UNK        -0.7600 
    123 O         -2.6987  -17.1261  -56.6227 O.2       22 UNK        -0.5000 
    124 C124       -2.4675  -18.3326  -54.0346 C.3       23 UNK        -0.0398 
    125 S125       -2.0238  -19.4587  -52.6692 S.3       23 UNK        -0.2404 
    126 C126       -0.2078  -19.5304  -52.8485 C.3       23 UNK        -0.0205 
    127 H127        3.2542  -12.8622  -47.6793 H         1 UNK         0.0600 
    128 H128        3.5294  -12.1519  -46.0843 H         1 UNK         0.0600 
    129 H129        3.7354  -13.8899  -46.3255 H         1 UNK         0.0600 
    130 H130        1.0790  -13.0840  -48.1595 H         1 UNK         0.3000 
    131 H131       -0.7907  -14.3278  -46.3824 H         1 UNK         0.0600 
    132 H132       -1.1266  -12.9930  -49.1194 H         1 UNK         0.0800 
    133 H133       -2.4795  -13.6443  -48.2325 H         1 UNK         0.0800 
    134 H134        0.9422  -14.4955  -49.9107 H         1 UNK         0.0800 
    135 H135       -0.3133  -14.6641  -51.1203 H         1 UNK         0.0800 
    136 H136       -0.8875  -16.9770  -51.9896 H         1 UNK         0.1150 
    137 H137        2.1530  -19.9822  -51.6134 H         1 UNK         0.1150 
    138 H138        2.4986  -16.2935  -49.4702 H         1 UNK         0.1150 
    139 H139        4.3307  -19.2837  -50.5381 H         1 UNK         0.0800 
    140 H140        4.3960  -17.8148  -49.6088 H         1 UNK         0.0800 
    141 H141        4.0726  -21.8925  -48.5423 H         1 UNK         0.0800 
    142 H142        3.2780  -21.3253  -49.9718 H         1 UNK         0.0800 
    143 H143        1.9526  -23.0026  -48.8511 H         1 UNK         0.0600 
    144 H144        2.0092  -21.2943  -46.4191 H         1 UNK         0.3000 
    145 H145        0.1623  -22.6020  -44.6745 H         1 UNK         0.0600 
    146 H146        0.8783  -24.3431  -43.0347 H         1 UNK         0.0600 
    147 H147        0.2195  -25.0590  -44.4955 H         1 UNK         0.0600 
    148 H148        1.9592  -25.0420  -44.2414 H         1 UNK         0.0600 
    149 H149        1.6869  -21.3809  -43.7452 H         1 UNK         0.3000 
    150 H150        4.8832  -21.7509  -42.5932 H         1 UNK         0.0600 
    151 H151        5.6204  -20.9161  -44.8211 H         1 UNK         0.0600 
    152 H152        5.4716  -19.5807  -43.6887 H         1 UNK         0.0600 
    153 H153        4.2265  -19.8482  -44.9084 H         1 UNK         0.0600 
    154 H154        3.1179  -19.4858  -42.7231 H         1 UNK         0.3000 
    155 H155        0.9752  -20.4878  -40.0169 H         1 UNK         0.0600 
    156 H156        2.9647  -18.1915  -40.4213 H         1 UNK         0.0600 
    157 H157        2.8766  -19.2499  -39.0213 H         1 UNK         0.0600 
    158 H158        1.5505  -18.1506  -39.3714 H         1 UNK         0.0600 
    159 H159        0.8610  -18.2752  -41.8161 H         1 UNK         0.3000 
    160 H160       -1.1176  -19.8661  -44.3432 H         1 UNK         0.0600 
    161 H161       -2.5483  -17.8815  -43.8963 H         1 UNK         0.0600 
    162 H162       -1.8234  -17.6961  -42.2994 H         1 UNK         0.0600 
    163 H163       -2.7786  -19.1228  -42.6752 H         1 UNK         0.0600 
    164 H164        0.1065  -17.2515  -43.8386 H         1 UNK         0.3000 
    165 H165        3.0205  -17.9051  -45.7052 H         1 UNK         0.0600 
    166 H166        2.3149  -16.0609  -47.1693 H         1 UNK         0.0600 
    167 H167        1.3993  -17.5081  -47.5661 H         1 UNK         0.0600 
    168 H168        0.6407  -16.2263  -46.6344 H         1 UNK         0.0600 
    169 H169        1.8522  -15.4888  -44.6612 H         1 UNK         0.3000 
    170 H170        3.0106  -15.8310  -41.3290 H         1 UNK         0.0600 
    171 H171        5.0205  -15.0026  -42.5707 H         1 UNK         0.0600 
    172 H172        4.1057  -13.6681  -41.8847 H         1 UNK         0.0600 
    173 H173        3.9909  -14.0213  -43.6080 H         1 UNK         0.0600 
    174 H174        1.6766  -13.7796  -42.8637 H         1 UNK         0.3000 
    175 H175       -1.2725  -14.5976  -43.1344 H         1 UNK         0.0600 
    176 H176       -2.6209  -13.5687  -41.2798 H         1 UNK         0.0600 
    177 H177       -2.1838  -15.2387  -40.9586 H         1 UNK         0.0600 
    178 H178       -1.3239  -13.9434  -40.1441 H         1 UNK         0.0600 
    179 H179       -0.4977  -12.5953  -43.5870 H         1 UNK         0.3000 
    180 H180        0.4371   -9.7771  -41.9448 H         1 UNK         0.0600 
    181 H181        2.6372  -11.5087  -43.2045 H         1 UNK         0.0600 
    182 H182        2.7122  -10.7478  -41.6200 H         1 UNK         0.0600 
    183 H183        2.6640   -9.7515  -43.0645 H         1 UNK         0.0600 
    184 H184        0.7541  -10.9492  -44.6393 H         1 UNK         0.3000 
    185 H185       -2.3719   -9.8188  -45.8016 H         1 UNK         0.0600 
    186 H186        0.3765   -8.6071  -46.4230 H         1 UNK         0.0600 
    187 H187       -1.0355   -8.5701  -47.4800 H         1 UNK         0.0600 
    188 H188       -1.0574   -7.7019  -45.9537 H         1 UNK         0.0600 
    189 H189       -0.0582  -10.9441  -47.0903 H         1 UNK         0.3000 
    190 H190        0.2880  -20.3429  -47.2796 H         1 UNK         0.3000 
    191 H191       -1.1037  -19.3289  -49.5615 H         1 UNK         0.0600 
    192 H192       -0.8577  -18.0604  -47.4298 H         1 UNK         0.0600 
    193 H193       -1.8286  -19.2574  -46.5766 H         1 UNK         0.0600 
    194 H194       -2.5507  -18.2500  -47.8254 H         1 UNK         0.0600 
    195 H195       -3.1899  -19.7066  -50.3137 H         1 UNK         0.3000 
    196 H196       -4.3348  -22.2572  -50.2365 H         1 UNK         0.0600 
    197 H197       -6.2656  -21.1419  -51.3764 H         1 UNK         0.0600 
    198 H198       -4.7263  -20.6480  -52.0588 H         1 UNK         0.0600 
    199 H199       -5.5962  -19.5631  -50.9742 H         1 UNK         0.0600 
    200 H200       -4.8063  -19.5781  -48.0417 H         1 UNK         0.3000 
    201 H201       -7.1809  -20.3543  -46.7020 H         1 UNK         0.0600 
    202 H202       -6.1344  -18.1083  -46.4845 H         1 UNK         0.0600 
    203 H203       -4.7215  -18.8140  -45.6979 H         1 UNK         0.0600 
    204 H204       -6.2904  -18.8543  -44.9028 H         1 UNK         0.0600 
    205 H205       -3.9395  -21.7121  -46.5664 H         1 UNK         0.3000 
    206 H206       -4.5118  -23.2932  -44.1179 H         1 UNK         0.0600 
    207 H207       -2.3102  -22.0980  -44.3352 H         1 UNK         0.0600 
    208 H208       -2.1254  -23.8390  -44.2213 H         1 UNK         0.0600 
    209 H209       -1.9575  -23.0456  -45.7821 H         1 UNK         0.0600 
    210 H210       -5.6478  -23.5609  -47.0457 H         1 UNK         0.3000 
    211 H211       -6.4806  -25.1160  -48.3273 H         1 UNK         0.0600 
    212 H212       -5.5740  -27.2617  -46.3449 H         1 UNK         0.0600 
    213 H213       -6.8175  -27.4127  -47.5750 H         1 UNK         0.0600 
    214 H214       -7.0685  -26.3341  -46.2135 H         1 UNK         0.0600 
    215 H215       -3.6971  -24.2067  -48.6522 H         1 UNK         0.3000 
    216 H216       -2.2008  -26.3277  -49.8985 H         1 UNK         0.0600 
    217 H217       -0.7106  -24.5123  -50.6021 H         1 UNK         0.0600 
    218 H218       -1.1967  -24.2143  -48.9407 H         1 UNK         0.0600 
    219 H219       -1.9335  -23.3023  -50.2597 H         1 UNK         0.0600 
    220 H220       -4.8979  -24.5024  -50.9527 H         1 UNK         0.3000 
    221 H221       -6.1010  -24.3054  -52.7846 H         1 UNK         0.0600 
    222 H222       -4.6138  -26.8008  -53.7740 H         1 UNK         0.0600 
    223 H223       -6.0981  -26.7592  -52.8353 H         1 UNK         0.0600 
    224 H224       -6.0872  -26.1391  -54.4756 H         1 UNK         0.0600 
    225 H225       -3.7678  -25.4895  -55.0597 H         1 UNK         0.3000 
    226 H226       -2.7415  -24.6019  -56.8242 H         1 UNK         0.0600 
    227 H227       -1.1760  -23.8173  -55.0501 H         1 UNK         0.0600 
    228 H228       -1.2028  -22.7007  -56.4047 H         1 UNK         0.0600 
    229 H229       -2.0541  -22.2978  -54.9192 H         1 UNK         0.0600 
    230 H230       -5.4882  -24.1807  -56.8097 H         1 UNK         0.3000 
    231 H231       -7.2076  -23.1302  -57.7358 H         1 UNK         0.0600 
    232 H232       -5.8140  -23.2408  -59.8164 H         1 UNK         0.0600 
    233 H233       -5.1806  -21.6306  -59.4785 H         1 UNK         0.0600 
    234 H234       -6.8907  -21.8542  -59.8146 H         1 UNK         0.0600 
    235 H235       -6.3205  -22.1681  -55.3165 H         1 UNK         0.3000 
    236 H236       -6.5951  -20.6381  -53.7686 H         1 UNK         0.0600 
    237 H237       -8.1503  -18.7573  -54.0027 H         1 UNK         0.0600 
    238 H238       -8.1804  -18.9255  -55.7507 H         1 UNK         0.0600 
    239 H239       -8.8618  -20.1899  -54.7275 H         1 UNK         0.0600 
    240 H240       -4.2362  -20.8141  -54.9513 H         1 UNK         0.3000 
    241 H241       -2.2706  -19.9284  -55.4412 H         1 UNK         0.0600 
    242 H242       -3.3222  -18.4707  -58.5828 H         1 UNK         0.3800 
    243 H243       -3.5023  -19.9620  -57.6756 H         1 UNK         0.3800 
    244 H244       -1.5933  -17.7357  -54.2984 H         1 UNK         0.0800 
    245 H245       -3.2177  -17.6238  -53.6825 H         1 UNK         0.0800 
    246 H246        0.0839  -19.3318  -53.8802 H         1 UNK         0.0800 
    247 H247        0.0916  -20.5596  -52.6456 H         1 UNK         0.0800 
@<TRIPOS>BOND
     1    1    2 1    
     2    1  127 1    
     3    1  128 1    
     4    1  129 1    
     5    2    3 2    
     6    2    4 am   BACKBONE|DICT|INTERRES
     7    4    5 1    
     8    4  130 1    
     9    5    6 1    
    10    5   65 1    
    11    5  131 1    
    12    6    7 1    
    13    6  132 1    
    14    6  133 1    
    15    7    8 1    
    16    8    9 1    
    17    8  134 1    
    18    8  135 1    
    19    9   10 ar   
    20    9   14 ar   
    21   10   11 ar   
    22   10  136 1    
    23   11   12 ar   
    24   11  126 1    
    25   12   13 ar   
    26   12  137 1    
    27   13   14 ar   
    28   13   15 1    
    29   14  138 1    
    30   15   16 1    
    31   15  139 1    
    32   15  140 1    
    33   16   17 1    
    34   17   18 1    
    35   17  141 1    
    36   17  142 1    
    37   18   19 1    
    38   18   67 1    
    39   18  143 1    
    40   19   20 am   BACKBONE|DICT|INTERRES
    41   19  144 1    
    42   20   21 2    
    43   20   22 1    
    44   22   23 1    
    45   22   24 1    
    46   22  145 1    
    47   23  146 1    
    48   23  147 1    
    49   23  148 1    
    50   24   25 am   BACKBONE|DICT|INTERRES
    51   24  149 1    
    52   25   26 2    
    53   25   27 1    
    54   27   28 1    
    55   27   29 1    
    56   27  150 1    
    57   28  151 1    
    58   28  152 1    
    59   28  153 1    
    60   29   30 am   BACKBONE|DICT|INTERRES
    61   29  154 1    
    62   30   31 2    
    63   30   32 1    
    64   32   33 1    
    65   32   34 1    
    66   32  155 1    
    67   33  156 1    
    68   33  157 1    
    69   33  158 1    
    70   34   35 am   BACKBONE|DICT|INTERRES
    71   34  159 1    
    72   35   36 2    
    73   35   37 1    
    74   37   38 1    
    75   37   39 1    
    76   37  160 1    
    77   38  161 1    
    78   38  162 1    
    79   38  163 1    
    80   39   40 am   BACKBONE|DICT|INTERRES
    81   39  164 1    
    82   40   41 2    
    83   40   42 1    
    84   42   43 1    
    85   42   44 1    
    86   42  165 1    
    87   43  166 1    
    88   43  167 1    
    89   43  168 1    
    90   44   45 am   BACKBONE|DICT|INTERRES
    91   44  169 1    
    92   45   46 2    
    93   45   47 1    
    94   47   48 1    
    95   47   49 1    
    96   47  170 1    
    97   48  171 1    
    98   48  172 1    
    99   48  173 1    
   100   49   50 am   BACKBONE|DICT|INTERRES
   101   49  174 1    
   102   50   51 2    
   103   50   52 1    
   104   52   53 1    
   105   52   54 1    
   106   52  175 1    
   107   53  176 1    
   108   53  177 1    
   109   53  178 1    
   110   54   55 am   BACKBONE|DICT|INTERRES
   111   54  179 1    
   112   55   56 2    
   113   55   57 1    
   114   57   58 1    
   115   57   59 1    
   116   57  180 1    
   117   58  181 1    
   118   58  182 1    
   119   58  183 1    
   120   59   60 am   BACKBONE|DICT|INTERRES
   121   59  184 1    
   122   60   61 2    
   123   60   62 1    
   124   62   63 1    
   125   62   64 1    
   126   62  185 1    
   127   63  186 1    
   128   63  187 1    
   129   63  188 1    
   130   64   65 am   BACKBONE|DICT|INTERRES
   131   64  189 1    
   132   65   66 2    
   133   67   68 2    
   134   67   69 am   BACKBONE|DICT|INTERRES
   135   69   70 1    
   136   69  190 1    
   137   70   71 1    
   138   70   72 1    
   139   70  191 1    
   140   71  192 1    
   141   71  193 1    
   142   71  194 1    
   143   72   73 2    
   144   72   74 am   BACKBONE|DICT|INTERRES
   145   74   75 1    
   146   74  195 1    
   147   75   76 1    
   148   75   77 1    
   149   75  196 1    
   150   76  197 1    
   151   76  198 1    
   152   76  199 1    
   153   77   78 2    
   154   77   79 am   BACKBONE|DICT|INTERRES
   155   79   80 1    
   156   79  200 1    
   157   80   81 1    
   158   80   82 1    
   159   80  201 1    
   160   81  202 1    
   161   81  203 1    
   162   81  204 1    
   163   82   83 2    
   164   82   84 am   BACKBONE|DICT|INTERRES
   165   84   85 1    
   166   84  205 1    
   167   85   86 1    
   168   85   87 1    
   169   85  206 1    
   170   86  207 1    
   171   86  208 1    
   172   86  209 1    
   173   87   88 2    
   174   87   89 am   BACKBONE|DICT|INTERRES
   175   89   90 1    
   176   89  210 1    
   177   90   91 1    
   178   90   92 1    
   179   90  211 1    
   180   91  212 1    
   181   91  213 1    
   182   91  214 1    
   183   92   93 2    
   184   92   94 am   BACKBONE|DICT|INTERRES
   185   94   95 1    
   186   94  215 1    
   187   95   96 1    
   188   95   97 1    
   189   95  216 1    
   190   96  217 1    
   191   96  218 1    
   192   96  219 1    
   193   97   98 2    
   194   97   99 am   BACKBONE|DICT|INTERRES
   195   99  100 1    
   196   99  220 1    
   197  100  101 1    
   198  100  102 1    
   199  100  221 1    
   200  101  222 1    
   201  101  223 1    
   202  101  224 1    
   203  102  103 2    
   204  102  104 am   BACKBONE|DICT|INTERRES
   205  104  105 1    
   206  104  225 1    
   207  105  106 1    
   208  105  107 1    
   209  105  226 1    
   210  106  227 1    
   211  106  228 1    
   212  106  229 1    
   213  107  108 2    
   214  107  109 am   BACKBONE|DICT|INTERRES
   215  109  110 1    
   216  109  230 1    
   217  110  111 1    
   218  110  112 1    
   219  110  231 1    
   220  111  232 1    
   221  111  233 1    
   222  111  234 1    
   223  112  113 2    
   224  112  114 am   BACKBONE|DICT|INTERRES
   225  114  115 1    
   226  114  235 1    
   227  115  116 1    
   228  115  117 1    
   229  115  236 1    
   230  116  237 1    
   231  116  238 1    
   232  116  239 1    
   233  117  118 2    
   234  117  119 am   BACKBONE|DICT|INTERRES
   235  119  120 1    
   236  119  240 1    
   237  120  121 1    
   238  120  124 1    
   239  120  241 1    
   240  121  122 am   BACKBONE|DICT|INTERRES
   241  121  123 2    
   242  122  242 1    
   243  122  243 1    
   244  124  125 1    
   245  124  244 1    
   246  124  245 1    
   247  125  126 1    
   248  126  246 1    
   249  126  247 1    
@<TRIPOS>SUBSTRUCTURE
     1 UNK         1 GROUP             0       ****    0 ROOT    
