@<TRIPOS>MOLECULE
3R540
247   249    1
SMALL
USER_CHARGES


@<TRIPOS>ATOM
      1 CA          5.7684  -13.7832  -45.9432 C.3       0 UNK        -0.1800 
      2 C           4.2756  -13.8484  -46.2274 C.2       0 UNK         0.5000 
      3 O           3.5174  -13.0289  -45.7117 O.2       0 UNK        -0.5000 
      4 N           3.8507  -14.8073  -47.0609 N.am      1 UNK        -0.5000 
      5 CA          2.4479  -15.0748  -47.4117 C.3       1 UNK         0.1400 
      6 C6          2.2745  -16.4605  -48.0775 C.3       23 UNK        -0.0398 
      7 S7          3.2257  -16.6959  -49.6225 S.3       23 UNK        -0.2404 
      8 C8          1.9749  -16.3777  -50.9152 C.3       23 UNK        -0.0205 
      9 C9          0.7501  -17.2735  -50.7865 C.ar      23 UNK        -0.0193 
     10 C10        -0.5025  -16.7203  -50.5033 C.ar      23 UNK        -0.1150 
     11 C11        -1.6266  -17.5397  -50.3654 C.ar      23 UNK        -0.0193 
     12 C12        -1.4859  -18.9240  -50.4907 C.ar      23 UNK        -0.1150 
     13 C13        -0.2395  -19.4908  -50.7724 C.ar      23 UNK        -0.0193 
     14 C14         0.8701  -18.6565  -50.9398 C.ar      23 UNK        -0.1150 
     15 C15        -0.1007  -21.0020  -50.9018 C.3       23 UNK        -0.0205 
     16 S16         1.2538  -21.6882  -49.8946 S.3       23 UNK        -0.2404 
     17 C17         0.7488  -21.1972  -48.2111 C.3       23 UNK        -0.0398 
     18 CA          0.1948  -22.3785  -47.3848 C.3       11 UNK         0.1400 
     19 N           0.2567  -22.1106  -45.9471 N.am      11 UNK        -0.5000 
     20 C           0.1066  -23.0438  -44.9972 C.2       10 UNK         0.5000 
     21 O          -0.0586  -24.2393  -45.2345 O.2       10 UNK        -0.5000 
     22 CA          0.1094  -22.5595  -43.5363 C.3       10 UNK         0.1400 
     23 CB          1.5470  -22.3726  -43.0294 C.3       10 UNK        -0.1800 
     24 N          -0.6425  -21.3192  -43.3465 N.am      10 UNK        -0.5000 
     25 C          -1.9582  -21.1836  -43.5638 C.2       9 UNK         0.5000 
     26 O          -2.6906  -22.1047  -43.9213 O.2       9 UNK        -0.5000 
     27 CA         -2.5461  -19.7704  -43.4032 C.3       9 UNK         0.1400 
     28 CB         -2.7925  -19.4401  -41.9234 C.3       9 UNK        -0.1800 
     29 N          -1.7004  -18.7382  -44.0018 N.am      9 UNK        -0.5000 
     30 C          -1.4013  -18.6612  -45.3064 C.2       8 UNK         0.5000 
     31 O          -1.8039  -19.4570  -46.1544 O.2       8 UNK        -0.5000 
     32 CA         -0.4216  -17.5483  -45.7095 C.3       8 UNK         0.1400 
     33 CB         -1.1034  -16.1705  -45.7038 C.3       8 UNK        -0.1800 
     34 N           0.7470  -17.5223  -44.8285 N.am      8 UNK        -0.5000 
     35 C           1.6743  -18.4916  -44.7859 C.2       7 UNK         0.5000 
     36 O           1.6565  -19.4826  -45.5141 O.2       7 UNK        -0.5000 
     37 CA          2.7958  -18.3501  -43.7394 C.3       7 UNK         0.1400 
     38 CB          3.9423  -17.4978  -44.3056 C.3       7 UNK        -0.1800 
     39 N           2.3436  -17.7640  -42.4778 N.am      7 UNK        -0.5000 
     40 C           1.3812  -18.2604  -41.6863 C.2       6 UNK         0.5000 
     41 O           0.8113  -19.3303  -41.8944 O.2       6 UNK        -0.5000 
     42 CA          0.9418  -17.3897  -40.4910 C.3       6 UNK         0.1400 
     43 CB          1.6248  -17.8662  -39.2009 C.3       6 UNK        -0.1800 
     44 N           1.2007  -15.9559  -40.6734 N.am      6 UNK        -0.5000 
     45 C           0.6908  -15.2042  -41.6585 C.2       5 UNK         0.5000 
     46 O          -0.0691  -15.6442  -42.5256 O.2       5 UNK        -0.5000 
     47 CA          1.1872  -13.7508  -41.7250 C.3       5 UNK         0.1400 
     48 CB          2.6200  -13.7061  -42.2821 C.3       5 UNK        -0.1800 
     49 N           0.3386  -12.9529  -42.6009 N.am      5 UNK        -0.5000 
     50 C          -0.8030  -12.3491  -42.2589 C.2       4 UNK         0.5000 
     51 O          -1.2426  -12.3372  -41.1073 O.2       4 UNK        -0.5000 
     52 CA         -1.5616  -11.6215  -43.3966 C.3       4 UNK         0.1400 
     53 CB         -2.6913  -10.7170  -42.8714 C.3       4 UNK        -0.1800 
     54 N          -0.6797  -10.8201  -44.2558 N.am      4 UNK        -0.5000 
     55 C           0.1477  -11.3071  -45.1889 C.2       3 UNK         0.5000 
     56 O           0.2434  -12.5117  -45.4372 O.2       3 UNK        -0.5000 
     57 CA          1.0501  -10.2894  -45.9080 C.3       3 UNK         0.1400 
     58 CB          2.1376   -9.7674  -44.9538 C.3       3 UNK        -0.1800 
     59 N           1.7063  -10.9378  -47.0384 N.am      3 UNK        -0.5000 
     60 C           1.3521  -10.8083  -48.3234 C.2       2 UNK         0.5000 
     61 O           0.5142   -9.9996  -48.7249 O.2       2 UNK        -0.5000 
     62 CA          2.0400  -11.7493  -49.3360 C.3       2 UNK         0.1400 
     63 CB          3.2087  -11.0348  -50.0314 C.3       2 UNK        -0.1800 
     64 N           2.5373  -12.9796  -48.7185 N.am      2 UNK        -0.5000 
     65 C           1.7599  -13.9573  -48.2314 C.2       1 UNK         0.5000 
     66 O           0.5415  -13.9972  -48.4031 O.2       1 UNK        -0.5000 
     67 C          -1.2267  -22.7823  -47.8290 C.2       11 UNK         0.5000 
     68 O          -1.3742  -23.7572  -48.5652 O.2       11 UNK        -0.5000 
     69 N          -2.2492  -22.0657  -47.3400 N.am      12 UNK        -0.5000 
     70 CA         -3.6618  -22.3638  -47.5888 C.3       12 UNK         0.1400 
     71 CB         -4.5284  -21.2264  -47.0329 C.3       12 UNK        -0.1800 
     72 C          -4.1084  -23.7249  -47.0175 C.2       12 UNK         0.5000 
     73 O          -4.9285  -24.4031  -47.6356 O.2       12 UNK        -0.5000 
     74 N          -3.5458  -24.1117  -45.8642 N.am      13 UNK        -0.5000 
     75 CA         -3.7528  -25.4132  -45.2259 C.3       13 UNK         0.1400 
     76 CB         -3.3079  -25.3261  -43.7575 C.3       13 UNK        -0.1800 
     77 C          -3.0303  -26.5751  -45.9396 C.2       13 UNK         0.5000 
     78 O          -3.3964  -27.7308  -45.7180 O.2       13 UNK        -0.5000 
     79 N          -2.0227  -26.2614  -46.7644 N.am      14 UNK        -0.5000 
     80 CA         -1.2791  -27.2051  -47.5953 C.3       14 UNK         0.1400 
     81 CB          0.1975  -26.7619  -47.6511 C.3       14 UNK        -0.1800 
     82 C          -1.9495  -27.3332  -48.9807 C.2       14 UNK         0.5000 
     83 O          -3.1776  -27.4094  -49.0616 O.2       14 UNK        -0.5000 
     84 N          -1.1476  -27.3755  -50.0496 N.am      15 UNK        -0.5000 
     85 CA         -1.6009  -27.4266  -51.4336 C.3       15 UNK         0.1400 
     86 CB         -1.7478  -28.8892  -51.8860 C.3       15 UNK        -0.1800 
     87 C          -0.5925  -26.6714  -52.3066 C.2       15 UNK         0.5000 
     88 O           0.6157  -26.7979  -52.0931 O.2       15 UNK        -0.5000 
     89 N          -1.1188  -25.9172  -53.2731 N.am      16 UNK        -0.5000 
     90 CA         -0.4354  -25.0612  -54.2378 C.3       16 UNK         0.1400 
     91 CB          0.3850  -23.9648  -53.5253 C.3       16 UNK        -0.1800 
     92 C          -1.5286  -24.4195  -55.1073 C.2       16 UNK         0.5000 
     93 O          -2.7104  -24.5026  -54.7595 O.2       16 UNK        -0.5000 
     94 N          -1.1319  -23.7468  -56.1944 N.am      17 UNK        -0.5000 
     95 CA         -2.0450  -22.9849  -57.0552 C.3       17 UNK         0.1400 
     96 CB         -1.2928  -22.5187  -58.3109 C.3       17 UNK        -0.1800 
     97 C          -2.6874  -21.7852  -56.3284 C.2       17 UNK         0.5000 
     98 O          -3.8632  -21.4924  -56.5468 O.2       17 UNK        -0.5000 
     99 N          -1.9084  -21.1371  -55.4514 N.am      18 UNK        -0.5000 
    100 CA        -2.3406  -20.0040  -54.6329 C.3       18 UNK         0.1400 
    101 CB        -1.1101  -19.1660  -54.2527 C.3       18 UNK        -0.1800 
    102 C         -3.1331  -20.4190  -53.3777 C.2       18 UNK         0.5000 
    103 O         -3.8125  -19.5722  -52.8012 O.2       18 UNK        -0.5000 
    104 N         -3.0695  -21.7008  -52.9799 N.am      19 UNK        -0.5000 
    105 CA        -3.7370  -22.2427  -51.7861 C.3       19 UNK         0.1400 
    106 CB        -3.1923  -23.6474  -51.4810 C.3       19 UNK        -0.1800 
    107 C         -5.2774  -22.2633  -51.8726 C.2       19 UNK         0.5000 
    108 O         -5.9375  -22.4703  -50.8547 O.2       19 UNK        -0.5000 
    109 N         -5.8251  -22.0343  -53.0743 N.am      20 UNK        -0.5000 
    110 CA        -7.2473  -21.7903  -53.3123 C.3       20 UNK         0.1400 
    111 CB        -7.5176  -21.8938  -54.8213 C.3       20 UNK        -0.1800 
    112 C         -7.7244  -20.4256  -52.7685 C.2       20 UNK         0.5000 
    113 O         -8.9214  -20.2620  -52.5274 O.2       20 UNK        -0.5000 
    114 N         -6.7942  -19.4789  -52.5861 N.am      21 UNK        -0.5000 
    115 CA        -7.0183  -18.1778  -51.9636 C.3       21 UNK         0.1400 
    116 CB        -6.2810  -17.1106  -52.7917 C.3       21 UNK        -0.1800 
    117 C         -6.5159  -18.1912  -50.5075 C.2       21 UNK         0.5000 
    118 O         -5.8878  -19.1592  -50.0755 O.2       21 UNK        -0.5000 
    119 N         -6.8225  -17.1079  -49.7833 N.am      22 UNK        -0.5000 
    120 CA        -6.4383  -16.7584  -48.3987 C.3       22 UNK         0.1400 
    121 C         -6.7663  -17.7642  -47.2508 C.2       22 UNK         0.5000 
    122 N         -7.1602  -18.9973  -47.5287 N.am      22 UNK        -0.7600 
    123 O         -6.7151  -17.3941  -46.0809 O.2       22 UNK        -0.5000 
    124 C124       -5.0122  -16.1472  -48.2905 C.3       23 UNK        -0.0398 
    125 S125       -3.6124  -17.3133  -48.4414 S.3       23 UNK        -0.2404 
    126 C126       -2.9960  -16.9288  -50.1094 C.3       23 UNK        -0.0205 
    127 H127        5.9504  -13.9100  -44.8760 H         1 UNK         0.0600 
    128 H128        6.1659  -12.8145  -46.2455 H         1 UNK         0.0600 
    129 H129        6.3173  -14.5595  -46.4768 H         1 UNK         0.0600 
    130 H130        4.5247  -15.4286  -47.4862 H         1 UNK         0.3000 
    131 H131        1.9037  -15.1112  -46.4657 H         1 UNK         0.0600 
    132 H132        2.6007  -17.2339  -47.3819 H         1 UNK         0.0800 
    133 H133        1.2191  -16.6654  -48.2503 H         1 UNK         0.0800 
    134 H134        2.4310  -16.5414  -51.8924 H         1 UNK         0.0800 
    135 H135        1.6899  -15.3251  -50.8867 H         1 UNK         0.0800 
    136 H136       -0.6024  -15.6498  -50.3898 H         1 UNK         0.1150 
    137 H137       -2.3567  -19.5533  -50.3725 H         1 UNK         0.1150 
    138 H138        1.8371  -19.0860  -51.1609 H         1 UNK         0.1150 
    139 H139        0.0852  -21.2458  -51.9467 H         1 UNK         0.0800 
    140 H140       -1.0287  -21.5021  -50.6246 H         1 UNK         0.0800 
    141 H141        0.0472  -20.3617  -48.2289 H         1 UNK         0.0800 
    142 H142        1.6507  -20.8108  -47.7363 H         1 UNK         0.0800 
    143 H143        0.8432  -23.2393  -47.5647 H         1 UNK         0.0600 
    144 H144        0.4273  -21.1493  -45.6720 H         1 UNK         0.3000 
    145 H145       -0.3675  -23.3321  -42.9297 H         1 UNK         0.0600 
    146 H146        1.5606  -22.1005  -41.9738 H         1 UNK         0.0600 
    147 H147        2.1219  -23.2933  -43.1360 H         1 UNK         0.0600 
    148 H148        2.0697  -21.5921  -43.5827 H         1 UNK         0.0600 
    149 H149       -0.1199  -20.5194  -42.9971 H         1 UNK         0.3000 
    150 H150       -3.5075  -19.7509  -43.9207 H         1 UNK         0.0600 
    151 H151       -3.4483  -20.1809  -41.4641 H         1 UNK         0.0600 
    152 H152       -3.2722  -18.4677  -41.8109 H         1 UNK         0.0600 
    153 H153       -1.8648  -19.4247  -41.3509 H         1 UNK         0.0600 
    154 H154       -1.2891  -18.0629  -43.3736 H         1 UNK         0.3000 
    155 H155       -0.0868  -17.7612  -46.7257 H         1 UNK         0.0600 
    156 H156       -1.5074  -15.9183  -44.7235 H         1 UNK         0.0600 
    157 H157       -0.4117  -15.3794  -45.9910 H         1 UNK         0.0600 
    158 H158       -1.9315  -16.1418  -46.4101 H         1 UNK         0.0600 
    159 H159        0.7790  -16.7760  -44.1441 H         1 UNK         0.3000 
    160 H160        3.1798  -19.3492  -43.5248 H         1 UNK         0.0600 
    161 H161        4.3096  -17.9104  -45.2464 H         1 UNK         0.0600 
    162 H162        3.6240  -16.4727  -44.4993 H         1 UNK         0.0600 
    163 H163        4.7862  -17.4625  -43.6165 H         1 UNK         0.0600 
    164 H164        2.7599  -16.8837  -42.2157 H         1 UNK         0.3000 
    165 H165       -0.1363  -17.5194  -40.3764 H         1 UNK         0.0600 
    166 H166        1.2550  -17.3200  -38.3330 H         1 UNK         0.0600 
    167 H167        1.4294  -18.9248  -39.0237 H         1 UNK         0.0600 
    168 H168        2.7067  -17.7352  -39.2461 H         1 UNK         0.0600 
    169 H169        1.8275  -15.5279  -40.0069 H         1 UNK         0.3000 
    170 H170        1.1787  -13.3249  -40.7195 H         1 UNK         0.0600 
    171 H171        3.3167  -14.2365  -41.6322 H         1 UNK         0.0600 
    172 H172        2.6806  -14.1611  -43.2720 H         1 UNK         0.0600 
    173 H173        2.9776  -12.6797  -42.3685 H         1 UNK         0.0600 
    174 H174        0.5708  -12.9666  -43.5895 H         1 UNK         0.3000 
    175 H175       -2.0228  -12.3994  -44.0090 H         1 UNK         0.0600 
    176 H176       -2.3051   -9.9216  -42.2328 H         1 UNK         0.0600 
    177 H177       -3.2392  -10.2533  -43.6919 H         1 UNK         0.0600 
    178 H178       -3.4132  -11.2885  -42.2865 H         1 UNK         0.0600 
    179 H179       -0.6750   -9.8265  -44.0757 H         1 UNK         0.3000 
    180 H180        0.4356   -9.4514  -46.2428 H         1 UNK         0.0600 
    181 H181        2.7426  -10.5806  -44.5497 H         1 UNK         0.0600 
    182 H182        1.7013   -9.2325  -44.1096 H         1 UNK         0.0600 
    183 H183        2.8078   -9.0748  -45.4632 H         1 UNK         0.0600 
    184 H184        2.3408  -11.6879  -46.7842 H         1 UNK         0.3000 
    185 H185        1.3014  -12.0190  -50.0938 H         1 UNK         0.0600 
    186 H186        3.6626  -11.6695  -50.7928 H         1 UNK         0.0600 
    187 H187        2.8695  -10.1248  -50.5281 H         1 UNK         0.0600 
    188 H188        3.9865  -10.7510  -49.3214 H         1 UNK         0.0600 
    189 H189        3.5301  -13.0335  -48.5450 H         1 UNK         0.3000 
    190 H190       -2.0540  -21.2460  -46.7695 H         1 UNK         0.3000 
    191 H191       -3.8087  -22.3985  -48.6691 H         1 UNK         0.0600 
    192 H192       -4.3939  -21.1036  -45.9580 H         1 UNK         0.0600 
    193 H193       -5.5856  -21.4210  -47.2150 H         1 UNK         0.0600 
    194 H194       -4.2868  -20.2770  -47.5121 H         1 UNK         0.0600 
    195 H195       -2.9470  -23.4567  -45.3708 H         1 UNK         0.3000 
    196 H196       -4.8216  -25.6358  -45.2424 H         1 UNK         0.0600 
    197 H197       -3.4687  -26.2733  -43.2413 H         1 UNK         0.0600 
    198 H198       -3.8715  -24.5639  -43.2193 H         1 UNK         0.0600 
    199 H199       -2.2486  -25.0814  -43.6737 H         1 UNK         0.0600 
    200 H200       -1.8134  -25.2830  -46.9148 H         1 UNK         0.3000 
    201 H201       -1.3073  -28.1953  -47.1365 H         1 UNK         0.0600 
    202 H202        0.6054  -26.6414  -46.6472 H         1 UNK         0.0600 
    203 H203        0.3190  -25.8108  -48.1703 H         1 UNK         0.0600 
    204 H204        0.8175  -27.5030  -48.1566 H         1 UNK         0.0600 
    205 H205       -0.1482  -27.2664  -49.9355 H         1 UNK         0.3000 
    206 H206       -2.5696  -26.9285  -51.5185 H         1 UNK         0.0600 
    207 H207       -2.4876  -29.4162  -51.2833 H         1 UNK         0.0600 
    208 H208       -2.0747  -28.9455  -52.9250 H         1 UNK         0.0600 
    209 H209       -0.8041  -29.4304  -51.8071 H         1 UNK         0.0600 
    210 H210       -2.1255  -25.8841  -53.3904 H         1 UNK         0.3000 
    211 H211        0.2113  -25.6732  -54.8687 H         1 UNK         0.0600 
    212 H212       -0.2369  -23.3818  -52.8476 H         1 UNK         0.0600 
    213 H213        0.8336  -23.2729  -54.2388 H         1 UNK         0.0600 
    214 H214        1.2040  -24.3856  -52.9429 H         1 UNK         0.0600 
    215 H215       -0.1512  -23.7220  -56.4348 H         1 UNK         0.3000 
    216 H216       -2.8512  -23.6516  -57.3692 H         1 UNK         0.0600 
    217 H217       -1.9542  -21.9645  -58.9783 H         1 UNK         0.0600 
    218 H218       -0.9018  -23.3664  -58.8738 H         1 UNK         0.0600 
    219 H219       -0.4557  -21.8655  -58.0616 H         1 UNK         0.0600 
    220 H220       -0.9517  -21.4391  -55.3421 H         1 UNK         0.3000 
    221 H221       -3.0010  -19.3705  -55.2291 H         1 UNK         0.0600 
    222 H222       -0.3608  -19.7595  -53.7305 H         1 UNK         0.0600 
    223 H223       -0.6380  -18.7396  -55.1378 H         1 UNK         0.0600 
    224 H224       -1.3836  -18.3349  -53.6006 H         1 UNK         0.0600 
    225 H225       -2.5586  -22.3594  -53.5490 H         1 UNK         0.3000 
    226 H226       -3.4827  -21.5940  -50.9463 H         1 UNK         0.0600 
    227 H227       -2.1076  -23.6460  -51.3807 H         1 UNK         0.0600 
    228 H228       -3.5967  -24.0280  -50.5420 H         1 UNK         0.0600 
    229 H229       -3.4646  -24.3601  -52.2581 H         1 UNK         0.0600 
    230 H230       -5.2056  -21.9004  -53.8604 H         1 UNK         0.3000 
    231 H231       -7.8209  -22.5687  -52.8049 H         1 UNK         0.0600 
    232 H232       -8.5749  -21.7400  -55.0409 H         1 UNK         0.0600 
    233 H233       -7.2466  -22.8779  -55.2042 H         1 UNK         0.0600 
    234 H234       -6.9528  -21.1483  -55.3828 H         1 UNK         0.0600 
    235 H235       -5.8171  -19.7190  -52.7210 H         1 UNK         0.3000 
    236 H236       -8.0833  -17.9377  -51.9553 H         1 UNK         0.0600 
    237 H237       -5.2035  -17.2760  -52.7985 H         1 UNK         0.0600 
    238 H238       -6.6232  -17.1125  -53.8267 H         1 UNK         0.0600 
    239 H239       -6.4557  -16.1092  -52.3972 H         1 UNK         0.0600 
    240 H240       -7.3830  -16.4015  -50.2378 H         1 UNK         0.3000 
    241 H241       -7.1143  -15.9306  -48.1801 H         1 UNK         0.0600 
    242 H242       -7.3929  -19.6315  -46.7826 H         1 UNK         0.3800 
    243 H243       -7.0450  -19.3344  -48.4773 H         1 UNK         0.3800 
    244 H244       -4.9028  -15.3527  -49.0291 H         1 UNK         0.0800 
    245 H245       -4.9055  -15.6483  -47.3259 H         1 UNK         0.0800 
    246 H246       -3.6992  -17.3094  -50.8502 H         1 UNK         0.0800 
    247 H247       -2.9551  -15.8471  -50.2437 H         1 UNK         0.0800 
@<TRIPOS>BOND
     1    1    2 1    
     2    1  127 1    
     3    1  128 1    
     4    1  129 1    
     5    2    3 2    
     6    2    4 am   BACKBONE|DICT|INTERRES
     7    4    5 1    
     8    4  130 1    
     9    5    6 1    
    10    5   65 1    
    11    5  131 1    
    12    6    7 1    
    13    6  132 1    
    14    6  133 1    
    15    7    8 1    
    16    8    9 1    
    17    8  134 1    
    18    8  135 1    
    19    9   10 ar   
    20    9   14 ar   
    21   10   11 ar   
    22   10  136 1    
    23   11   12 ar   
    24   11  126 1    
    25   12   13 ar   
    26   12  137 1    
    27   13   14 ar   
    28   13   15 1    
    29   14  138 1    
    30   15   16 1    
    31   15  139 1    
    32   15  140 1    
    33   16   17 1    
    34   17   18 1    
    35   17  141 1    
    36   17  142 1    
    37   18   19 1    
    38   18   67 1    
    39   18  143 1    
    40   19   20 am   BACKBONE|DICT|INTERRES
    41   19  144 1    
    42   20   21 2    
    43   20   22 1    
    44   22   23 1    
    45   22   24 1    
    46   22  145 1    
    47   23  146 1    
    48   23  147 1    
    49   23  148 1    
    50   24   25 am   BACKBONE|DICT|INTERRES
    51   24  149 1    
    52   25   26 2    
    53   25   27 1    
    54   27   28 1    
    55   27   29 1    
    56   27  150 1    
    57   28  151 1    
    58   28  152 1    
    59   28  153 1    
    60   29   30 am   BACKBONE|DICT|INTERRES
    61   29  154 1    
    62   30   31 2    
    63   30   32 1    
    64   32   33 1    
    65   32   34 1    
    66   32  155 1    
    67   33  156 1    
    68   33  157 1    
    69   33  158 1    
    70   34   35 am   BACKBONE|DICT|INTERRES
    71   34  159 1    
    72   35   36 2    
    73   35   37 1    
    74   37   38 1    
    75   37   39 1    
    76   37  160 1    
    77   38  161 1    
    78   38  162 1    
    79   38  163 1    
    80   39   40 am   BACKBONE|DICT|INTERRES
    81   39  164 1    
    82   40   41 2    
    83   40   42 1    
    84   42   43 1    
    85   42   44 1    
    86   42  165 1    
    87   43  166 1    
    88   43  167 1    
    89   43  168 1    
    90   44   45 am   BACKBONE|DICT|INTERRES
    91   44  169 1    
    92   45   46 2    
    93   45   47 1    
    94   47   48 1    
    95   47   49 1    
    96   47  170 1    
    97   48  171 1    
    98   48  172 1    
    99   48  173 1    
   100   49   50 am   BACKBONE|DICT|INTERRES
   101   49  174 1    
   102   50   51 2    
   103   50   52 1    
   104   52   53 1    
   105   52   54 1    
   106   52  175 1    
   107   53  176 1    
   108   53  177 1    
   109   53  178 1    
   110   54   55 am   BACKBONE|DICT|INTERRES
   111   54  179 1    
   112   55   56 2    
   113   55   57 1    
   114   57   58 1    
   115   57   59 1    
   116   57  180 1    
   117   58  181 1    
   118   58  182 1    
   119   58  183 1    
   120   59   60 am   BACKBONE|DICT|INTERRES
   121   59  184 1    
   122   60   61 2    
   123   60   62 1    
   124   62   63 1    
   125   62   64 1    
   126   62  185 1    
   127   63  186 1    
   128   63  187 1    
   129   63  188 1    
   130   64   65 am   BACKBONE|DICT|INTERRES
   131   64  189 1    
   132   65   66 2    
   133   67   68 2    
   134   67   69 am   BACKBONE|DICT|INTERRES
   135   69   70 1    
   136   69  190 1    
   137   70   71 1    
   138   70   72 1    
   139   70  191 1    
   140   71  192 1    
   141   71  193 1    
   142   71  194 1    
   143   72   73 2    
   144   72   74 am   BACKBONE|DICT|INTERRES
   145   74   75 1    
   146   74  195 1    
   147   75   76 1    
   148   75   77 1    
   149   75  196 1    
   150   76  197 1    
   151   76  198 1    
   152   76  199 1    
   153   77   78 2    
   154   77   79 am   BACKBONE|DICT|INTERRES
   155   79   80 1    
   156   79  200 1    
   157   80   81 1    
   158   80   82 1    
   159   80  201 1    
   160   81  202 1    
   161   81  203 1    
   162   81  204 1    
   163   82   83 2    
   164   82   84 am   BACKBONE|DICT|INTERRES
   165   84   85 1    
   166   84  205 1    
   167   85   86 1    
   168   85   87 1    
   169   85  206 1    
   170   86  207 1    
   171   86  208 1    
   172   86  209 1    
   173   87   88 2    
   174   87   89 am   BACKBONE|DICT|INTERRES
   175   89   90 1    
   176   89  210 1    
   177   90   91 1    
   178   90   92 1    
   179   90  211 1    
   180   91  212 1    
   181   91  213 1    
   182   91  214 1    
   183   92   93 2    
   184   92   94 am   BACKBONE|DICT|INTERRES
   185   94   95 1    
   186   94  215 1    
   187   95   96 1    
   188   95   97 1    
   189   95  216 1    
   190   96  217 1    
   191   96  218 1    
   192   96  219 1    
   193   97   98 2    
   194   97   99 am   BACKBONE|DICT|INTERRES
   195   99  100 1    
   196   99  220 1    
   197  100  101 1    
   198  100  102 1    
   199  100  221 1    
   200  101  222 1    
   201  101  223 1    
   202  101  224 1    
   203  102  103 2    
   204  102  104 am   BACKBONE|DICT|INTERRES
   205  104  105 1    
   206  104  225 1    
   207  105  106 1    
   208  105  107 1    
   209  105  226 1    
   210  106  227 1    
   211  106  228 1    
   212  106  229 1    
   213  107  108 2    
   214  107  109 am   BACKBONE|DICT|INTERRES
   215  109  110 1    
   216  109  230 1    
   217  110  111 1    
   218  110  112 1    
   219  110  231 1    
   220  111  232 1    
   221  111  233 1    
   222  111  234 1    
   223  112  113 2    
   224  112  114 am   BACKBONE|DICT|INTERRES
   225  114  115 1    
   226  114  235 1    
   227  115  116 1    
   228  115  117 1    
   229  115  236 1    
   230  116  237 1    
   231  116  238 1    
   232  116  239 1    
   233  117  118 2    
   234  117  119 am   BACKBONE|DICT|INTERRES
   235  119  120 1    
   236  119  240 1    
   237  120  121 1    
   238  120  124 1    
   239  120  241 1    
   240  121  122 am   BACKBONE|DICT|INTERRES
   241  121  123 2    
   242  122  242 1    
   243  122  243 1    
   244  124  125 1    
   245  124  244 1    
   246  124  245 1    
   247  125  126 1    
   248  126  246 1    
   249  126  247 1    
@<TRIPOS>SUBSTRUCTURE
     1 UNK         1 GROUP             0       ****    0 ROOT    
