@<TRIPOS>MOLECULE
3R540
247   249    1
SMALL
USER_CHARGES


@<TRIPOS>ATOM
      1 CA         -4.8053  -16.6708  -45.8030 C.3       0 UNK        -0.1800 
      2 C          -3.5564  -15.8910  -45.4202 C.2       0 UNK         0.5000 
      3 O          -3.6340  -14.9526  -44.6267 O.2       0 UNK        -0.5000 
      4 N          -2.3900  -16.2956  -45.9431 N.am      1 UNK        -0.5000 
      5 CA         -1.0878  -15.6348  -45.7495 C.3       1 UNK         0.1400 
      6 C6         -0.0790  -15.9768  -46.8719 C.3       23 UNK        -0.0398 
      7 S7         -0.6264  -15.3078  -48.4771 S.3       23 UNK        -0.2404 
      8 C8          0.9222  -15.3136  -49.4357 C.3       23 UNK        -0.0205 
      9 C9          1.0572  -16.5923  -50.2455 C.ar      23 UNK        -0.0193 
     10 C10         0.5783  -16.6397  -51.5577 C.ar      23 UNK        -0.1150 
     11 C11         0.6670  -17.8158  -52.3060 C.ar      23 UNK        -0.0193 
     12 C12         1.2325  -18.9523  -51.7170 C.ar      23 UNK        -0.1150 
     13 C13         1.6997  -18.9321  -50.3994 C.ar      23 UNK        -0.0193 
     14 C14         1.6350  -17.7320  -49.6797 C.ar      23 UNK        -0.1150 
     15 C15         2.2552  -20.2317  -49.8089 C.3       23 UNK        -0.0205 
     16 S16         2.3201  -20.3499  -47.9839 S.3       23 UNK        -0.2404 
     17 C17         0.5843  -20.0859  -47.4867 C.3       23 UNK        -0.0398 
     18 CA         -0.2930  -21.3616  -47.4579 C.3       11 UNK         0.1400 
     19 N           0.2685  -22.4637  -46.6726 N.am      11 UNK        -0.5000 
     20 C          -0.2252  -23.7121  -46.6886 C.2       10 UNK         0.5000 
     21 O          -1.1666  -24.0627  -47.3993 O.2       10 UNK        -0.5000 
     22 CA          0.4064  -24.7434  -45.7371 C.3       10 UNK         0.1400 
     23 CB          1.5392  -25.5005  -46.4458 C.3       10 UNK        -0.1800 
     24 N           0.9183  -24.1742  -44.4915 N.am      10 UNK        -0.5000 
     25 C           0.1964  -23.5224  -43.5699 C.2       9 UNK         0.5000 
     26 O          -1.0101  -23.2943  -43.6796 O.2       9 UNK        -0.5000 
     27 CA          0.9496  -23.0235  -42.3175 C.3       9 UNK         0.1400 
     28 CB          2.4530  -23.3835  -42.3021 C.3       9 UNK        -0.1800 
     29 N           0.8001  -21.5843  -42.0821 N.am      9 UNK        -0.5000 
     30 C           0.9866  -20.5871  -42.9597 C.2       8 UNK         0.5000 
     31 O           1.1487  -20.7500  -44.1718 O.2       8 UNK        -0.5000 
     32 CA          0.9916  -19.1489  -42.3978 C.3       8 UNK         0.1400 
     33 CB          0.9824  -19.0671  -40.8526 C.3       8 UNK        -0.1800 
     34 N           2.0988  -18.3656  -42.9544 N.am      8 UNK        -0.5000 
     35 C           3.4093  -18.6355  -42.8396 C.2       7 UNK         0.5000 
     36 O           3.8694  -19.5500  -42.1545 O.2       7 UNK        -0.5000 
     37 CA          4.3519  -17.7351  -43.6551 C.3       7 UNK         0.1400 
     38 CB          5.7719  -18.3129  -43.8027 C.3       7 UNK        -0.1800 
     39 N           3.7779  -17.5102  -44.9835 N.am      7 UNK        -0.5000 
     40 C           3.7858  -16.3901  -45.7163 C.2       6 UNK         0.5000 
     41 O           3.2874  -16.3713  -46.8386 O.2       6 UNK        -0.5000 
     42 CA          4.3860  -15.0957  -45.1368 C.3       6 UNK         0.1400 
     43 CB          4.5913  -14.0012  -46.2030 C.3       6 UNK        -0.1800 
     44 N           3.5056  -14.5812  -44.0919 N.am      6 UNK        -0.5000 
     45 C           3.9175  -13.9226  -43.0017 C.2       5 UNK         0.5000 
     46 O           5.1034  -13.7194  -42.7351 O.2       5 UNK        -0.5000 
     47 CA          2.8075  -13.4058  -42.0632 C.3       5 UNK         0.1400 
     48 CB          3.3188  -12.4216  -40.9911 C.3       5 UNK        -0.1800 
     49 N           1.6801  -12.8327  -42.8028 N.am      5 UNK        -0.5000 
     50 C           1.6910  -11.7883  -43.6465 C.2       4 UNK         0.5000 
     51 O           2.6805  -11.0927  -43.8759 O.2       4 UNK        -0.5000 
     52 CA          0.3700  -11.4803  -44.3803 C.3       4 UNK         0.1400 
     53 CB          0.4411  -11.9971  -45.8268 C.3       4 UNK        -0.1800 
     54 N          -0.7971  -12.0725  -43.7215 N.am      4 UNK        -0.5000 
     55 C          -1.3619  -11.6071  -42.5982 C.2       3 UNK         0.5000 
     56 O          -1.0197  -10.5661  -42.0370 O.2       3 UNK        -0.5000 
     57 CA         -2.4722  -12.4796  -41.9838 C.3       3 UNK         0.1400 
     58 CB         -3.8388  -12.1210  -42.5865 C.3       3 UNK        -0.1800 
     59 N          -2.2179  -13.9105  -42.1744 N.am      3 UNK        -0.5000 
     60 C          -1.2687  -14.6037  -41.5236 C.2       2 UNK         0.5000 
     61 O          -0.5342  -14.1156  -40.6663 O.2       2 UNK        -0.5000 
     62 CA         -1.0659  -16.0736  -41.9376 C.3       2 UNK         0.1400 
     63 CB         -2.0082  -16.9886  -41.1402 C.3       2 UNK        -0.1800 
     64 N          -1.2945  -16.2619  -43.3695 N.am      2 UNK        -0.5000 
     65 C          -0.4838  -15.8042  -44.3325 C.2       1 UNK         0.5000 
     66 O           0.6789  -15.4553  -44.1162 O.2       1 UNK        -0.5000 
     67 C          -1.6957  -21.0012  -46.9399 C.2       11 UNK         0.5000 
     68 O          -2.6399  -20.9305  -47.7256 O.2       11 UNK        -0.5000 
     69 N          -1.8044  -20.7962  -45.6198 N.am      12 UNK        -0.5000 
     70 CA         -3.0472  -20.4388  -44.9366 C.3       12 UNK         0.1400 
     71 CB         -2.7411  -20.0156  -43.4947 C.3       12 UNK        -0.1800 
     72 C          -4.0940  -21.5633  -44.9805 C.2       12 UNK         0.5000 
     73 O          -5.2655  -21.2842  -45.2352 O.2       12 UNK        -0.5000 
     74 N          -3.6457  -22.8135  -44.7982 N.am      13 UNK        -0.5000 
     75 CA         -4.4722  -24.0216  -44.8816 C.3       13 UNK         0.1400 
     76 CB         -3.6238  -25.2401  -44.4892 C.3       13 UNK        -0.1800 
     77 C          -5.1122  -24.2385  -46.2678 C.2       13 UNK         0.5000 
     78 O          -6.2140  -24.7814  -46.3494 O.2       13 UNK        -0.5000 
     79 N          -4.4240  -23.7843  -47.3222 N.am      14 UNK        -0.5000 
     80 CA         -4.8741  -23.8239  -48.7130 C.3       14 UNK         0.1400 
     81 CB         -3.6839  -24.2475  -49.5873 C.3       14 UNK        -0.1800 
     82 C          -5.5007  -22.4888  -49.1756 C.2       14 UNK         0.5000 
     83 O          -5.6752  -22.2963  -50.3808 O.2       14 UNK        -0.5000 
     84 N          -5.8335  -21.6016  -48.2223 N.am      15 UNK        -0.5000 
     85 CA         -6.5059  -20.3078  -48.3894 C.3       15 UNK         0.1400 
     86 CB         -7.9390  -20.5066  -48.9270 C.3       15 UNK        -0.1800 
     87 C          -5.6803  -19.3143  -49.2295 C.2       15 UNK         0.5000 
     88 O          -6.1325  -18.8670  -50.2825 O.2       15 UNK        -0.5000 
     89 N          -4.4548  -19.0306  -48.7636 N.am      16 UNK        -0.5000 
     90 CA         -3.4032  -18.2625  -49.4507 C.3       16 UNK         0.1400 
     91 CB         -3.8277  -16.7978  -49.6867 C.3       16 UNK        -0.1800 
     92 C          -2.9366  -18.9803  -50.7335 C.2       16 UNK         0.5000 
     93 O          -2.6701  -18.3419  -51.7509 O.2       16 UNK        -0.5000 
     94 N          -2.9150  -20.3186  -50.6504 N.am      17 UNK        -0.5000 
     95 CA         -2.6792  -21.2942  -51.7149 C.3       17 UNK         0.1400 
     96 CB         -1.1963  -21.3296  -52.1098 C.3       17 UNK        -0.1800 
     97 C          -3.6169  -21.1721  -52.9322 C.2       17 UNK         0.5000 
     98 O          -3.2827  -21.6952  -53.9956 O.2       17 UNK        -0.5000 
     99 N          -4.7906  -20.5432  -52.7660 N.am      18 UNK        -0.5000 
    100 CA        -5.8180  -20.4086  -53.8007 C.3       18 UNK         0.1400 
    101 CB        -6.9372  -19.4821  -53.3077 C.3       18 UNK        -0.1800 
    102 C         -6.3975  -21.7632  -54.2417 C.2       18 UNK         0.5000 
    103 O         -6.7257  -21.9239  -55.4171 O.2       18 UNK        -0.5000 
    104 N         -6.4408  -22.7340  -53.3165 N.am      19 UNK        -0.5000 
    105 CA        -6.8238  -24.1234  -53.5815 C.3       19 UNK         0.1400 
    106 CB        -6.9640  -24.8634  -52.2424 C.3       19 UNK        -0.1800 
    107 C         -5.8430  -24.8702  -54.5130 C.2       19 UNK         0.5000 
    108 O         -6.2366  -25.8592  -55.1321 O.2       19 UNK        -0.5000 
    109 N         -4.5983  -24.3823  -54.6027 N.am      20 UNK        -0.5000 
    110 CA        -3.5348  -24.9009  -55.4637 C.3       20 UNK         0.1400 
    111 CB        -2.2987  -25.1627  -54.5851 C.3       20 UNK        -0.1800 
    112 C         -3.1871  -23.9252  -56.6075 C.2       20 UNK         0.5000 
    113 O         -2.2333  -24.1840  -57.3430 O.2       20 UNK        -0.5000 
    114 N         -3.9168  -22.8017  -56.7131 N.am      21 UNK        -0.5000 
    115 CA        -3.6887  -21.6667  -57.6195 C.3       21 UNK         0.1400 
    116 CB        -4.0498  -22.0609  -59.0662 C.3       21 UNK        -0.1800 
    117 C         -2.2713  -21.0535  -57.5019 C.2       21 UNK         0.5000 
    118 O         -1.7176  -20.5797  -58.4956 O.2       21 UNK        -0.5000 
    119 N         -1.7010  -21.1005  -56.2900 N.am      22 UNK        -0.5000 
    120 CA        -0.3027  -20.7698  -55.9666 C.3       22 UNK         0.1400 
    121 C          0.7600  -21.7315  -56.5929 C.2       22 UNK         0.5000 
    122 N          0.3902  -22.9031  -57.0985 N.am      22 UNK        -0.7600 
    123 O          1.9507  -21.4325  -56.6014 O.2       22 UNK        -0.5000 
    124 C124        0.0211  -19.2593  -56.1716 C.3       23 UNK        -0.0398 
    125 S125        1.2091  -18.6194  -54.9362 S.3       23 UNK        -0.2404 
    126 C126        0.0820  -17.8694  -53.7156 C.3       23 UNK        -0.0205 
    127 H127       -5.3043  -17.0434  -44.9084 H         1 UNK         0.0600 
    128 H128       -5.5000  -16.0244  -46.3392 H         1 UNK         0.0600 
    129 H129       -4.5716  -17.5225  -46.4397 H         1 UNK         0.0600 
    130 H130       -2.3850  -17.0732  -46.5847 H         1 UNK         0.3000 
    131 H131       -1.2782  -14.5624  -45.8245 H         1 UNK         0.0600 
    132 H132        0.8904  -15.5292  -46.6564 H         1 UNK         0.0800 
    133 H133        0.0814  -17.0521  -46.9518 H         1 UNK         0.0800 
    134 H134        1.7855  -15.1818  -48.7821 H         1 UNK         0.0800 
    135 H135        0.9197  -14.4521  -50.1050 H         1 UNK         0.0800 
    136 H136        0.1168  -15.7625  -51.9890 H         1 UNK         0.1150 
    137 H137        1.2940  -19.8689  -52.2859 H         1 UNK         0.1150 
    138 H138        2.0046  -17.6835  -48.6664 H         1 UNK         0.1150 
    139 H139        1.6690  -21.0759  -50.1744 H         1 UNK         0.0800 
    140 H140        3.2658  -20.3735  -50.1935 H         1 UNK         0.0800 
    141 H141        0.6158  -19.6183  -46.5015 H         1 UNK         0.0800 
    142 H142        0.1286  -19.3471  -48.1460 H         1 UNK         0.0800 
    143 H143       -0.4026  -21.7106  -48.4873 H         1 UNK         0.0600 
    144 H144        1.0141  -22.2301  -46.0297 H         1 UNK         0.3000 
    145 H145       -0.3703  -25.4633  -45.4732 H         1 UNK         0.0600 
    146 H146        1.9348  -26.2989  -45.8177 H         1 UNK         0.0600 
    147 H147        1.1837  -25.9612  -47.3685 H         1 UNK         0.0600 
    148 H148        2.3644  -24.8367  -46.7072 H         1 UNK         0.0600 
    149 H149        1.9061  -24.2927  -44.3208 H         1 UNK         0.3000 
    150 H150        0.4810  -23.5254  -41.4696 H         1 UNK         0.0600 
    151 H151        2.6087  -24.4608  -42.3745 H         1 UNK         0.0600 
    152 H152        2.9185  -23.0606  -41.3706 H         1 UNK         0.0600 
    153 H153        2.9959  -22.9046  -43.1187 H         1 UNK         0.0600 
    154 H154        0.6287  -21.3276  -41.1206 H         1 UNK         0.3000 
    155 H155        0.0796  -18.6824  -42.7649 H         1 UNK         0.0600 
    156 H156        1.0427  -18.0344  -40.5107 H         1 UNK         0.0600 
    157 H157        1.8222  -19.6019  -40.4076 H         1 UNK         0.0600 
    158 H158        0.0640  -19.4852  -40.4388 H         1 UNK         0.0600 
    159 H159        1.8315  -17.6006  -43.5588 H         1 UNK         0.3000 
    160 H160        4.4251  -16.8094  -43.0878 H         1 UNK         0.0600 
    161 H161        5.7605  -19.2741  -44.3179 H         1 UNK         0.0600 
    162 H162        6.2377  -18.4657  -42.8283 H         1 UNK         0.0600 
    163 H163        6.4183  -17.6402  -44.3662 H         1 UNK         0.0600 
    164 H164        3.3465  -18.3286  -45.3897 H         1 UNK         0.3000 
    165 H165        5.3648  -15.3463  -44.7238 H         1 UNK         0.0600 
    166 H166        5.2203  -14.3611  -47.0181 H         1 UNK         0.0600 
    167 H167        3.6431  -13.6767  -46.6340 H         1 UNK         0.0600 
    168 H168        5.0799  -13.1243  -45.7779 H         1 UNK         0.0600 
    169 H169        2.5118  -14.7582  -44.2137 H         1 UNK         0.3000 
    170 H170        2.4166  -14.2826  -41.5447 H         1 UNK         0.0600 
    171 H171        4.0699  -12.8921  -40.3556 H         1 UNK         0.0600 
    172 H172        3.7748  -11.5365  -41.4354 H         1 UNK         0.0600 
    173 H173        2.5071  -12.0914  -40.3427 H         1 UNK         0.0600 
    174 H174        0.8101  -13.3345  -42.7046 H         1 UNK         0.3000 
    175 H175        0.2441  -10.3958  -44.4065 H         1 UNK         0.0600 
    176 H176        0.6535  -13.0657  -45.8643 H         1 UNK         0.0600 
    177 H177       -0.4913  -11.8172  -46.3621 H         1 UNK         0.0600 
    178 H178        1.2343  -11.4923  -46.3794 H         1 UNK         0.0600 
    179 H179       -1.1711  -12.9170  -44.1243 H         1 UNK         0.3000 
    180 H180       -2.5070  -12.2735  -40.9118 H         1 UNK         0.0600 
    181 H181       -4.0697  -11.0664  -42.4304 H         1 UNK         0.0600 
    182 H182       -3.8683  -12.3085  -43.6606 H         1 UNK         0.0600 
    183 H183       -4.6375  -12.7009  -42.1239 H         1 UNK         0.0600 
    184 H184       -2.7763  -14.3727  -42.8851 H         1 UNK         0.3000 
    185 H185       -0.0339  -16.3421  -41.7075 H         1 UNK         0.0600 
    186 H186       -3.0561  -16.7697  -41.3495 H         1 UNK         0.0600 
    187 H187       -1.8356  -18.0391  -41.3678 H         1 UNK         0.0600 
    188 H188       -1.8551  -16.8642  -40.0674 H         1 UNK         0.0600 
    189 H189       -2.2387  -16.4941  -43.6428 H         1 UNK         0.3000 
    190 H190       -0.9863  -20.9425  -45.0419 H         1 UNK         0.3000 
    191 H191       -3.4751  -19.5770  -45.4521 H         1 UNK         0.0600 
    192 H192       -3.6549  -19.7535  -42.9597 H         1 UNK         0.0600 
    193 H193       -2.0971  -19.1384  -43.4825 H         1 UNK         0.0600 
    194 H194       -2.2469  -20.8104  -42.9347 H         1 UNK         0.0600 
    195 H195       -2.6680  -22.9496  -44.5515 H         1 UNK         0.3000 
    196 H196       -5.2822  -23.9194  -44.1567 H         1 UNK         0.0600 
    197 H197       -4.2200  -26.1533  -44.5024 H         1 UNK         0.0600 
    198 H198       -3.2169  -25.1315  -43.4837 H         1 UNK         0.0600 
    199 H199       -2.7889  -25.3822  -45.1757 H         1 UNK         0.0600 
    200 H200       -3.5173  -23.3644  -47.1619 H         1 UNK         0.3000 
    201 H201       -5.6512  -24.5816  -48.8305 H         1 UNK         0.0600 
    202 H202       -3.3341  -25.2420  -49.3096 H         1 UNK         0.0600 
    203 H203       -2.8432  -23.5639  -49.4703 H         1 UNK         0.0600 
    204 H204       -3.9493  -24.2863  -50.6438 H         1 UNK         0.0600 
    205 H205       -5.6178  -21.8439  -47.2623 H         1 UNK         0.3000 
    206 H206       -6.5895  -19.8725  -47.3925 H         1 UNK         0.0600 
    207 H207       -8.5101  -21.1777  -48.2855 H         1 UNK         0.0600 
    208 H208       -8.4755  -19.5578  -48.9641 H         1 UNK         0.0600 
    209 H209       -7.9441  -20.9223  -49.9352 H         1 UNK         0.0600 
    210 H210       -4.1320  -19.5651  -47.9656 H         1 UNK         0.3000 
    211 H211       -2.5400  -18.2487  -48.7841 H         1 UNK         0.0600 
    212 H212       -4.6582  -16.7188  -50.3880 H         1 UNK         0.0600 
    213 H213       -3.0033  -16.2179  -50.1023 H         1 UNK         0.0600 
    214 H214       -4.1253  -16.3157  -48.7562 H         1 UNK         0.0600 
    215 H215       -3.1366  -20.7141  -49.7438 H         1 UNK         0.3000 
    216 H216       -2.9123  -22.2633  -51.2857 H         1 UNK         0.0600 
    217 H217       -0.9235  -20.4333  -52.6591 H         1 UNK         0.0600 
    218 H218       -0.9768  -22.1861  -52.7480 H         1 UNK         0.0600 
    219 H219       -0.5546  -21.4049  -51.2325 H         1 UNK         0.0600 
    220 H220       -5.0170  -20.1649  -51.8545 H         1 UNK         0.3000 
    221 H221       -5.3511  -19.9469  -54.6732 H         1 UNK         0.0600 
    222 H222       -7.4445  -19.8956  -52.4351 H         1 UNK         0.0600 
    223 H223       -6.5463  -18.5012  -53.0363 H         1 UNK         0.0600 
    224 H224       -7.6888  -19.3297  -54.0832 H         1 UNK         0.0600 
    225 H225       -6.1537  -22.5134  -52.3669 H         1 UNK         0.3000 
    226 H226       -7.7993  -24.1144  -54.0720 H         1 UNK         0.0600 
    227 H227       -7.6858  -24.3698  -51.5913 H         1 UNK         0.0600 
    228 H228       -7.3095  -25.8866  -52.3951 H         1 UNK         0.0600 
    229 H229       -6.0139  -24.9140  -51.7107 H         1 UNK         0.0600 
    230 H230       -4.3652  -23.5466  -54.0807 H         1 UNK         0.3000 
    231 H231       -3.8358  -25.8433  -55.9252 H         1 UNK         0.0600 
    232 H232       -1.9224  -24.2422  -54.1366 H         1 UNK         0.0600 
    233 H233       -2.5294  -25.8583  -53.7781 H         1 UNK         0.0600 
    234 H234       -1.4863  -25.6010  -55.1663 H         1 UNK         0.0600 
    235 H235       -4.6860  -22.6841  -56.0671 H         1 UNK         0.3000 
    236 H236       -4.3818  -20.8847  -57.3061 H         1 UNK         0.0600 
    237 H237       -5.0588  -22.4696  -59.1223 H         1 UNK         0.0600 
    238 H238       -4.0148  -21.1962  -59.7299 H         1 UNK         0.0600 
    239 H239       -3.3625  -22.8082  -59.4642 H         1 UNK         0.0600 
    240 H240       -2.2527  -21.4706  -55.5188 H         1 UNK         0.3000 
    241 H241       -0.2392  -20.9734  -54.8984 H         1 UNK         0.0600 
    242 H242       -0.5826  -23.1930  -57.1258 H         1 UNK         0.3800 
    243 H243        1.0940  -23.5092  -57.4885 H         1 UNK         0.3800 
    244 H244       -0.8891  -18.6615  -56.1072 H         1 UNK         0.0800 
    245 H245        0.4144  -19.0788  -57.1733 H         1 UNK         0.0800 
    246 H246       -0.1814  -16.8689  -54.0618 H         1 UNK         0.0800 
    247 H247       -0.8507  -18.4311  -53.6820 H         1 UNK         0.0800 
@<TRIPOS>BOND
     1    1    2 1    
     2    1  127 1    
     3    1  128 1    
     4    1  129 1    
     5    2    3 2    
     6    2    4 am   BACKBONE|DICT|INTERRES
     7    4    5 1    
     8    4  130 1    
     9    5    6 1    
    10    5   65 1    
    11    5  131 1    
    12    6    7 1    
    13    6  132 1    
    14    6  133 1    
    15    7    8 1    
    16    8    9 1    
    17    8  134 1    
    18    8  135 1    
    19    9   10 ar   
    20    9   14 ar   
    21   10   11 ar   
    22   10  136 1    
    23   11   12 ar   
    24   11  126 1    
    25   12   13 ar   
    26   12  137 1    
    27   13   14 ar   
    28   13   15 1    
    29   14  138 1    
    30   15   16 1    
    31   15  139 1    
    32   15  140 1    
    33   16   17 1    
    34   17   18 1    
    35   17  141 1    
    36   17  142 1    
    37   18   19 1    
    38   18   67 1    
    39   18  143 1    
    40   19   20 am   BACKBONE|DICT|INTERRES
    41   19  144 1    
    42   20   21 2    
    43   20   22 1    
    44   22   23 1    
    45   22   24 1    
    46   22  145 1    
    47   23  146 1    
    48   23  147 1    
    49   23  148 1    
    50   24   25 am   BACKBONE|DICT|INTERRES
    51   24  149 1    
    52   25   26 2    
    53   25   27 1    
    54   27   28 1    
    55   27   29 1    
    56   27  150 1    
    57   28  151 1    
    58   28  152 1    
    59   28  153 1    
    60   29   30 am   BACKBONE|DICT|INTERRES
    61   29  154 1    
    62   30   31 2    
    63   30   32 1    
    64   32   33 1    
    65   32   34 1    
    66   32  155 1    
    67   33  156 1    
    68   33  157 1    
    69   33  158 1    
    70   34   35 am   BACKBONE|DICT|INTERRES
    71   34  159 1    
    72   35   36 2    
    73   35   37 1    
    74   37   38 1    
    75   37   39 1    
    76   37  160 1    
    77   38  161 1    
    78   38  162 1    
    79   38  163 1    
    80   39   40 am   BACKBONE|DICT|INTERRES
    81   39  164 1    
    82   40   41 2    
    83   40   42 1    
    84   42   43 1    
    85   42   44 1    
    86   42  165 1    
    87   43  166 1    
    88   43  167 1    
    89   43  168 1    
    90   44   45 am   BACKBONE|DICT|INTERRES
    91   44  169 1    
    92   45   46 2    
    93   45   47 1    
    94   47   48 1    
    95   47   49 1    
    96   47  170 1    
    97   48  171 1    
    98   48  172 1    
    99   48  173 1    
   100   49   50 am   BACKBONE|DICT|INTERRES
   101   49  174 1    
   102   50   51 2    
   103   50   52 1    
   104   52   53 1    
   105   52   54 1    
   106   52  175 1    
   107   53  176 1    
   108   53  177 1    
   109   53  178 1    
   110   54   55 am   BACKBONE|DICT|INTERRES
   111   54  179 1    
   112   55   56 2    
   113   55   57 1    
   114   57   58 1    
   115   57   59 1    
   116   57  180 1    
   117   58  181 1    
   118   58  182 1    
   119   58  183 1    
   120   59   60 am   BACKBONE|DICT|INTERRES
   121   59  184 1    
   122   60   61 2    
   123   60   62 1    
   124   62   63 1    
   125   62   64 1    
   126   62  185 1    
   127   63  186 1    
   128   63  187 1    
   129   63  188 1    
   130   64   65 am   BACKBONE|DICT|INTERRES
   131   64  189 1    
   132   65   66 2    
   133   67   68 2    
   134   67   69 am   BACKBONE|DICT|INTERRES
   135   69   70 1    
   136   69  190 1    
   137   70   71 1    
   138   70   72 1    
   139   70  191 1    
   140   71  192 1    
   141   71  193 1    
   142   71  194 1    
   143   72   73 2    
   144   72   74 am   BACKBONE|DICT|INTERRES
   145   74   75 1    
   146   74  195 1    
   147   75   76 1    
   148   75   77 1    
   149   75  196 1    
   150   76  197 1    
   151   76  198 1    
   152   76  199 1    
   153   77   78 2    
   154   77   79 am   BACKBONE|DICT|INTERRES
   155   79   80 1    
   156   79  200 1    
   157   80   81 1    
   158   80   82 1    
   159   80  201 1    
   160   81  202 1    
   161   81  203 1    
   162   81  204 1    
   163   82   83 2    
   164   82   84 am   BACKBONE|DICT|INTERRES
   165   84   85 1    
   166   84  205 1    
   167   85   86 1    
   168   85   87 1    
   169   85  206 1    
   170   86  207 1    
   171   86  208 1    
   172   86  209 1    
   173   87   88 2    
   174   87   89 am   BACKBONE|DICT|INTERRES
   175   89   90 1    
   176   89  210 1    
   177   90   91 1    
   178   90   92 1    
   179   90  211 1    
   180   91  212 1    
   181   91  213 1    
   182   91  214 1    
   183   92   93 2    
   184   92   94 am   BACKBONE|DICT|INTERRES
   185   94   95 1    
   186   94  215 1    
   187   95   96 1    
   188   95   97 1    
   189   95  216 1    
   190   96  217 1    
   191   96  218 1    
   192   96  219 1    
   193   97   98 2    
   194   97   99 am   BACKBONE|DICT|INTERRES
   195   99  100 1    
   196   99  220 1    
   197  100  101 1    
   198  100  102 1    
   199  100  221 1    
   200  101  222 1    
   201  101  223 1    
   202  101  224 1    
   203  102  103 2    
   204  102  104 am   BACKBONE|DICT|INTERRES
   205  104  105 1    
   206  104  225 1    
   207  105  106 1    
   208  105  107 1    
   209  105  226 1    
   210  106  227 1    
   211  106  228 1    
   212  106  229 1    
   213  107  108 2    
   214  107  109 am   BACKBONE|DICT|INTERRES
   215  109  110 1    
   216  109  230 1    
   217  110  111 1    
   218  110  112 1    
   219  110  231 1    
   220  111  232 1    
   221  111  233 1    
   222  111  234 1    
   223  112  113 2    
   224  112  114 am   BACKBONE|DICT|INTERRES
   225  114  115 1    
   226  114  235 1    
   227  115  116 1    
   228  115  117 1    
   229  115  236 1    
   230  116  237 1    
   231  116  238 1    
   232  116  239 1    
   233  117  118 2    
   234  117  119 am   BACKBONE|DICT|INTERRES
   235  119  120 1    
   236  119  240 1    
   237  120  121 1    
   238  120  124 1    
   239  120  241 1    
   240  121  122 am   BACKBONE|DICT|INTERRES
   241  121  123 2    
   242  122  242 1    
   243  122  243 1    
   244  124  125 1    
   245  124  244 1    
   246  124  245 1    
   247  125  126 1    
   248  126  246 1    
   249  126  247 1    
@<TRIPOS>SUBSTRUCTURE
     1 UNK         1 GROUP             0       ****    0 ROOT    
