@<TRIPOS>MOLECULE
3R540
247   249    1
SMALL
USER_CHARGES


@<TRIPOS>ATOM
      1 CA         -6.6167  -18.3651  -44.1472 C.3       0 UNK        -0.1800 
      2 C          -6.4630  -16.8728  -44.4044 C.2       0 UNK         0.5000 
      3 O          -7.2911  -16.0815  -43.9524 O.2       0 UNK        -0.5000 
      4 N          -5.4144  -16.4897  -45.1385 N.am      1 UNK        -0.5000 
      5 CA         -5.0722  -15.1070  -45.4699 C.3       1 UNK         0.1400 
      6 C6         -4.0753  -15.0313  -46.6509 C.3       23 UNK        -0.0398 
      7 S7         -4.7804  -15.6926  -48.1983 S.3       23 UNK        -0.2404 
      8 C8         -3.5801  -15.0851  -49.4240 C.3       23 UNK        -0.0205 
      9 C9         -2.2773  -15.8693  -49.3801 C.ar      23 UNK        -0.0193 
     10 C10        -2.1140  -17.0128  -50.1690 C.ar      23 UNK        -0.1150 
     11 C11        -0.9160  -17.7324  -50.1342 C.ar      23 UNK        -0.0193 
     12 C12         0.1225  -17.2997  -49.3042 C.ar      23 UNK        -0.1150 
     13 C13        -0.0407  -16.1753  -48.4890 C.ar      23 UNK        -0.0193 
     14 C14        -1.2356  -15.4538  -48.5459 C.ar      23 UNK        -0.1150 
     15 C15         1.0552  -15.7596  -47.5191 C.3       23 UNK        -0.0205 
     16 S16         1.4356  -17.0529  -46.2900 S.3       23 UNK        -0.2404 
     17 C17        -0.1812  -17.3946  -45.5049 C.3       23 UNK        -0.0398 
     18 CA         -0.9829  -18.5223  -46.2028 C.3       11 UNK         0.1400 
     19 N          -0.1768  -19.7114  -46.5097 N.am      11 UNK        -0.5000 
     20 C          -0.5686  -20.6922  -47.3351 C.2       10 UNK         0.5000 
     21 O          -1.6427  -20.6905  -47.9282 O.2       10 UNK        -0.5000 
     22 CA          0.3534  -21.9143  -47.4632 C.3       10 UNK         0.1400 
     23 CB          1.4577  -21.6767  -48.5053 C.3       10 UNK        -0.1800 
     24 N           0.9408  -22.2650  -46.1722 N.am      10 UNK        -0.5000 
     25 C           0.2475  -22.8131  -45.1643 C.2       9 UNK         0.5000 
     26 O          -0.9407  -23.1257  -45.2473 O.2       9 UNK        -0.5000 
     27 CA          0.9924  -23.0012  -43.8291 C.3       9 UNK         0.1400 
     28 CB          1.7664  -24.3274  -43.8253 C.3       9 UNK        -0.1800 
     29 N           1.9095  -21.8987  -43.5294 N.am      9 UNK        -0.5000 
     30 C           1.5180  -20.6416  -43.2779 C.2       8 UNK         0.5000 
     31 O           0.3398  -20.2934  -43.2300 O.2       8 UNK        -0.5000 
     32 CA          2.6180  -19.5807  -43.0947 C.3       8 UNK         0.1400 
     33 CB          3.0244  -19.4724  -41.6182 C.3       8 UNK        -0.1800 
     34 N           3.8186  -19.7809  -43.9099 N.am      8 UNK        -0.5000 
     35 C           3.8561  -19.9008  -45.2435 C.2       7 UNK         0.5000 
     36 O           2.8498  -20.0459  -45.9374 O.2       7 UNK        -0.5000 
     37 CA          5.2489  -19.8124  -45.9034 C.3       7 UNK         0.1400 
     38 CB          5.1712  -19.8308  -47.4410 C.3       7 UNK        -0.1800 
     39 N           5.9534  -18.5984  -45.4836 N.am      7 UNK        -0.5000 
     40 C           6.6234  -18.4441  -44.3334 C.2       6 UNK         0.5000 
     41 O           6.7884  -19.3526  -43.5183 O.2       6 UNK        -0.5000 
     42 CA          7.1451  -17.0291  -44.0114 C.3       6 UNK         0.1400 
     43 CB          8.5800  -16.8541  -44.5311 C.3       6 UNK        -0.1800 
     44 N           6.3051  -15.9484  -44.5418 N.am      6 UNK        -0.5000 
     45 C           5.0254  -15.7311  -44.2056 C.2       5 UNK         0.5000 
     46 O           4.4040  -16.4331  -43.4030 O.2       5 UNK        -0.5000 
     47 CA          4.3290  -14.5346  -44.8801 C.3       5 UNK         0.1400 
     48 CB          4.4849  -14.5607  -46.4125 C.3       5 UNK        -0.1800 
     49 N           2.9087  -14.5715  -44.5501 N.am      5 UNK        -0.5000 
     50 C           2.1466  -13.5354  -44.1955 C.2       4 UNK         0.5000 
     51 O           2.5486  -12.3710  -44.1248 O.2       4 UNK        -0.5000 
     52 CA          0.6934  -13.8876  -43.8238 C.3       4 UNK         0.1400 
     53 CB          0.6131  -14.4453  -42.3942 C.3       4 UNK        -0.1800 
     54 N          -0.2141  -12.7489  -43.9361 N.am      4 UNK        -0.5000 
     55 C          -0.6158  -12.1927  -45.0842 C.2       3 UNK         0.5000 
     56 O          -0.2888  -12.6084  -46.1966 O.2       3 UNK        -0.5000 
     57 CA         -1.5986  -11.0119  -44.9534 C.3       3 UNK         0.1400 
     58 CB         -1.8482  -10.2969  -46.2937 C.3       3 UNK        -0.1800 
     59 N          -2.8807  -11.4745  -44.4246 N.am      3 UNK        -0.5000 
     60 C          -3.1502  -11.7264  -43.1363 C.2       2 UNK         0.5000 
     61 O          -2.3560  -11.5139  -42.2188 O.2       2 UNK        -0.5000 
     62 CA         -4.5243  -12.3529  -42.8303 C.3       2 UNK         0.1400 
     63 CB         -5.5640  -11.2596  -42.5417 C.3       2 UNK        -0.1800 
     64 N          -5.0100  -13.2069  -43.9192 N.am      2 UNK        -0.5000 
     65 C          -4.4857  -14.3997  -44.2336 C.2       1 UNK         0.5000 
     66 O          -3.5590  -14.9262  -43.6130 O.2       1 UNK        -0.5000 
     67 C          -2.2625  -18.8753  -45.4157 C.2       11 UNK         0.5000 
     68 O          -3.3089  -18.2745  -45.6524 O.2       11 UNK        -0.5000 
     69 N          -2.1768  -19.8893  -44.5438 N.am      12 UNK        -0.5000 
     70 CA         -3.3042  -20.5111  -43.8452 C.3       12 UNK         0.1400 
     71 CB         -2.7640  -21.3112  -42.6490 C.3       12 UNK        -0.1800 
     72 C          -4.1823  -21.4060  -44.7499 C.2       12 UNK         0.5000 
     73 O          -5.2012  -21.9115  -44.2779 O.2       12 UNK        -0.5000 
     74 N          -3.7842  -21.5832  -46.0181 N.am      13 UNK        -0.5000 
     75 CA         -4.4480  -22.3482  -47.0733 C.3       13 UNK         0.1400 
     76 CB         -5.8227  -21.7411  -47.4233 C.3       13 UNK        -0.1800 
     77 C          -4.4986  -23.8638  -46.8028 C.2       13 UNK         0.5000 
     78 O          -5.4527  -24.5260  -47.2188 O.2       13 UNK        -0.5000 
     79 N          -3.4601  -24.4058  -46.1462 N.am      14 UNK        -0.5000 
     80 CA         -3.2800  -25.8452  -45.9421 C.3       14 UNK         0.1400 
     81 CB         -2.0541  -26.0978  -45.0521 C.3       14 UNK        -0.1800 
     82 C          -3.1326  -26.5764  -47.2891 C.2       14 UNK         0.5000 
     83 O          -2.4353  -26.0793  -48.1756 O.2       14 UNK        -0.5000 
     84 N          -3.8275  -27.7139  -47.4275 N.am      15 UNK        -0.5000 
     85 CA         -3.9579  -28.5132  -48.6547 C.3       15 UNK         0.1400 
     86 CB         -2.6070  -29.1522  -49.0414 C.3       15 UNK        -0.1800 
     87 C          -4.6153  -27.7403  -49.8237 C.2       15 UNK         0.5000 
     88 O          -4.3305  -28.0281  -50.9874 O.2       15 UNK        -0.5000 
     89 N          -5.4872  -26.7765  -49.4841 N.am      16 UNK        -0.5000 
     90 CA         -6.2218  -25.8769  -50.3804 C.3       16 UNK         0.1400 
     91 CB         -7.2248  -26.6612  -51.2527 C.3       16 UNK        -0.1800 
     92 C          -5.3022  -24.9452  -51.1993 C.2       16 UNK         0.5000 
     93 O          -5.5907  -24.6562  -52.3627 O.2       16 UNK        -0.5000 
     94 N          -4.2092  -24.4840  -50.5755 N.am      17 UNK        -0.5000 
     95 CA         -3.2479  -23.5373  -51.1405 C.3       17 UNK         0.1400 
     96 CB         -1.9554  -23.5739  -50.3059 C.3       17 UNK        -0.1800 
     97 C          -3.8333  -22.1138  -51.2442 C.2       17 UNK         0.5000 
     98 O          -3.5614  -21.2657  -50.3966 O.2       17 UNK        -0.5000 
     99 N          -4.6443  -21.8789  -52.2805 N.am      18 UNK        -0.5000 
    100 CA        -5.1352  -20.5578  -52.6729 C.3       18 UNK         0.1400 
    101 CB        -6.2310  -20.7459  -53.7341 C.3       18 UNK        -0.1800 
    102 C         -4.0011  -19.6761  -53.2318 C.2       18 UNK         0.5000 
    103 O         -2.9636  -20.1993  -53.6449 O.2       18 UNK        -0.5000 
    104 N         -4.2374  -18.3591  -53.3067 N.am      19 UNK        -0.5000 
    105 CA        -3.3017  -17.3779  -53.8740 C.3       19 UNK         0.1400 
    106 CB        -3.9009  -15.9700  -53.7457 C.3       19 UNK        -0.1800 
    107 C         -2.9203  -17.6709  -55.3393 C.2       19 UNK         0.5000 
    108 O         -1.7603  -17.5118  -55.7204 O.2       19 UNK        -0.5000 
    109 N         -3.9008  -18.1489  -56.1172 N.am      20 UNK        -0.5000 
    110 CA        -3.7290  -18.5887  -57.5016 C.3       20 UNK         0.1400 
    111 CB        -5.1146  -18.7198  -58.1527 C.3       20 UNK        -0.1800 
    112 C         -2.9462  -19.9110  -57.6340 C.2       20 UNK         0.5000 
    113 O         -2.3872  -20.1690  -58.7007 O.2       20 UNK        -0.5000 
    114 N         -2.9242  -20.7248  -56.5688 N.am      21 UNK        -0.5000 
    115 CA        -2.1920  -21.9871  -56.5129 C.3       21 UNK         0.1400 
    116 CB        -2.9171  -22.9735  -55.5815 C.3       21 UNK        -0.1800 
    117 C         -0.7401  -21.7640  -56.0616 C.2       21 UNK         0.5000 
    118 O          0.1698  -22.3170  -56.6813 O.2       21 UNK        -0.5000 
    119 N         -0.5435  -20.9666  -55.0007 N.am      22 UNK        -0.5000 
    120 CA         0.7889  -20.6481  -54.4630 C.3       22 UNK         0.1400 
    121 C          1.5992  -19.6182  -55.3043 C.2       22 UNK         0.5000 
    122 N          0.9632  -18.7369  -56.0675 N.am      22 UNK        -0.7600 
    123 O          2.8270  -19.6340  -55.2781 O.2       22 UNK        -0.5000 
    124 C124        0.7557  -20.3040  -52.9503 C.3       23 UNK        -0.0398 
    125 S125        0.0922  -18.6536  -52.5328 S.3       23 UNK        -0.2404 
    126 C126       -0.7473  -18.9977  -50.9590 C.3       23 UNK        -0.0205 
    127 H127       -7.6540  -18.6688  -44.2880 H         1 UNK         0.0600 
    128 H128       -6.3247  -18.6041  -43.1248 H         1 UNK         0.0600 
    129 H129       -6.0011  -18.9522  -44.8290 H         1 UNK         0.0600 
    130 H130       -4.7274  -17.1839  -45.4304 H         1 UNK         0.3000 
    131 H131       -5.9888  -14.5917  -45.7653 H         1 UNK         0.0600 
    132 H132       -3.1642  -15.5850  -46.4178 H         1 UNK         0.0800 
    133 H133       -3.7737  -13.9974  -46.8291 H         1 UNK         0.0800 
    134 H134       -4.0258  -15.1671  -50.4152 H         1 UNK         0.0800 
    135 H135       -3.3915  -14.0221  -49.2665 H         1 UNK         0.0800 
    136 H136       -2.9231  -17.3492  -50.8015 H         1 UNK         0.1150 
    137 H137        1.0442  -17.8629  -49.2593 H         1 UNK         0.1150 
    138 H138       -1.3628  -14.5777  -47.9252 H         1 UNK         0.1150 
    139 H139        1.9592  -15.5343  -48.0856 H         1 UNK         0.0800 
    140 H140        0.7871  -14.8424  -46.9960 H         1 UNK         0.0800 
    141 H141       -0.7718  -16.4774  -45.4827 H         1 UNK         0.0800 
    142 H142        0.0135  -17.6581  -44.4639 H         1 UNK         0.0800 
    143 H143       -1.3375  -18.1324  -47.1563 H         1 UNK         0.0600 
    144 H144        0.7490  -19.7589  -46.0984 H         1 UNK         0.3000 
    145 H145       -0.2487  -22.7607  -47.8007 H         1 UNK         0.0600 
    146 H146        2.0224  -20.7661  -48.3041 H         1 UNK         0.0600 
    147 H147        2.1606  -22.5092  -48.5347 H         1 UNK         0.0600 
    148 H148        1.0301  -21.5805  -49.5033 H         1 UNK         0.0600 
    149 H149        1.8784  -21.9248  -45.9987 H         1 UNK         0.3000 
    150 H150        0.2434  -23.0431  -43.0356 H         1 UNK         0.0600 
    151 H151        1.1003  -25.1676  -44.0268 H         1 UNK         0.0600 
    152 H152        2.2329  -24.5089  -42.8570 H         1 UNK         0.0600 
    153 H153        2.5497  -24.3398  -44.5842 H         1 UNK         0.0600 
    154 H154        2.8984  -22.0979  -43.5616 H         1 UNK         0.3000 
    155 H155        2.1907  -18.6223  -43.3963 H         1 UNK         0.0600 
    156 H156        3.5109  -20.3833  -41.2673 H         1 UNK         0.0600 
    157 H157        2.1544  -19.2970  -40.9840 H         1 UNK         0.0600 
    158 H158        3.7123  -18.6411  -41.4608 H         1 UNK         0.0600 
    159 H159        4.7062  -19.6674  -43.4348 H         1 UNK         0.3000 
    160 H160        5.8175  -20.6888  -45.5857 H         1 UNK         0.0600 
    161 H161        4.5927  -18.9892  -47.8247 H         1 UNK         0.0600 
    162 H162        4.6962  -20.7455  -47.7981 H         1 UNK         0.0600 
    163 H163        6.1648  -19.7873  -47.8872 H         1 UNK         0.0600 
    164 H164        5.8313  -17.7869  -46.0708 H         1 UNK         0.3000 
    165 H165        7.1623  -16.9294  -42.9241 H         1 UNK         0.0600 
    166 H166        8.9959  -15.8932  -44.2275 H         1 UNK         0.0600 
    167 H167        9.2365  -17.6300  -44.1347 H         1 UNK         0.0600 
    168 H168        8.6241  -16.9116  -45.6195 H         1 UNK         0.0600 
    169 H169        6.7467  -15.3250  -45.2019 H         1 UNK         0.3000 
    170 H170        4.7836  -13.6244  -44.4840 H         1 UNK         0.0600 
    171 H171        5.5212  -14.4024  -46.7116 H         1 UNK         0.0600 
    172 H172        4.1612  -15.5135  -46.8329 H         1 UNK         0.0600 
    173 H173        3.8944  -13.7730  -46.8812 H         1 UNK         0.0600 
    174 H174        2.5224  -15.5057  -44.5079 H         1 UNK         0.3000 
    175 H175        0.3447  -14.6576  -44.5121 H         1 UNK         0.0600 
    176 H176        0.9363  -13.7087  -41.6575 H         1 UNK         0.0600 
    177 H177       -0.4057  -14.7447  -42.1460 H         1 UNK         0.0600 
    178 H178        1.2461  -15.3262  -42.2783 H         1 UNK         0.0600 
    179 H179       -0.5638  -12.3554  -43.0709 H         1 UNK         0.3000 
    180 H180       -1.1607  -10.2875  -44.2633 H         1 UNK         0.0600 
    181 H181       -2.5055   -9.4369  -46.1643 H         1 UNK         0.0600 
    182 H182       -2.3056  -10.9607  -47.0286 H         1 UNK         0.0600 
    183 H183       -0.9136   -9.9291  -46.7191 H         1 UNK         0.0600 
    184 H184       -3.5884  -11.6989  -45.1073 H         1 UNK         0.3000 
    185 H185       -4.4165  -12.9666  -41.9333 H         1 UNK         0.0600 
    186 H186       -5.2400  -10.6209  -41.7188 H         1 UNK         0.0600 
    187 H187       -5.7283  -10.6189  -43.4091 H         1 UNK         0.0600 
    188 H188       -6.5230  -11.6927  -42.2567 H         1 UNK         0.0600 
    189 H189       -5.7856  -12.8497  -44.4590 H         1 UNK         0.3000 
    190 H190       -1.2596  -20.2764  -44.3419 H         1 UNK         0.3000 
    191 H191       -3.9436  -19.7160  -43.4576 H         1 UNK         0.0600 
    192 H192       -3.5774  -21.7401  -42.0626 H         1 UNK         0.0600 
    193 H193       -2.1826  -20.6769  -41.9797 H         1 UNK         0.0600 
    194 H194       -2.1246  -22.1326  -42.9721 H         1 UNK         0.0600 
    195 H195       -2.9281  -21.1292  -46.3136 H         1 UNK         0.3000 
    196 H196       -3.8186  -22.2349  -47.9540 H         1 UNK         0.0600 
    197 H197       -6.5443  -21.8748  -46.6172 H         1 UNK         0.0600 
    198 H198       -5.7386  -20.6737  -47.6283 H         1 UNK         0.0600 
    199 H199       -6.2382  -22.2082  -48.3170 H         1 UNK         0.0600 
    200 H200       -2.6869  -23.8121  -45.8590 H         1 UNK         0.3000 
    201 H201       -4.1655  -26.2189  -45.4240 H         1 UNK         0.0600 
    202 H202       -1.1303  -25.7941  -45.5460 H         1 UNK         0.0600 
    203 H203       -1.9608  -27.1571  -44.8100 H         1 UNK         0.0600 
    204 H204       -2.1273  -25.5525  -44.1109 H         1 UNK         0.0600 
    205 H205       -4.3755  -28.0391  -46.6426 H         1 UNK         0.3000 
    206 H206       -4.6446  -29.3260  -48.4141 H         1 UNK         0.0600 
    207 H207       -2.1691  -29.6888  -48.1998 H         1 UNK         0.0600 
    208 H208       -2.7319  -29.8707  -49.8522 H         1 UNK         0.0600 
    209 H209       -1.8855  -28.4064  -49.3761 H         1 UNK         0.0600 
    210 H210       -5.6203  -26.5932  -48.4980 H         1 UNK         0.3000 
    211 H211       -6.8030  -25.2198  -49.7317 H         1 UNK         0.0600 
    212 H212       -7.8738  -25.9824  -51.8072 H         1 UNK         0.0600 
    213 H213       -7.8676  -27.2950  -50.6419 H         1 UNK         0.0600 
    214 H214       -6.7205  -27.2965  -51.9812 H         1 UNK         0.0600 
    215 H215       -4.0246  -24.8034  -49.6345 H         1 UNK         0.3000 
    216 H216       -2.9924  -23.8634  -52.1510 H         1 UNK         0.0600 
    217 H217       -2.1448  -23.3453  -49.2572 H         1 UNK         0.0600 
    218 H218       -1.2294  -22.8477  -50.6741 H         1 UNK         0.0600 
    219 H219       -1.4853  -24.5563  -50.3521 H         1 UNK         0.0600 
    220 H220       -4.8797  -22.6554  -52.8856 H         1 UNK         0.3000 
    221 H221       -5.5622  -20.0669  -51.7961 H         1 UNK         0.0600 
    222 H222       -7.0437  -21.3658  -53.3545 H         1 UNK         0.0600 
    223 H223       -5.8412  -21.2217  -54.6353 H         1 UNK         0.0600 
    224 H224       -6.6659  -19.7901  -54.0286 H         1 UNK         0.0600 
    225 H225       -5.1161  -17.9972  -52.9655 H         1 UNK         0.3000 
    226 H226       -2.3871  -17.4098  -53.2820 H         1 UNK         0.0600 
    227 H227       -4.8333  -15.8752  -54.3034 H         1 UNK         0.0600 
    228 H228       -4.1059  -15.7218  -52.7054 H         1 UNK         0.0600 
    229 H229       -3.2107  -15.2167  -54.1279 H         1 UNK         0.0600 
    230 H230       -4.8232  -18.2491  -55.7202 H         1 UNK         0.3000 
    231 H231       -3.1694  -17.8199  -58.0388 H         1 UNK         0.0600 
    232 H232       -5.7275  -19.4675  -57.6476 H         1 UNK         0.0600 
    233 H233       -5.0287  -19.0181  -59.1985 H         1 UNK         0.0600 
    234 H234       -5.6529  -17.7720  -58.1304 H         1 UNK         0.0600 
    235 H235       -3.3332  -20.4073  -55.6999 H         1 UNK         0.3000 
    236 H236       -2.1707  -22.4349  -57.5089 H         1 UNK         0.0600 
    237 H237       -3.9515  -23.1223  -55.8915 H         1 UNK         0.0600 
    238 H238       -2.4294  -23.9488  -55.5978 H         1 UNK         0.0600 
    239 H239       -2.9231  -22.6337  -54.5468 H         1 UNK         0.0600 
    240 H240       -1.3432  -20.5588  -54.5223 H         1 UNK         0.3000 
    241 H241        1.3671  -21.5725  -54.5258 H         1 UNK         0.0600 
    242 H242        1.4989  -18.0809  -56.6124 H         1 UNK         0.3800 
    243 H243       -0.0437  -18.6345  -56.0160 H         1 UNK         0.3800 
    244 H244        0.1803  -21.0662  -52.4227 H         1 UNK         0.0800 
    245 H245        1.7650  -20.3630  -52.5397 H         1 UNK         0.0800 
    246 H246       -1.7152  -19.4592  -51.1567 H         1 UNK         0.0800 
    247 H247       -0.1743  -19.7244  -50.3834 H         1 UNK         0.0800 
@<TRIPOS>BOND
     1    1    2 1    
     2    1  127 1    
     3    1  128 1    
     4    1  129 1    
     5    2    3 2    
     6    2    4 am   BACKBONE|DICT|INTERRES
     7    4    5 1    
     8    4  130 1    
     9    5    6 1    
    10    5   65 1    
    11    5  131 1    
    12    6    7 1    
    13    6  132 1    
    14    6  133 1    
    15    7    8 1    
    16    8    9 1    
    17    8  134 1    
    18    8  135 1    
    19    9   10 ar   
    20    9   14 ar   
    21   10   11 ar   
    22   10  136 1    
    23   11   12 ar   
    24   11  126 1    
    25   12   13 ar   
    26   12  137 1    
    27   13   14 ar   
    28   13   15 1    
    29   14  138 1    
    30   15   16 1    
    31   15  139 1    
    32   15  140 1    
    33   16   17 1    
    34   17   18 1    
    35   17  141 1    
    36   17  142 1    
    37   18   19 1    
    38   18   67 1    
    39   18  143 1    
    40   19   20 am   BACKBONE|DICT|INTERRES
    41   19  144 1    
    42   20   21 2    
    43   20   22 1    
    44   22   23 1    
    45   22   24 1    
    46   22  145 1    
    47   23  146 1    
    48   23  147 1    
    49   23  148 1    
    50   24   25 am   BACKBONE|DICT|INTERRES
    51   24  149 1    
    52   25   26 2    
    53   25   27 1    
    54   27   28 1    
    55   27   29 1    
    56   27  150 1    
    57   28  151 1    
    58   28  152 1    
    59   28  153 1    
    60   29   30 am   BACKBONE|DICT|INTERRES
    61   29  154 1    
    62   30   31 2    
    63   30   32 1    
    64   32   33 1    
    65   32   34 1    
    66   32  155 1    
    67   33  156 1    
    68   33  157 1    
    69   33  158 1    
    70   34   35 am   BACKBONE|DICT|INTERRES
    71   34  159 1    
    72   35   36 2    
    73   35   37 1    
    74   37   38 1    
    75   37   39 1    
    76   37  160 1    
    77   38  161 1    
    78   38  162 1    
    79   38  163 1    
    80   39   40 am   BACKBONE|DICT|INTERRES
    81   39  164 1    
    82   40   41 2    
    83   40   42 1    
    84   42   43 1    
    85   42   44 1    
    86   42  165 1    
    87   43  166 1    
    88   43  167 1    
    89   43  168 1    
    90   44   45 am   BACKBONE|DICT|INTERRES
    91   44  169 1    
    92   45   46 2    
    93   45   47 1    
    94   47   48 1    
    95   47   49 1    
    96   47  170 1    
    97   48  171 1    
    98   48  172 1    
    99   48  173 1    
   100   49   50 am   BACKBONE|DICT|INTERRES
   101   49  174 1    
   102   50   51 2    
   103   50   52 1    
   104   52   53 1    
   105   52   54 1    
   106   52  175 1    
   107   53  176 1    
   108   53  177 1    
   109   53  178 1    
   110   54   55 am   BACKBONE|DICT|INTERRES
   111   54  179 1    
   112   55   56 2    
   113   55   57 1    
   114   57   58 1    
   115   57   59 1    
   116   57  180 1    
   117   58  181 1    
   118   58  182 1    
   119   58  183 1    
   120   59   60 am   BACKBONE|DICT|INTERRES
   121   59  184 1    
   122   60   61 2    
   123   60   62 1    
   124   62   63 1    
   125   62   64 1    
   126   62  185 1    
   127   63  186 1    
   128   63  187 1    
   129   63  188 1    
   130   64   65 am   BACKBONE|DICT|INTERRES
   131   64  189 1    
   132   65   66 2    
   133   67   68 2    
   134   67   69 am   BACKBONE|DICT|INTERRES
   135   69   70 1    
   136   69  190 1    
   137   70   71 1    
   138   70   72 1    
   139   70  191 1    
   140   71  192 1    
   141   71  193 1    
   142   71  194 1    
   143   72   73 2    
   144   72   74 am   BACKBONE|DICT|INTERRES
   145   74   75 1    
   146   74  195 1    
   147   75   76 1    
   148   75   77 1    
   149   75  196 1    
   150   76  197 1    
   151   76  198 1    
   152   76  199 1    
   153   77   78 2    
   154   77   79 am   BACKBONE|DICT|INTERRES
   155   79   80 1    
   156   79  200 1    
   157   80   81 1    
   158   80   82 1    
   159   80  201 1    
   160   81  202 1    
   161   81  203 1    
   162   81  204 1    
   163   82   83 2    
   164   82   84 am   BACKBONE|DICT|INTERRES
   165   84   85 1    
   166   84  205 1    
   167   85   86 1    
   168   85   87 1    
   169   85  206 1    
   170   86  207 1    
   171   86  208 1    
   172   86  209 1    
   173   87   88 2    
   174   87   89 am   BACKBONE|DICT|INTERRES
   175   89   90 1    
   176   89  210 1    
   177   90   91 1    
   178   90   92 1    
   179   90  211 1    
   180   91  212 1    
   181   91  213 1    
   182   91  214 1    
   183   92   93 2    
   184   92   94 am   BACKBONE|DICT|INTERRES
   185   94   95 1    
   186   94  215 1    
   187   95   96 1    
   188   95   97 1    
   189   95  216 1    
   190   96  217 1    
   191   96  218 1    
   192   96  219 1    
   193   97   98 2    
   194   97   99 am   BACKBONE|DICT|INTERRES
   195   99  100 1    
   196   99  220 1    
   197  100  101 1    
   198  100  102 1    
   199  100  221 1    
   200  101  222 1    
   201  101  223 1    
   202  101  224 1    
   203  102  103 2    
   204  102  104 am   BACKBONE|DICT|INTERRES
   205  104  105 1    
   206  104  225 1    
   207  105  106 1    
   208  105  107 1    
   209  105  226 1    
   210  106  227 1    
   211  106  228 1    
   212  106  229 1    
   213  107  108 2    
   214  107  109 am   BACKBONE|DICT|INTERRES
   215  109  110 1    
   216  109  230 1    
   217  110  111 1    
   218  110  112 1    
   219  110  231 1    
   220  111  232 1    
   221  111  233 1    
   222  111  234 1    
   223  112  113 2    
   224  112  114 am   BACKBONE|DICT|INTERRES
   225  114  115 1    
   226  114  235 1    
   227  115  116 1    
   228  115  117 1    
   229  115  236 1    
   230  116  237 1    
   231  116  238 1    
   232  116  239 1    
   233  117  118 2    
   234  117  119 am   BACKBONE|DICT|INTERRES
   235  119  120 1    
   236  119  240 1    
   237  120  121 1    
   238  120  124 1    
   239  120  241 1    
   240  121  122 am   BACKBONE|DICT|INTERRES
   241  121  123 2    
   242  122  242 1    
   243  122  243 1    
   244  124  125 1    
   245  124  244 1    
   246  124  245 1    
   247  125  126 1    
   248  126  246 1    
   249  126  247 1    
@<TRIPOS>SUBSTRUCTURE
     1 UNK         1 GROUP             0       ****    0 ROOT    
