@<TRIPOS>MOLECULE
3R540
247   249    1
SMALL
USER_CHARGES


@<TRIPOS>ATOM
      1 CA          0.5884  -14.7619  -50.3547 C.3       0 UNK        -0.1800 
      2 C           0.0278  -14.8109  -48.9413 C.2       0 UNK         0.5000 
      3 O           0.7878  -14.9790  -47.9891 O.2       0 UNK        -0.5000 
      4 N          -1.2964  -14.6525  -48.7997 N.am      1 UNK        -0.5000 
      5 CA         -1.9819  -14.5767  -47.5001 C.3       1 UNK         0.1400 
      6 C6         -3.4867  -14.9625  -47.6009 C.3       23 UNK        -0.0398 
      7 S7         -3.9209  -16.2938  -46.4268 S.3       23 UNK        -0.2404 
      8 C8         -4.9267  -17.4195  -47.4568 C.3       23 UNK        -0.0205 
      9 C9         -4.1606  -18.3496  -48.4026 C.ar      23 UNK        -0.0193 
     10 C10        -4.8107  -19.4950  -48.8736 C.ar      23 UNK        -0.1150 
     11 C11        -4.1700  -20.3819  -49.7442 C.ar      23 UNK        -0.0193 
     12 C12        -2.8709  -20.1012  -50.1723 C.ar      23 UNK        -0.1150 
     13 C13        -2.1989  -18.9702  -49.7046 C.ar      23 UNK        -0.0193 
     14 C14        -2.8467  -18.1029  -48.8214 C.ar      23 UNK        -0.1150 
     15 C15        -0.7749  -18.6756  -50.1564 C.3       23 UNK        -0.0205 
     16 S16         0.4289  -19.9290  -49.6163 S.3       23 UNK        -0.2404 
     17 C17         0.3131  -19.8407  -47.7959 C.3       23 UNK        -0.0398 
     18 CA          0.1047  -21.2397  -47.1661 C.3       11 UNK         0.1400 
     19 N           0.5909  -21.2977  -45.7847 N.am      11 UNK        -0.5000 
     20 C           0.7736  -22.4337  -45.0969 C.2       10 UNK         0.5000 
     21 O           0.5759  -23.5550  -45.5619 O.2       10 UNK        -0.5000 
     22 CA          1.2019  -22.3000  -43.6263 C.3       10 UNK         0.1400 
     23 CB          2.7053  -22.0062  -43.5168 C.3       10 UNK        -0.1800 
     24 N           0.4342  -21.2806  -42.9113 N.am      10 UNK        -0.5000 
     25 C          -0.8902  -21.3412  -42.7096 C.2       9 UNK         0.5000 
     26 O          -1.5917  -22.2878  -43.0657 O.2       9 UNK        -0.5000 
     27 CA         -1.5522  -20.1300  -42.0307 C.3       9 UNK         0.1400 
     28 CB         -1.3831  -20.2073  -40.5064 C.3       9 UNK        -0.1800 
     29 N          -1.0459  -18.8482  -42.5242 N.am      9 UNK        -0.5000 
     30 C          -1.1630  -18.4191  -43.7904 C.2       8 UNK         0.5000 
     31 O          -1.7250  -19.0561  -44.6800 O.2       8 UNK        -0.5000 
     32 CA         -0.4795  -17.0848  -44.1367 C.3       8 UNK         0.1400 
     33 CB         -1.2631  -15.8918  -43.5703 C.3       8 UNK        -0.1800 
     34 N           0.8965  -17.0310  -43.6506 N.am      8 UNK        -0.5000 
     35 C           1.8774  -17.8643  -44.0215 C.2       7 UNK         0.5000 
     36 O           1.7460  -18.7537  -44.8631 O.2       7 UNK        -0.5000 
     37 CA          3.2162  -17.7063  -43.2825 C.3       7 UNK         0.1400 
     38 CB          4.0294  -16.5362  -43.8589 C.3       7 UNK        -0.1800 
     39 N           3.0252  -17.5141  -41.8437 N.am      7 UNK        -0.5000 
     40 C           2.5734  -18.4586  -41.0063 C.2       6 UNK         0.5000 
     41 O           2.2850  -19.6020  -41.3567 O.2       6 UNK        -0.5000 
     42 CA          2.3806  -18.0475  -39.5355 C.3       6 UNK         0.1400 
     43 CB          3.7162  -18.0962  -38.7784 C.3       6 UNK        -0.1800 
     44 N           1.7899  -16.7167  -39.3939 N.am      6 UNK        -0.5000 
     45 C           0.5392  -16.4034  -39.7595 C.2       5 UNK         0.5000 
     46 O          -0.2582  -17.2097  -40.2364 O.2       5 UNK        -0.5000 
     47 CA          0.1270  -14.9270  -39.6158 C.3       5 UNK         0.1400 
     48 CB         -0.3495  -14.6357  -38.1849 C.3       5 UNK        -0.1800 
     49 N           1.1804  -13.9744  -39.9830 N.am      5 UNK        -0.5000 
     50 C           1.7863  -13.9309  -41.1765 C.2       4 UNK         0.5000 
     51 O           1.5991  -14.7596  -42.0702 O.2       4 UNK        -0.5000 
     52 CA          2.7952  -12.7893  -41.4023 C.3       4 UNK         0.1400 
     53 CB          4.1994  -13.2295  -40.9608 C.3       4 UNK        -0.1800 
     54 N           2.8443  -12.3944  -42.8113 N.am      4 UNK        -0.5000 
     55 C           1.8116  -11.8781  -43.4904 C.2       3 UNK         0.5000 
     56 O           0.7565  -11.5221  -42.9565 O.2       3 UNK        -0.5000 
     57 CA          1.9831  -11.7492  -45.0140 C.3       3 UNK         0.1400 
     58 CB          2.6227  -13.0032  -45.6466 C.3       3 UNK        -0.1800 
     59 N           0.6734  -11.5278  -45.6149 N.am      3 UNK        -0.5000 
     60 C           0.4150  -10.8391  -46.7275 C.2       2 UNK         0.5000 
     61 O           1.2793  -10.2739  -47.4004 O.2       2 UNK        -0.5000 
     62 CA         -1.0599  -10.8350  -47.1786 C.3       2 UNK         0.1400 
     63 CB         -1.3321   -9.8352  -48.3168 C.3       2 UNK        -0.1800 
     64 N          -1.4504  -12.1722  -47.6242 N.am      2 UNK        -0.5000 
     65 C          -1.7841  -13.1983  -46.8269 C.2       1 UNK         0.5000 
     66 O          -1.9099  -13.0904  -45.6069 O.2       1 UNK        -0.5000 
     67 C          -1.3537  -21.7327  -47.2906 C.2       11 UNK         0.5000 
     68 O          -1.6660  -22.4657  -48.2279 O.2       11 UNK        -0.5000 
     69 N          -2.2070  -21.3712  -46.3207 N.am      12 UNK        -0.5000 
     70 CA         -3.5922  -21.8327  -46.2323 C.3       12 UNK         0.1400 
     71 CB         -4.3329  -21.0472  -45.1406 C.3       12 UNK        -0.1800 
     72 C          -3.7128  -23.3515  -46.0053 C.2       12 UNK         0.5000 
     73 O          -4.6134  -23.9747  -46.5680 O.2       12 UNK        -0.5000 
     74 N          -2.8038  -23.9202  -45.2013 N.am      13 UNK        -0.5000 
     75 CA         -2.6930  -25.3574  -44.9628 C.3       13 UNK         0.1400 
     76 CB         -1.8307  -25.6091  -43.7153 C.3       13 UNK        -0.1800 
     77 C          -2.1337  -26.1001  -46.1896 C.2       13 UNK         0.5000 
     78 O          -2.7803  -27.0176  -46.6975 O.2       13 UNK        -0.5000 
     79 N          -0.9532  -25.6807  -46.6616 N.am      14 UNK        -0.5000 
     80 CA         -0.2640  -26.2376  -47.8246 C.3       14 UNK         0.1400 
     81 CB          1.2558  -26.1220  -47.6082 C.3       14 UNK        -0.1800 
     82 C          -0.7353  -25.5412  -49.1143 C.2       14 UNK         0.5000 
     83 O           0.0602  -24.8965  -49.8008 O.2       14 UNK        -0.5000 
     84 N          -2.0311  -25.6868  -49.4198 N.am      15 UNK        -0.5000 
     85 CA         -2.7588  -25.0460  -50.5212 C.3       15 UNK         0.1400 
     86 CB         -4.2647  -25.1480  -50.2152 C.3       15 UNK        -0.1800 
     87 C          -2.4125  -25.5932  -51.9277 C.2       15 UNK         0.5000 
     88 O          -3.3061  -25.7969  -52.7522 O.2       15 UNK        -0.5000 
     89 N          -1.1249  -25.8409  -52.1804 N.am      16 UNK        -0.5000 
     90 CA         -0.5864  -26.3429  -53.4393 C.3       16 UNK         0.1400 
     91 CB          0.8141  -26.9168  -53.1733 C.3       16 UNK        -0.1800 
     92 C          -0.5194  -25.2463  -54.5169 C.2       16 UNK         0.5000 
     93 O          -0.4003  -24.0616  -54.1935 O.2       16 UNK        -0.5000 
     94 N          -0.5630  -25.6824  -55.7840 N.am      17 UNK        -0.5000 
     95 CA         -0.3218  -24.9094  -57.0115 C.3       17 UNK         0.1400 
     96 CB          1.1527  -24.4562  -57.0653 C.3       17 UNK        -0.1800 
     97 C          -1.2917  -23.7340  -57.2692 C.2       17 UNK         0.5000 
     98 O          -1.0025  -22.9010  -58.1299 O.2       17 UNK        -0.5000 
     99 N          -2.4180  -23.6871  -56.5391 N.am      18 UNK        -0.5000 
    100 CA        -3.4289  -22.6214  -56.5446 C.3       18 UNK         0.1400 
    101 CB        -4.2147  -22.6255  -57.8731 C.3       18 UNK        -0.1800 
    102 C         -2.8257  -21.2414  -56.1978 C.2       18 UNK         0.5000 
    103 O         -3.0720  -20.2566  -56.8971 O.2       18 UNK        -0.5000 
    104 N         -1.9978  -21.2142  -55.1450 N.am      19 UNK        -0.5000 
    105 CA        -1.2934  -20.0260  -54.6708 C.3       19 UNK         0.1400 
    106 CB        -0.2394  -20.4573  -53.6394 C.3       19 UNK        -0.1800 
    107 C         -2.2424  -18.9761  -54.0624 C.2       19 UNK         0.5000 
    108 O         -3.1263  -19.3325  -53.2811 O.2       19 UNK        -0.5000 
    109 N         -1.9945  -17.7014  -54.3972 N.am      20 UNK        -0.5000 
    110 CA        -2.6333  -16.4914  -53.8674 C.3       20 UNK         0.1400 
    111 CB        -2.0386  -16.1592  -52.4820 C.3       20 UNK        -0.1800 
    112 C         -4.1764  -16.5568  -53.8823 C.2       20 UNK         0.5000 
    113 O         -4.7655  -16.6901  -54.9566 O.2       20 UNK        -0.5000 
    114 N         -4.7994  -16.4769  -52.6980 N.am      21 UNK        -0.5000 
    115 CA        -6.2462  -16.5238  -52.4765 C.3       21 UNK         0.1400 
    116 CB        -6.5206  -16.2835  -50.9844 C.3       21 UNK        -0.1800 
    117 C         -6.9123  -17.8359  -52.9343 C.2       21 UNK         0.5000 
    118 O         -8.1034  -17.8265  -53.2486 O.2       21 UNK        -0.5000 
    119 N         -6.1371  -18.9252  -52.9812 N.am      22 UNK        -0.5000 
    120 CA        -6.5530  -20.2264  -53.5196 C.3       22 UNK         0.1400 
    121 C         -6.3659  -20.3526  -55.0600 C.2       22 UNK         0.5000 
    122 N         -5.8902  -19.3368  -55.7704 N.am      22 UNK        -0.7600 
    123 O         -6.6739  -21.3953  -55.6297 O.2       22 UNK        -0.5000 
    124 C124       -5.8746  -21.3938  -52.7609 C.3       23 UNK        -0.0398 
    125 S125       -6.4153  -21.4716  -51.0199 S.3       23 UNK        -0.2404 
    126 C126       -4.8389  -21.6905  -50.1400 C.3       23 UNK        -0.0205 
    127 H127        1.4872  -14.1457  -50.3796 H         1 UNK         0.0600 
    128 H128       -0.1272  -14.3352  -51.0571 H         1 UNK         0.0600 
    129 H129        0.8533  -15.7637  -50.6920 H         1 UNK         0.0600 
    130 H130       -1.8725  -14.5172  -49.6178 H         1 UNK         0.3000 
    131 H131       -1.4838  -15.2930  -46.8427 H         1 UNK         0.0600 
    132 H132       -4.1483  -14.1148  -47.4114 H         1 UNK         0.0800 
    133 H133       -3.7380  -15.2921  -48.6098 H         1 UNK         0.0800 
    134 H134       -5.6431  -16.8322  -48.0312 H         1 UNK         0.0800 
    135 H135       -5.5172  -18.0313  -46.7732 H         1 UNK         0.0800 
    136 H136       -5.8163  -19.7142  -48.5431 H         1 UNK         0.1150 
    137 H137       -2.3631  -20.7819  -50.8406 H         1 UNK         0.1150 
    138 H138       -2.3110  -17.2398  -48.4628 H         1 UNK         0.1150 
    139 H139       -0.7542  -18.6262  -51.2449 H         1 UNK         0.0800 
    140 H140       -0.4481  -17.6996  -49.7980 H         1 UNK         0.0800 
    141 H141       -0.4624  -19.1420  -47.4776 H         1 UNK         0.0800 
    142 H142        1.2548  -19.4130  -47.4497 H         1 UNK         0.0800 
    143 H143        0.7212  -21.9480  -47.7251 H         1 UNK         0.0600 
    144 H144        0.8023  -20.4105  -45.3365 H         1 UNK         0.3000 
    145 H145        1.0114  -23.2588  -43.1395 H         1 UNK         0.0600 
    146 H146        3.0333  -22.0173  -42.4774 H         1 UNK         0.0600 
    147 H147        3.2898  -22.7576  -44.0491 H         1 UNK         0.0600 
    148 H148        2.9593  -21.0334  -43.9376 H         1 UNK         0.0600 
    149 H149        0.9573  -20.4930  -42.5415 H         1 UNK         0.3000 
    150 H150       -2.6201  -20.1696  -42.2540 H         1 UNK         0.0600 
    151 H151       -1.7546  -21.1567  -40.1187 H         1 UNK         0.0600 
    152 H152       -1.9398  -19.4136  -40.0081 H         1 UNK         0.0600 
    153 H153       -0.3366  -20.1179  -40.2128 H         1 UNK         0.0600 
    154 H154       -0.5897  -18.2515  -41.8397 H         1 UNK         0.3000 
    155 H155       -0.4534  -16.9930  -45.2246 H         1 UNK         0.0600 
    156 H156       -1.3057  -15.9162  -42.4815 H         1 UNK         0.0600 
    157 H157       -2.2888  -15.8846  -43.9385 H         1 UNK         0.0600 
    158 H158       -0.8045  -14.9470  -43.8630 H         1 UNK         0.0600 
    159 H159        1.1123  -16.3014  -42.9745 H         1 UNK         0.3000 
    160 H160        3.7902  -18.6235  -43.4301 H         1 UNK         0.0600 
    161 H161        5.0013  -16.4539  -43.3723 H         1 UNK         0.0600 
    162 H162        3.5134  -15.5832  -43.7400 H         1 UNK         0.0600 
    163 H163        4.2102  -16.6775  -44.9251 H         1 UNK         0.0600 
    164 H164        3.1655  -16.5799  -41.4892 H         1 UNK         0.3000 
    165 H165        1.7025  -18.7696  -39.0755 H         1 UNK         0.0600 
    166 H166        3.5758  -17.8865  -37.7179 H         1 UNK         0.0600 
    167 H167        4.1720  -19.0843  -38.8556 H         1 UNK         0.0600 
    168 H168        4.4313  -17.3729  -39.1723 H         1 UNK         0.0600 
    169 H169        2.3795  -15.9883  -39.0192 H         1 UNK         0.3000 
    170 H170       -0.7128  -14.7579  -40.2928 H         1 UNK         0.0600 
    171 H171       -1.1465  -15.3206  -37.8918 H         1 UNK         0.0600 
    172 H172        0.4589  -14.7432  -37.4607 H         1 UNK         0.0600 
    173 H173       -0.7457  -13.6237  -38.0990 H         1 UNK         0.0600 
    174 H174        1.4023  -13.2674  -39.2969 H         1 UNK         0.3000 
    175 H175        2.4898  -11.9229  -40.8122 H         1 UNK         0.0600 
    176 H176        4.5501  -14.0906  -41.5317 H         1 UNK         0.0600 
    177 H177        4.9236  -12.4247  -41.0890 H         1 UNK         0.0600 
    178 H178        4.2100  -13.5085  -39.9064 H         1 UNK         0.0600 
    179 H179        3.6661  -12.6763  -43.3238 H         1 UNK         0.3000 
    180 H180        2.6213  -10.8828  -45.1984 H         1 UNK         0.0600 
    181 H181        2.0593  -13.9054  -45.4018 H         1 UNK         0.0600 
    182 H182        3.6480  -13.1488  -45.3064 H         1 UNK         0.0600 
    183 H183        2.6583  -12.9233  -46.7334 H         1 UNK         0.0600 
    184 H184       -0.1026  -11.9448  -45.1113 H         1 UNK         0.3000 
    185 H185       -1.6725  -10.5434  -46.3227 H         1 UNK         0.0600 
    186 H186       -1.0568   -8.8224  -48.0201 H         1 UNK         0.0600 
    187 H187       -0.7659  -10.0803  -49.2164 H         1 UNK         0.0600 
    188 H188       -2.3895   -9.8190  -48.5812 H         1 UNK         0.0600 
    189 H189       -1.3325  -12.3608  -48.6083 H         1 UNK         0.3000 
    190 H190       -1.9014  -20.7106  -45.6109 H         1 UNK         0.3000 
    191 H191       -4.0725  -21.6102  -47.1836 H         1 UNK         0.0600 
    192 H192       -3.8880  -21.2061  -44.1585 H         1 UNK         0.0600 
    193 H193       -5.3785  -21.3512  -45.0824 H         1 UNK         0.0600 
    194 H194       -4.3160  -19.9768  -45.3477 H         1 UNK         0.0600 
    195 H195       -2.1376  -23.3236  -44.7215 H         1 UNK         0.3000 
    196 H196       -3.6921  -25.7497  -44.7618 H         1 UNK         0.0600 
    197 H197       -2.2789  -25.1550  -42.8314 H         1 UNK         0.0600 
    198 H198       -0.8264  -25.1988  -43.8246 H         1 UNK         0.0600 
    199 H199       -1.7308  -26.6771  -43.5180 H         1 UNK         0.0600 
    200 H200       -0.4966  -24.8852  -46.2185 H         1 UNK         0.3000 
    201 H201       -0.5015  -27.2994  -47.9176 H         1 UNK         0.0600 
    202 H202        1.5631  -26.6252  -46.6915 H         1 UNK         0.0600 
    203 H203        1.5769  -25.0818  -47.5422 H         1 UNK         0.0600 
    204 H204        1.8028  -26.5823  -48.4318 H         1 UNK         0.0600 
    205 H205       -2.5919  -26.2395  -48.7835 H         1 UNK         0.3000 
    206 H206       -2.4856  -23.9892  -50.5241 H         1 UNK         0.0600 
    207 H207       -4.8617  -24.6290  -50.9660 H         1 UNK         0.0600 
    208 H208       -4.5981  -26.1861  -50.1922 H         1 UNK         0.0600 
    209 H209       -4.5012  -24.7009  -49.2498 H         1 UNK         0.0600 
    210 H210       -0.4533  -25.5678  -51.4681 H         1 UNK         0.3000 
    211 H211       -1.2316  -27.1486  -53.7960 H         1 UNK         0.0600 
    212 H212        1.4967  -26.1517  -52.8006 H         1 UNK         0.0600 
    213 H213        1.2500  -27.3305  -54.0836 H         1 UNK         0.0600 
    214 H214        0.7779  -27.7201  -52.4372 H         1 UNK         0.0600 
    215 H215       -0.6963  -26.6733  -55.9330 H         1 UNK         0.3000 
    216 H216       -0.4795  -25.6049  -57.8370 H         1 UNK         0.0600 
    217 H217        1.3980  -24.0208  -58.0346 H         1 UNK         0.0600 
    218 H218        1.8300  -25.2963  -56.9111 H         1 UNK         0.0600 
    219 H219        1.3713  -23.7052  -56.3054 H         1 UNK         0.0600 
    220 H220       -2.5521  -24.4166  -55.8535 H         1 UNK         0.3000 
    221 H221       -4.1333  -22.8557  -55.7451 H         1 UNK         0.0600 
    222 H222       -3.5827  -22.3641  -58.7221 H         1 UNK         0.0600 
    223 H223       -4.6522  -23.6044  -58.0686 H         1 UNK         0.0600 
    224 H224       -5.0334  -21.9060  -57.8435 H         1 UNK         0.0600 
    225 H225       -1.8121  -22.0742  -54.6471 H         1 UNK         0.3000 
    226 H226       -0.7749  -19.5841  -55.5243 H         1 UNK         0.0600 
    227 H227        0.3423  -19.6027  -53.2920 H         1 UNK         0.0600 
    228 H228       -0.6981  -20.9204  -52.7645 H         1 UNK         0.0600 
    229 H229        0.4615  -21.1749  -54.0667 H         1 UNK         0.0600 
    230 H230       -1.2712  -17.5298  -55.0810 H         1 UNK         0.3000 
    231 H231       -2.3599  -15.6809  -54.5445 H         1 UNK         0.0600 
    232 H232       -0.9503  -16.1297  -52.5267 H         1 UNK         0.0600 
    233 H233       -2.3180  -16.8968  -51.7311 H         1 UNK         0.0600 
    234 H234       -2.3741  -15.1817  -52.1338 H         1 UNK         0.0600 
    235 H235       -4.2279  -16.4079  -51.8696 H         1 UNK         0.3000 
    236 H236       -6.6956  -15.7092  -53.0478 H         1 UNK         0.0600 
    237 H237       -6.1007  -15.3354  -50.6482 H         1 UNK         0.0600 
    238 H238       -7.5923  -16.2543  -50.7833 H         1 UNK         0.0600 
    239 H239       -6.0946  -17.0792  -50.3731 H         1 UNK         0.0600 
    240 H240       -5.1529  -18.8451  -52.7503 H         1 UNK         0.3000 
    241 H241       -7.6282  -20.3325  -53.3639 H         1 UNK         0.0600 
    242 H242       -5.7550  -19.4510  -56.7616 H         1 UNK         0.3800 
    243 H243       -5.6016  -18.4708  -55.3287 H         1 UNK         0.3800 
    244 H244       -6.1253  -22.3538  -53.2153 H         1 UNK         0.0800 
    245 H245       -4.7892  -21.3049  -52.8178 H         1 UNK         0.0800 
    246 H246       -5.0312  -22.2665  -49.2347 H         1 UNK         0.0800 
    247 H247       -4.1663  -22.2968  -50.7458 H         1 UNK         0.0800 
@<TRIPOS>BOND
     1    1    2 1    
     2    1  127 1    
     3    1  128 1    
     4    1  129 1    
     5    2    3 2    
     6    2    4 am   BACKBONE|DICT|INTERRES
     7    4    5 1    
     8    4  130 1    
     9    5    6 1    
    10    5   65 1    
    11    5  131 1    
    12    6    7 1    
    13    6  132 1    
    14    6  133 1    
    15    7    8 1    
    16    8    9 1    
    17    8  134 1    
    18    8  135 1    
    19    9   10 ar   
    20    9   14 ar   
    21   10   11 ar   
    22   10  136 1    
    23   11   12 ar   
    24   11  126 1    
    25   12   13 ar   
    26   12  137 1    
    27   13   14 ar   
    28   13   15 1    
    29   14  138 1    
    30   15   16 1    
    31   15  139 1    
    32   15  140 1    
    33   16   17 1    
    34   17   18 1    
    35   17  141 1    
    36   17  142 1    
    37   18   19 1    
    38   18   67 1    
    39   18  143 1    
    40   19   20 am   BACKBONE|DICT|INTERRES
    41   19  144 1    
    42   20   21 2    
    43   20   22 1    
    44   22   23 1    
    45   22   24 1    
    46   22  145 1    
    47   23  146 1    
    48   23  147 1    
    49   23  148 1    
    50   24   25 am   BACKBONE|DICT|INTERRES
    51   24  149 1    
    52   25   26 2    
    53   25   27 1    
    54   27   28 1    
    55   27   29 1    
    56   27  150 1    
    57   28  151 1    
    58   28  152 1    
    59   28  153 1    
    60   29   30 am   BACKBONE|DICT|INTERRES
    61   29  154 1    
    62   30   31 2    
    63   30   32 1    
    64   32   33 1    
    65   32   34 1    
    66   32  155 1    
    67   33  156 1    
    68   33  157 1    
    69   33  158 1    
    70   34   35 am   BACKBONE|DICT|INTERRES
    71   34  159 1    
    72   35   36 2    
    73   35   37 1    
    74   37   38 1    
    75   37   39 1    
    76   37  160 1    
    77   38  161 1    
    78   38  162 1    
    79   38  163 1    
    80   39   40 am   BACKBONE|DICT|INTERRES
    81   39  164 1    
    82   40   41 2    
    83   40   42 1    
    84   42   43 1    
    85   42   44 1    
    86   42  165 1    
    87   43  166 1    
    88   43  167 1    
    89   43  168 1    
    90   44   45 am   BACKBONE|DICT|INTERRES
    91   44  169 1    
    92   45   46 2    
    93   45   47 1    
    94   47   48 1    
    95   47   49 1    
    96   47  170 1    
    97   48  171 1    
    98   48  172 1    
    99   48  173 1    
   100   49   50 am   BACKBONE|DICT|INTERRES
   101   49  174 1    
   102   50   51 2    
   103   50   52 1    
   104   52   53 1    
   105   52   54 1    
   106   52  175 1    
   107   53  176 1    
   108   53  177 1    
   109   53  178 1    
   110   54   55 am   BACKBONE|DICT|INTERRES
   111   54  179 1    
   112   55   56 2    
   113   55   57 1    
   114   57   58 1    
   115   57   59 1    
   116   57  180 1    
   117   58  181 1    
   118   58  182 1    
   119   58  183 1    
   120   59   60 am   BACKBONE|DICT|INTERRES
   121   59  184 1    
   122   60   61 2    
   123   60   62 1    
   124   62   63 1    
   125   62   64 1    
   126   62  185 1    
   127   63  186 1    
   128   63  187 1    
   129   63  188 1    
   130   64   65 am   BACKBONE|DICT|INTERRES
   131   64  189 1    
   132   65   66 2    
   133   67   68 2    
   134   67   69 am   BACKBONE|DICT|INTERRES
   135   69   70 1    
   136   69  190 1    
   137   70   71 1    
   138   70   72 1    
   139   70  191 1    
   140   71  192 1    
   141   71  193 1    
   142   71  194 1    
   143   72   73 2    
   144   72   74 am   BACKBONE|DICT|INTERRES
   145   74   75 1    
   146   74  195 1    
   147   75   76 1    
   148   75   77 1    
   149   75  196 1    
   150   76  197 1    
   151   76  198 1    
   152   76  199 1    
   153   77   78 2    
   154   77   79 am   BACKBONE|DICT|INTERRES
   155   79   80 1    
   156   79  200 1    
   157   80   81 1    
   158   80   82 1    
   159   80  201 1    
   160   81  202 1    
   161   81  203 1    
   162   81  204 1    
   163   82   83 2    
   164   82   84 am   BACKBONE|DICT|INTERRES
   165   84   85 1    
   166   84  205 1    
   167   85   86 1    
   168   85   87 1    
   169   85  206 1    
   170   86  207 1    
   171   86  208 1    
   172   86  209 1    
   173   87   88 2    
   174   87   89 am   BACKBONE|DICT|INTERRES
   175   89   90 1    
   176   89  210 1    
   177   90   91 1    
   178   90   92 1    
   179   90  211 1    
   180   91  212 1    
   181   91  213 1    
   182   91  214 1    
   183   92   93 2    
   184   92   94 am   BACKBONE|DICT|INTERRES
   185   94   95 1    
   186   94  215 1    
   187   95   96 1    
   188   95   97 1    
   189   95  216 1    
   190   96  217 1    
   191   96  218 1    
   192   96  219 1    
   193   97   98 2    
   194   97   99 am   BACKBONE|DICT|INTERRES
   195   99  100 1    
   196   99  220 1    
   197  100  101 1    
   198  100  102 1    
   199  100  221 1    
   200  101  222 1    
   201  101  223 1    
   202  101  224 1    
   203  102  103 2    
   204  102  104 am   BACKBONE|DICT|INTERRES
   205  104  105 1    
   206  104  225 1    
   207  105  106 1    
   208  105  107 1    
   209  105  226 1    
   210  106  227 1    
   211  106  228 1    
   212  106  229 1    
   213  107  108 2    
   214  107  109 am   BACKBONE|DICT|INTERRES
   215  109  110 1    
   216  109  230 1    
   217  110  111 1    
   218  110  112 1    
   219  110  231 1    
   220  111  232 1    
   221  111  233 1    
   222  111  234 1    
   223  112  113 2    
   224  112  114 am   BACKBONE|DICT|INTERRES
   225  114  115 1    
   226  114  235 1    
   227  115  116 1    
   228  115  117 1    
   229  115  236 1    
   230  116  237 1    
   231  116  238 1    
   232  116  239 1    
   233  117  118 2    
   234  117  119 am   BACKBONE|DICT|INTERRES
   235  119  120 1    
   236  119  240 1    
   237  120  121 1    
   238  120  124 1    
   239  120  241 1    
   240  121  122 am   BACKBONE|DICT|INTERRES
   241  121  123 2    
   242  122  242 1    
   243  122  243 1    
   244  124  125 1    
   245  124  244 1    
   246  124  245 1    
   247  125  126 1    
   248  126  246 1    
   249  126  247 1    
@<TRIPOS>SUBSTRUCTURE
     1 UNK         1 GROUP             0       ****    0 ROOT    
