@<TRIPOS>MOLECULE
3R540
247   249    1
SMALL
USER_CHARGES


@<TRIPOS>ATOM
      1 CA         -2.7247   -9.2821  -44.5203 C.3       0 UNK        -0.1800 
      2 C          -1.9830  -10.4442  -45.1653 C.2       0 UNK         0.5000 
      3 O          -0.9778  -10.2291  -45.8410 O.2       0 UNK        -0.5000 
      4 N          -2.4767  -11.6716  -44.9594 N.am      1 UNK        -0.5000 
      5 CA         -1.8948  -12.9109  -45.4958 C.3       1 UNK         0.1400 
      6 C6         -2.9419  -14.0491  -45.6083 C.3       23 UNK        -0.0398 
      7 S7         -4.4448  -13.5567  -46.5234 S.3       23 UNK        -0.2404 
      8 C8         -4.0448  -14.0746  -48.2294 C.3       23 UNK        -0.0205 
      9 C9         -3.9983  -15.5830  -48.4827 C.ar      23 UNK        -0.0193 
     10 C10        -3.3596  -16.0414  -49.6394 C.ar      23 UNK        -0.1150 
     11 C11        -3.2829  -17.4080  -49.9245 C.ar      23 UNK        -0.0193 
     12 C12        -3.8419  -18.3270  -49.0341 C.ar      23 UNK        -0.1150 
     13 C13        -4.5007  -17.8872  -47.8843 C.ar      23 UNK        -0.0193 
     14 C14        -4.5848  -16.5177  -47.6187 C.ar      23 UNK        -0.1150 
     15 C15        -5.0986  -18.8919  -46.9150 C.3       23 UNK        -0.0205 
     16 S16        -3.9965  -19.0982  -45.4903 S.3       23 UNK        -0.2404 
     17 C17        -4.6347  -20.6165  -44.7181 C.3       23 UNK        -0.0398 
     18 CA         -3.9953  -21.8971  -45.3061 C.3       11 UNK         0.1400 
     19 N          -2.5258  -21.8476  -45.3384 N.am      11 UNK        -0.5000 
     20 C          -1.7284  -22.7567  -45.9184 C.2       10 UNK         0.5000 
     21 O          -2.1510  -23.7821  -46.4548 O.2       10 UNK        -0.5000 
     22 CA         -0.2144  -22.4914  -45.9094 C.3       10 UNK         0.1400 
     23 CB          0.2470  -21.9885  -47.2859 C.3       10 UNK        -0.1800 
     24 N           0.1818  -21.5248  -44.8853 N.am      10 UNK        -0.5000 
     25 C           0.4236  -21.8377  -43.6045 C.2       9 UNK         0.5000 
     26 O           0.3103  -22.9773  -43.1519 O.2       9 UNK        -0.5000 
     27 CA          0.8680  -20.6969  -42.6670 C.3       9 UNK         0.1400 
     28 CB          2.4006  -20.6490  -42.5726 C.3       9 UNK        -0.1800 
     29 N           0.3819  -19.3802  -43.0782 N.am      9 UNK        -0.5000 
     30 C          -0.8950  -18.9817  -43.0059 C.2       8 UNK         0.5000 
     31 O          -1.8020  -19.6784  -42.5497 O.2       8 UNK        -0.5000 
     32 CA         -1.2149  -17.5784  -43.5610 C.3       8 UNK         0.1400 
     33 CB         -1.1038  -16.5309  -42.4440 C.3       8 UNK        -0.1800 
     34 N          -0.3887  -17.1592  -44.7004 N.am      8 UNK        -0.5000 
     35 C          -0.1850  -17.8492  -45.8346 C.2       7 UNK         0.5000 
     36 O          -0.6324  -18.9749  -46.0450 O.2       7 UNK        -0.5000 
     37 CA          0.7090  -17.1926  -46.8988 C.3       7 UNK         0.1400 
     38 CB         -0.1414  -16.4499  -47.9388 C.3       7 UNK        -0.1800 
     39 N           1.6744  -16.2639  -46.3156 N.am      7 UNK        -0.5000 
     40 C           2.8030  -16.6179  -45.6900 C.2       6 UNK         0.5000 
     41 O           3.1451  -17.7917  -45.5371 O.2       6 UNK        -0.5000 
     42 CA          3.6820  -15.4817  -45.1159 C.3       6 UNK         0.1400 
     43 CB          5.1860  -15.8084  -45.2154 C.3       6 UNK        -0.1800 
     44 N           3.4190  -14.1446  -45.6672 N.am      6 UNK        -0.5000 
     45 C           3.5111  -13.7459  -46.9458 C.2       5 UNK         0.5000 
     46 O           3.7764  -14.4897  -47.8903 O.2       5 UNK        -0.5000 
     47 CA          3.2945  -12.2441  -47.2024 C.3       5 UNK         0.1400 
     48 CB          1.7992  -11.9049  -47.2832 C.3       5 UNK        -0.1800 
     49 N           3.9369  -11.4207  -46.1753 N.am      5 UNK        -0.5000 
     50 C           5.2610  -11.2109  -46.1184 C.2       4 UNK         0.5000 
     51 O           6.0530  -11.6329  -46.9625 O.2       4 UNK        -0.5000 
     52 CA          5.8066  -10.3948  -44.9305 C.3       4 UNK         0.1400 
     53 CB          5.9745   -8.9194  -45.3253 C.3       4 UNK        -0.1800 
     54 N           4.9847  -10.4713  -43.7226 N.am      4 UNK        -0.5000 
     55 C           4.8019  -11.5702  -42.9787 C.2       3 UNK         0.5000 
     56 O           5.2923  -12.6676  -43.2470 O.2       3 UNK        -0.5000 
     57 CA          3.9172  -11.4353  -41.7220 C.3       3 UNK         0.1400 
     58 CB          3.5250   -9.9808  -41.3733 C.3       3 UNK        -0.1800 
     59 N           2.7194  -12.2770  -41.7985 N.am      3 UNK        -0.5000 
     60 C           1.7704  -12.2459  -42.7449 C.2       2 UNK         0.5000 
     61 O           1.8301  -11.5284  -43.7466 O.2       2 UNK        -0.5000 
     62 CA          0.5624  -13.1798  -42.5218 C.3       2 UNK         0.1400 
     63 CB          0.0140  -13.0869  -41.0852 C.3       2 UNK        -0.1800 
     64 N          -0.5311  -12.8755  -43.4424 N.am      2 UNK        -0.5000 
     65 C          -0.6806  -13.3892  -44.6689 C.2       1 UNK         0.5000 
     66 O           0.0795  -14.2327  -45.1434 O.2       1 UNK        -0.5000 
     67 C          -4.5302  -23.1425  -44.5724 C.2       11 UNK         0.5000 
     68 O          -5.5408  -23.7077  -44.9908 O.2       11 UNK        -0.5000 
     69 N          -3.8014  -23.5876  -43.5385 N.am      12 UNK        -0.5000 
     70 CA         -4.0611  -24.8164  -42.7831 C.3       12 UNK         0.1400 
     71 CB         -3.1258  -24.8500  -41.5648 C.3       12 UNK        -0.1800 
     72 C          -3.9021  -26.1041  -43.6195 C.2       12 UNK         0.5000 
     73 O          -4.4651  -27.1360  -43.2534 O.2       12 UNK        -0.5000 
     74 N          -3.1590  -26.0139  -44.7296 N.am      13 UNK        -0.5000 
     75 CA         -2.9444  -27.0741  -45.7104 C.3       13 UNK         0.1400 
     76 CB         -1.4297  -27.2146  -45.9468 C.3       13 UNK        -0.1800 
     77 C          -3.7041  -26.7858  -47.0218 C.2       13 UNK         0.5000 
     78 O          -3.3299  -27.3278  -48.0610 O.2       13 UNK        -0.5000 
     79 N          -4.7371  -25.9282  -46.9699 N.am      14 UNK        -0.5000 
     80 CA         -5.5825  -25.4948  -48.0899 C.3       14 UNK         0.1400 
     81 CB         -6.4230  -26.6711  -48.6303 C.3       14 UNK        -0.1800 
     82 C          -4.7734  -24.7763  -49.1891 C.2       14 UNK         0.5000 
     83 O          -4.8481  -25.1442  -50.3629 O.2       14 UNK        -0.5000 
     84 N          -3.9724  -23.7888  -48.7630 N.am      15 UNK        -0.5000 
     85 CA         -3.0128  -23.0205  -49.5649 C.3       15 UNK         0.1400 
     86 CB         -3.7299  -22.1633  -50.6287 C.3       15 UNK        -0.1800 
     87 C          -1.9144  -23.9306  -50.1493 C.2       15 UNK         0.5000 
     88 O          -1.5839  -23.8226  -51.3308 O.2       15 UNK        -0.5000 
     89 N          -1.4078  -24.8398  -49.3007 N.am      16 UNK        -0.5000 
     90 CA         -0.4409  -25.9005  -49.6082 C.3       16 UNK         0.1400 
     91 CB          0.9587  -25.2998  -49.8499 C.3       16 UNK        -0.1800 
     92 C          -0.9232  -26.8198  -50.7518 C.2       16 UNK         0.5000 
     93 O          -0.1959  -27.0465  -51.7195 O.2       16 UNK        -0.5000 
     94 N          -2.1655  -27.3053  -50.6139 N.am      17 UNK        -0.5000 
     95 CA         -2.9339  -28.0908  -51.5830 C.3       17 UNK         0.1400 
     96 CB         -2.3158  -29.4928  -51.7649 C.3       17 UNK        -0.1800 
     97 C          -3.1441  -27.3345  -52.9118 C.2       17 UNK         0.5000 
     98 O          -2.9081  -27.8907  -53.9864 O.2       17 UNK        -0.5000 
     99 N          -3.5818  -26.0714  -52.7966 N.am      18 UNK        -0.5000 
    100 CA        -3.8237  -25.1073  -53.8736 C.3       18 UNK         0.1400 
    101 CB        -5.0640  -25.5165  -54.6943 C.3       18 UNK        -0.1800 
    102 C         -2.5740  -24.8562  -54.7442 C.2       18 UNK         0.5000 
    103 O         -2.6305  -24.9816  -55.9695 O.2       18 UNK        -0.5000 
    104 N         -1.4580  -24.5078  -54.0891 N.am      19 UNK        -0.5000 
    105 CA        -0.1757  -24.1978  -54.7294 C.3       19 UNK         0.1400 
    106 CB         0.9298  -24.1813  -53.6635 C.3       19 UNK        -0.1800 
    107 C         -0.1836  -22.8667  -55.5072 C.2       19 UNK         0.5000 
    108 O          0.6590  -22.6727  -56.3849 O.2       19 UNK        -0.5000 
    109 N         -1.1297  -21.9823  -55.1784 N.am      20 UNK        -0.5000 
    110 CA        -1.3907  -20.7156  -55.8468 C.3       20 UNK         0.1400 
    111 CB        -0.7152  -19.5801  -55.0588 C.3       20 UNK        -0.1800 
    112 C         -2.9094  -20.5065  -55.9198 C.2       20 UNK         0.5000 
    113 O         -3.6539  -21.1246  -55.1529 O.2       20 UNK        -0.5000 
    114 N         -3.3384  -19.6223  -56.8291 N.am      21 UNK        -0.5000 
    115 CA        -4.7343  -19.1967  -56.9682 C.3       21 UNK         0.1400 
    116 CB        -4.9274  -18.5528  -58.3500 C.3       21 UNK        -0.1800 
    117 C         -5.1722  -18.2251  -55.8536 C.2       21 UNK         0.5000 
    118 O         -6.3610  -18.1639  -55.5388 O.2       21 UNK        -0.5000 
    119 N         -4.2028  -17.4935  -55.2841 N.am      22 UNK        -0.5000 
    120 CA        -4.3506  -16.5588  -54.1523 C.3       22 UNK         0.1400 
    121 C         -5.1727  -15.2693  -54.4639 C.2       22 UNK         0.5000 
    122 N         -5.4152  -14.9268  -55.7233 N.am      22 UNK        -0.7600 
    123 O         -5.5698  -14.5445  -53.5554 O.2       22 UNK        -0.5000 
    124 C124       -4.8113  -17.2562  -52.8405 C.3       23 UNK        -0.0398 
    125 S125       -3.7462  -18.6639  -52.3631 S.3       23 UNK        -0.2404 
    126 C126       -2.5871  -17.8935  -51.1877 C.3       23 UNK        -0.0205 
    127 H127       -3.0633   -8.5830  -45.2849 H         1 UNK         0.0600 
    128 H128       -2.0637   -8.7485  -43.8373 H         1 UNK         0.0600 
    129 H129       -3.5959   -9.6185  -43.9577 H         1 UNK         0.0600 
    130 H130       -3.3261  -11.7830  -44.4238 H         1 UNK         0.3000 
    131 H131       -1.5243  -12.7065  -46.5027 H         1 UNK         0.0600 
    132 H132       -3.2578  -14.3738  -44.6151 H         1 UNK         0.0800 
    133 H133       -2.5072  -14.9300  -46.0834 H         1 UNK         0.0800 
    134 H134       -3.0892  -13.6272  -48.5077 H         1 UNK         0.0800 
    135 H135       -4.7915  -13.6438  -48.8975 H         1 UNK         0.0800 
    136 H136       -2.9189  -15.3287  -50.3225 H         1 UNK         0.1150 
    137 H137       -3.7683  -19.3845  -49.2430 H         1 UNK         0.1150 
    138 H138       -5.0968  -16.1946  -46.7244 H         1 UNK         0.1150 
    139 H139       -6.0789  -18.5531  -46.5768 H         1 UNK         0.0800 
    140 H140       -5.2496  -19.8528  -47.4092 H         1 UNK         0.0800 
    141 H141       -5.7211  -20.6398  -44.8229 H         1 UNK         0.0800 
    142 H142       -4.4309  -20.5457  -43.6479 H         1 UNK         0.0800 
    143 H143       -4.3254  -21.9786  -46.3434 H         1 UNK         0.0600 
    144 H144       -2.1023  -21.0138  -44.9538 H         1 UNK         0.3000 
    145 H145        0.2851  -23.4431  -45.7161 H         1 UNK         0.0600 
    146 H146       -0.2818  -21.0839  -47.5876 H         1 UNK         0.0600 
    147 H147        1.3149  -21.7701  -47.2894 H         1 UNK         0.0600 
    148 H148        0.0701  -22.7398  -48.0547 H         1 UNK         0.0600 
    149 H149        0.2111  -20.5527  -45.1764 H         1 UNK         0.3000 
    150 H150        0.4707  -20.9137  -41.6731 H         1 UNK         0.0600 
    151 H151        2.8033  -21.6101  -42.2501 H         1 UNK         0.0600 
    152 H152        2.7284  -19.9017  -41.8496 H         1 UNK         0.0600 
    153 H153        2.8553  -20.4077  -43.5346 H         1 UNK         0.0600 
    154 H154        1.0586  -18.7520  -43.4868 H         1 UNK         0.3000 
    155 H155       -2.2501  -17.5871  -43.8988 H         1 UNK         0.0600 
    156 H156       -1.6933  -16.8217  -41.5733 H         1 UNK         0.0600 
    157 H157       -1.4800  -15.5635  -42.7733 H         1 UNK         0.0600 
    158 H158       -0.0727  -16.4025  -42.1135 H         1 UNK         0.0600 
    159 H159       -0.0006  -16.2237  -44.6586 H         1 UNK         0.3000 
    160 H160        1.2535  -17.9885  -47.4114 H         1 UNK         0.0600 
    161 H161        0.4785  -16.0439  -48.7382 H         1 UNK         0.0600 
    162 H162       -0.6982  -15.6247  -47.4950 H         1 UNK         0.0600 
    163 H163       -0.8635  -17.1254  -48.3978 H         1 UNK         0.0600 
    164 H164        1.4080  -15.2862  -46.3024 H         1 UNK         0.3000 
    165 H165        3.4300  -15.4193  -44.0564 H         1 UNK         0.0600 
    166 H166        5.5015  -15.9428  -46.2505 H         1 UNK         0.0600 
    167 H167        5.7912  -15.0122  -44.7817 H         1 UNK         0.0600 
    168 H168        5.4278  -16.7256  -44.6772 H         1 UNK         0.0600 
    169 H169        3.1948  -13.4338  -44.9853 H         1 UNK         0.3000 
    170 H170        3.7393  -12.0065  -48.1713 H         1 UNK         0.0600 
    171 H171        1.3030  -12.0424  -46.3241 H         1 UNK         0.0600 
    172 H172        1.6463  -10.8694  -47.5872 H         1 UNK         0.0600 
    173 H173        1.2896  -12.5377  -48.0110 H         1 UNK         0.0600 
    174 H174        3.3473  -11.0686  -45.4308 H         1 UNK         0.3000 
    175 H175        6.7930  -10.7958  -44.6876 H         1 UNK         0.0600 
    176 H176        5.0157   -8.4534  -45.5561 H         1 UNK         0.0600 
    177 H177        6.4434   -8.3468  -44.5247 H         1 UNK         0.0600 
    178 H178        6.6085   -8.8202  -46.2075 H         1 UNK         0.0600 
    179 H179        4.5217   -9.6203  -43.4386 H         1 UNK         0.3000 
    180 H180        4.5135  -11.8200  -40.8933 H         1 UNK         0.0600 
    181 H181        2.9015   -9.5236  -42.1425 H         1 UNK         0.0600 
    182 H182        4.4077   -9.3542  -41.2393 H         1 UNK         0.0600 
    183 H183        2.9666   -9.9452  -40.4377 H         1 UNK         0.0600 
    184 H184        2.6069  -12.9278  -41.0343 H         1 UNK         0.3000 
    185 H185        0.9069  -14.2013  -42.6930 H         1 UNK         0.0600 
    186 H186       -0.8784  -13.7017  -40.9648 H         1 UNK         0.0600 
    187 H187        0.7395  -13.4408  -40.3524 H         1 UNK         0.0600 
    188 H188       -0.2506  -12.0620  -40.8215 H         1 UNK         0.0600 
    189 H189       -1.1694  -12.1487  -43.1559 H         1 UNK         0.3000 
    190 H190       -2.9741  -23.0684  -43.2805 H         1 UNK         0.3000 
    191 H191       -5.0926  -24.7824  -42.4266 H         1 UNK         0.0600 
    192 H192       -2.0766  -24.8579  -41.8642 H         1 UNK         0.0600 
    193 H193       -3.2846  -23.9847  -40.9210 H         1 UNK         0.0600 
    194 H194       -3.3019  -25.7403  -40.9596 H         1 UNK         0.0600 
    195 H195       -2.7637  -25.1149  -44.9784 H         1 UNK         0.3000 
    196 H196       -3.3184  -28.0275  -45.3327 H         1 UNK         0.0600 
    197 H197       -0.9090  -27.4452  -45.0173 H         1 UNK         0.0600 
    198 H198       -0.9986  -26.2978  -46.3497 H         1 UNK         0.0600 
    199 H199       -1.2093  -28.0216  -46.6465 H         1 UNK         0.0600 
    200 H200       -4.9560  -25.5020  -46.0774 H         1 UNK         0.3000 
    201 H201       -6.2751  -24.7551  -47.6858 H         1 UNK         0.0600 
    202 H202       -7.1302  -26.3283  -49.3864 H         1 UNK         0.0600 
    203 H203       -7.0012  -27.1400  -47.8343 H         1 UNK         0.0600 
    204 H204       -5.8022  -27.4399  -49.0913 H         1 UNK         0.0600 
    205 H205       -3.8974  -23.6517  -47.7641 H         1 UNK         0.3000 
    206 H206       -2.5118  -22.3346  -48.8810 H         1 UNK         0.0600 
    207 H207       -4.4946  -21.5318  -50.1771 H         1 UNK         0.0600 
    208 H208       -4.2115  -22.7741  -51.3916 H         1 UNK         0.0600 
    209 H209       -3.0247  -21.5052  -51.1378 H         1 UNK         0.0600 
    210 H210       -1.7635  -24.8311  -48.3526 H         1 UNK         0.3000 
    211 H211       -0.3762  -26.5323  -48.7221 H         1 UNK         0.0600 
    212 H212        1.2985  -24.7356  -48.9817 H         1 UNK         0.0600 
    213 H213        1.6952  -26.0826  -50.0344 H         1 UNK         0.0600 
    214 H214        0.9701  -24.6295  -50.7086 H         1 UNK         0.0600 
    215 H215       -2.6561  -27.1062  -49.7437 H         1 UNK         0.3000 
    216 H216       -3.9252  -28.2229  -51.1467 H         1 UNK         0.0600 
    217 H217       -2.9495  -30.1190  -52.3939 H         1 UNK         0.0600 
    218 H218       -1.3330  -29.4468  -52.2348 H         1 UNK         0.0600 
    219 H219       -2.2064  -30.0013  -50.8071 H         1 UNK         0.0600 
    220 H220       -3.7861  -25.7266  -51.8618 H         1 UNK         0.3000 
    221 H221       -4.0522  -24.1575  -53.3887 H         1 UNK         0.0600 
    222 H222       -4.9066  -26.4531  -55.2300 H         1 UNK         0.0600 
    223 H223       -5.9364  -25.6395  -54.0525 H         1 UNK         0.0600 
    224 H224       -5.3105  -24.7533  -55.4335 H         1 UNK         0.0600 
    225 H225       -1.4933  -24.4030  -53.0760 H         1 UNK         0.3000 
    226 H226        0.0498  -24.9934  -55.4422 H         1 UNK         0.0600 
    227 H227        1.0124  -25.1479  -53.1679 H         1 UNK         0.0600 
    228 H228        1.9016  -23.9632  -54.1081 H         1 UNK         0.0600 
    229 H229        0.7397  -23.4253  -52.9007 H         1 UNK         0.0600 
    230 H230       -1.8232  -22.2442  -54.4898 H         1 UNK         0.3000 
    231 H231       -0.9992  -20.7402  -56.8660 H         1 UNK         0.0600 
    232 H232       -0.8766  -18.6149  -55.5397 H         1 UNK         0.0600 
    233 H233        0.3622  -19.7333  -54.9940 H         1 UNK         0.0600 
    234 H234       -1.1043  -19.5108  -54.0419 H         1 UNK         0.0600 
    235 H235       -2.6672  -19.1731  -57.4357 H         1 UNK         0.3000 
    236 H236       -5.3766  -20.0782  -56.9104 H         1 UNK         0.0600 
    237 H237       -4.6854  -19.2542  -59.1487 H         1 UNK         0.0600 
    238 H238       -5.9632  -18.2427  -58.4948 H         1 UNK         0.0600 
    239 H239       -4.2995  -17.6699  -58.4760 H         1 UNK         0.0600 
    240 H240       -3.2617  -17.6144  -55.6256 H         1 UNK         0.3000 
    241 H241       -3.3432  -16.1854  -53.9660 H         1 UNK         0.0600 
    242 H242       -5.0902  -15.5028  -56.4829 H         1 UNK         0.3800 
    243 H243       -5.9370  -14.0864  -55.9176 H         1 UNK         0.3800 
    244 H244       -4.8467  -16.5424  -52.0175 H         1 UNK         0.0800 
    245 H245       -5.8311  -17.6273  -52.9482 H         1 UNK         0.0800 
    246 H246       -1.8260  -18.6255  -50.9142 H         1 UNK         0.0800 
    247 H247       -2.0618  -17.0767  -51.6850 H         1 UNK         0.0800 
@<TRIPOS>BOND
     1    1    2 1    
     2    1  127 1    
     3    1  128 1    
     4    1  129 1    
     5    2    3 2    
     6    2    4 am   BACKBONE|DICT|INTERRES
     7    4    5 1    
     8    4  130 1    
     9    5    6 1    
    10    5   65 1    
    11    5  131 1    
    12    6    7 1    
    13    6  132 1    
    14    6  133 1    
    15    7    8 1    
    16    8    9 1    
    17    8  134 1    
    18    8  135 1    
    19    9   10 ar   
    20    9   14 ar   
    21   10   11 ar   
    22   10  136 1    
    23   11   12 ar   
    24   11  126 1    
    25   12   13 ar   
    26   12  137 1    
    27   13   14 ar   
    28   13   15 1    
    29   14  138 1    
    30   15   16 1    
    31   15  139 1    
    32   15  140 1    
    33   16   17 1    
    34   17   18 1    
    35   17  141 1    
    36   17  142 1    
    37   18   19 1    
    38   18   67 1    
    39   18  143 1    
    40   19   20 am   BACKBONE|DICT|INTERRES
    41   19  144 1    
    42   20   21 2    
    43   20   22 1    
    44   22   23 1    
    45   22   24 1    
    46   22  145 1    
    47   23  146 1    
    48   23  147 1    
    49   23  148 1    
    50   24   25 am   BACKBONE|DICT|INTERRES
    51   24  149 1    
    52   25   26 2    
    53   25   27 1    
    54   27   28 1    
    55   27   29 1    
    56   27  150 1    
    57   28  151 1    
    58   28  152 1    
    59   28  153 1    
    60   29   30 am   BACKBONE|DICT|INTERRES
    61   29  154 1    
    62   30   31 2    
    63   30   32 1    
    64   32   33 1    
    65   32   34 1    
    66   32  155 1    
    67   33  156 1    
    68   33  157 1    
    69   33  158 1    
    70   34   35 am   BACKBONE|DICT|INTERRES
    71   34  159 1    
    72   35   36 2    
    73   35   37 1    
    74   37   38 1    
    75   37   39 1    
    76   37  160 1    
    77   38  161 1    
    78   38  162 1    
    79   38  163 1    
    80   39   40 am   BACKBONE|DICT|INTERRES
    81   39  164 1    
    82   40   41 2    
    83   40   42 1    
    84   42   43 1    
    85   42   44 1    
    86   42  165 1    
    87   43  166 1    
    88   43  167 1    
    89   43  168 1    
    90   44   45 am   BACKBONE|DICT|INTERRES
    91   44  169 1    
    92   45   46 2    
    93   45   47 1    
    94   47   48 1    
    95   47   49 1    
    96   47  170 1    
    97   48  171 1    
    98   48  172 1    
    99   48  173 1    
   100   49   50 am   BACKBONE|DICT|INTERRES
   101   49  174 1    
   102   50   51 2    
   103   50   52 1    
   104   52   53 1    
   105   52   54 1    
   106   52  175 1    
   107   53  176 1    
   108   53  177 1    
   109   53  178 1    
   110   54   55 am   BACKBONE|DICT|INTERRES
   111   54  179 1    
   112   55   56 2    
   113   55   57 1    
   114   57   58 1    
   115   57   59 1    
   116   57  180 1    
   117   58  181 1    
   118   58  182 1    
   119   58  183 1    
   120   59   60 am   BACKBONE|DICT|INTERRES
   121   59  184 1    
   122   60   61 2    
   123   60   62 1    
   124   62   63 1    
   125   62   64 1    
   126   62  185 1    
   127   63  186 1    
   128   63  187 1    
   129   63  188 1    
   130   64   65 am   BACKBONE|DICT|INTERRES
   131   64  189 1    
   132   65   66 2    
   133   67   68 2    
   134   67   69 am   BACKBONE|DICT|INTERRES
   135   69   70 1    
   136   69  190 1    
   137   70   71 1    
   138   70   72 1    
   139   70  191 1    
   140   71  192 1    
   141   71  193 1    
   142   71  194 1    
   143   72   73 2    
   144   72   74 am   BACKBONE|DICT|INTERRES
   145   74   75 1    
   146   74  195 1    
   147   75   76 1    
   148   75   77 1    
   149   75  196 1    
   150   76  197 1    
   151   76  198 1    
   152   76  199 1    
   153   77   78 2    
   154   77   79 am   BACKBONE|DICT|INTERRES
   155   79   80 1    
   156   79  200 1    
   157   80   81 1    
   158   80   82 1    
   159   80  201 1    
   160   81  202 1    
   161   81  203 1    
   162   81  204 1    
   163   82   83 2    
   164   82   84 am   BACKBONE|DICT|INTERRES
   165   84   85 1    
   166   84  205 1    
   167   85   86 1    
   168   85   87 1    
   169   85  206 1    
   170   86  207 1    
   171   86  208 1    
   172   86  209 1    
   173   87   88 2    
   174   87   89 am   BACKBONE|DICT|INTERRES
   175   89   90 1    
   176   89  210 1    
   177   90   91 1    
   178   90   92 1    
   179   90  211 1    
   180   91  212 1    
   181   91  213 1    
   182   91  214 1    
   183   92   93 2    
   184   92   94 am   BACKBONE|DICT|INTERRES
   185   94   95 1    
   186   94  215 1    
   187   95   96 1    
   188   95   97 1    
   189   95  216 1    
   190   96  217 1    
   191   96  218 1    
   192   96  219 1    
   193   97   98 2    
   194   97   99 am   BACKBONE|DICT|INTERRES
   195   99  100 1    
   196   99  220 1    
   197  100  101 1    
   198  100  102 1    
   199  100  221 1    
   200  101  222 1    
   201  101  223 1    
   202  101  224 1    
   203  102  103 2    
   204  102  104 am   BACKBONE|DICT|INTERRES
   205  104  105 1    
   206  104  225 1    
   207  105  106 1    
   208  105  107 1    
   209  105  226 1    
   210  106  227 1    
   211  106  228 1    
   212  106  229 1    
   213  107  108 2    
   214  107  109 am   BACKBONE|DICT|INTERRES
   215  109  110 1    
   216  109  230 1    
   217  110  111 1    
   218  110  112 1    
   219  110  231 1    
   220  111  232 1    
   221  111  233 1    
   222  111  234 1    
   223  112  113 2    
   224  112  114 am   BACKBONE|DICT|INTERRES
   225  114  115 1    
   226  114  235 1    
   227  115  116 1    
   228  115  117 1    
   229  115  236 1    
   230  116  237 1    
   231  116  238 1    
   232  116  239 1    
   233  117  118 2    
   234  117  119 am   BACKBONE|DICT|INTERRES
   235  119  120 1    
   236  119  240 1    
   237  120  121 1    
   238  120  124 1    
   239  120  241 1    
   240  121  122 am   BACKBONE|DICT|INTERRES
   241  121  123 2    
   242  122  242 1    
   243  122  243 1    
   244  124  125 1    
   245  124  244 1    
   246  124  245 1    
   247  125  126 1    
   248  126  246 1    
   249  126  247 1    
@<TRIPOS>SUBSTRUCTURE
     1 UNK         1 GROUP             0       ****    0 ROOT    
