@<TRIPOS>MOLECULE
3R540
247   249    1
SMALL
USER_CHARGES


@<TRIPOS>ATOM
      1 CA          3.7895   -8.7585  -49.6105 C.3       0 UNK        -0.1800 
      2 C           3.6951   -9.8631  -48.5683 C.2       0 UNK         0.5000 
      3 O           3.3899   -9.5852  -47.4086 O.2       0 UNK        -0.5000 
      4 N           3.9406  -11.1162  -48.9786 N.am      1 UNK        -0.5000 
      5 CA          3.9189  -12.3150  -48.1260 C.3       1 UNK         0.1400 
      6 C6          4.3891  -13.5711  -48.9039 C.3       23 UNK        -0.0398 
      7 S7          5.1607  -14.8540  -47.8534 S.3       23 UNK        -0.2404 
      8 C8          3.7787  -15.9564  -47.3983 C.3       23 UNK        -0.0205 
      9 C9          3.0711  -16.5634  -48.5985 C.ar      23 UNK        -0.0193 
     10 C10         1.8781  -16.0062  -49.0681 C.ar      23 UNK        -0.1150 
     11 C11         1.2119  -16.5720  -50.1571 C.ar      23 UNK        -0.0193 
     12 C12         1.7502  -17.7022  -50.7782 C.ar      23 UNK        -0.1150 
     13 C13         2.9197  -18.2929  -50.2938 C.ar      23 UNK        -0.0193 
     14 C14         3.5831  -17.7109  -49.2097 C.ar      23 UNK        -0.1150 
     15 C15         3.4419  -19.5834  -50.9131 C.3       23 UNK        -0.0205 
     16 S16         2.2663  -20.9707  -50.7360 S.3       23 UNK        -0.2404 
     17 C17         1.8328  -20.8582  -48.9665 C.3       23 UNK        -0.0398 
     18 CA          1.3273  -22.1839  -48.3468 C.3       11 UNK         0.1400 
     19 N           1.2094  -22.0508  -46.9008 N.am      11 UNK        -0.5000 
     20 C           1.6495  -22.9281  -45.9924 C.2       10 UNK         0.5000 
     21 O           2.3039  -23.9316  -46.2762 O.2       10 UNK        -0.5000 
     22 CA          1.3008  -22.6536  -44.5111 C.3       10 UNK         0.1400 
     23 CB          2.5655  -22.3092  -43.7096 C.3       10 UNK        -0.1800 
     24 N           0.3001  -21.6002  -44.3064 N.am      10 UNK        -0.5000 
     25 C          -0.9739  -21.6656  -44.7164 C.2       9 UNK         0.5000 
     26 O          -1.4487  -22.6393  -45.2992 O.2       9 UNK        -0.5000 
     27 CA         -1.8331  -20.4019  -44.5324 C.3       9 UNK         0.1400 
     28 CB         -2.3676  -20.3072  -43.0966 C.3       9 UNK        -0.1800 
     29 N          -1.1116  -19.1760  -44.8836 N.am      9 UNK        -0.5000 
     30 C          -0.6377  -18.8969  -46.1074 C.2       8 UNK         0.5000 
     31 O          -0.8067  -19.6305  -47.0802 O.2       8 UNK        -0.5000 
     32 CA          0.2274  -17.6338  -46.2601 C.3       8 UNK         0.1400 
     33 CB         -0.6338  -16.3664  -46.3459 C.3       8 UNK        -0.1800 
     34 N           1.1950  -17.4971  -45.1739 N.am      8 UNK        -0.5000 
     35 C           2.2129  -18.3403  -44.9520 C.2       7 UNK         0.5000 
     36 O           2.5034  -19.2760  -45.6962 O.2       7 UNK        -0.5000 
     37 CA          3.0129  -18.1260  -43.6553 C.3       7 UNK         0.1400 
     38 CB          4.1427  -17.1062  -43.8605 C.3       7 UNK        -0.1800 
     39 N           2.1533  -17.6918  -42.5536 N.am      7 UNK        -0.5000 
     40 C           1.2852  -18.4896  -41.9166 C.2       6 UNK         0.5000 
     41 O           1.1386  -19.6834  -42.1779 O.2       6 UNK        -0.5000 
     42 CA          0.4100  -17.8355  -40.8309 C.3       6 UNK         0.1400 
     43 CB          1.1724  -17.7486  -39.5004 C.3       6 UNK        -0.1800 
     44 N          -0.0592  -16.5014  -41.2095 N.am      6 UNK        -0.5000 
     45 C          -0.9288  -16.2626  -42.2010 C.2       5 UNK         0.5000 
     46 O          -1.4521  -17.1484  -42.8748 O.2       5 UNK        -0.5000 
     47 CA         -1.2315  -14.7879  -42.5287 C.3       5 UNK         0.1400 
     48 CB         -2.3936  -14.2724  -41.6675 C.3       5 UNK        -0.1800 
     49 N          -0.0862  -13.8840  -42.3852 N.am      5 UNK        -0.5000 
     50 C           1.0947  -14.0236  -43.0016 C.2       4 UNK         0.5000 
     51 O           1.3864  -14.9885  -43.7096 O.2       4 UNK        -0.5000 
     52 CA          2.0870  -12.8653  -42.8225 C.3       4 UNK         0.1400 
     53 CB          3.5455  -13.2951  -43.0615 C.3       4 UNK        -0.1800 
     54 N           1.7310  -11.8182  -43.7729 N.am      4 UNK        -0.5000 
     55 C           0.8890  -10.8059  -43.5226 C.2       3 UNK         0.5000 
     56 O           0.4027  -10.5874  -42.4120 O.2       3 UNK        -0.5000 
     57 CA          0.5014   -9.8967  -44.7077 C.3       3 UNK         0.1400 
     58 CB          1.3983   -8.6505  -44.7447 C.3       3 UNK        -0.1800 
     59 N           0.5728  -10.5793  -46.0010 N.am      3 UNK        -0.5000 
     60 C          -0.2579  -11.5595  -46.3889 C.2       2 UNK         0.5000 
     61 O          -1.2437  -11.9089  -45.7389 O.2       2 UNK        -0.5000 
     62 CA          0.0691  -12.2956  -47.7071 C.3       2 UNK         0.1400 
     63 CB         -0.8580  -11.8209  -48.8359 C.3       2 UNK        -0.1800 
     64 N           1.4595  -12.1748  -48.1576 N.am      2 UNK        -0.5000 
     65 C           2.5442  -12.5517  -47.4637 C.2       1 UNK         0.5000 
     66 O           2.4898  -13.0195  -46.3290 O.2       1 UNK        -0.5000 
     67 C          -0.0296  -22.6449  -48.9217 C.2       11 UNK         0.5000 
     68 O          -0.1153  -23.7423  -49.4736 O.2       11 UNK        -0.5000 
     69 N          -1.0640  -21.8033  -48.7881 N.am      12 UNK        -0.5000 
     70 CA         -2.3435  -21.9537  -49.4777 C.3       12 UNK         0.1400 
     71 CB         -3.0106  -20.5761  -49.6010 C.3       12 UNK        -0.1800 
     72 C          -3.2971  -22.9478  -48.8012 C.2       12 UNK         0.5000 
     73 O          -3.8635  -23.8030  -49.4822 O.2       12 UNK        -0.5000 
     74 N          -3.4863  -22.8136  -47.4820 N.am      13 UNK        -0.5000 
     75 CA         -4.4022  -23.6591  -46.7091 C.3       13 UNK         0.1400 
     76 CB         -4.7721  -22.9751  -45.3841 C.3       13 UNK        -0.1800 
     77 C          -3.8235  -25.0647  -46.4767 C.2       13 UNK         0.5000 
     78 O          -4.5788  -26.0352  -46.4448 O.2       13 UNK        -0.5000 
     79 N          -2.4894  -25.1605  -46.3943 N.am      14 UNK        -0.5000 
     80 CA         -1.7301  -26.4127  -46.3563 C.3       14 UNK         0.1400 
     81 CB         -0.2524  -26.0904  -46.1063 C.3       14 UNK        -0.1800 
     82 C          -1.8826  -27.2640  -47.6342 C.2       14 UNK         0.5000 
     83 O          -1.7568  -28.4866  -47.5639 O.2       14 UNK        -0.5000 
     84 N          -2.1887  -26.6134  -48.7662 N.am      15 UNK        -0.5000 
     85 CA         -2.5238  -27.2522  -50.0407 C.3       15 UNK         0.1400 
     86 CB         -2.1568  -26.2973  -51.1892 C.3       15 UNK        -0.1800 
     87 C          -4.0056  -27.6816  -50.1262 C.2       15 UNK         0.5000 
     88 O          -4.4266  -28.1695  -51.1753 O.2       15 UNK        -0.5000 
     89 N          -4.7786  -27.4740  -49.0482 N.am      16 UNK        -0.5000 
     90 CA         -6.1910  -27.8110  -48.8228 C.3       16 UNK         0.1400 
     91 CB         -6.4456  -29.3202  -48.9989 C.3       16 UNK        -0.1800 
     92 C          -7.2004  -26.9773  -49.6346 C.2       16 UNK         0.5000 
     93 O          -8.2970  -26.7184  -49.1374 O.2       16 UNK        -0.5000 
     94 N          -6.8295  -26.5723  -50.8543 N.am      17 UNK        -0.5000 
     95 CA         -7.6594  -25.7933  -51.7712 C.3       17 UNK         0.1400 
     96 CB         -6.9992  -25.7831  -53.1584 C.3       17 UNK        -0.1800 
     97 C          -7.9327  -24.3576  -51.2858 C.2       17 UNK         0.5000 
     98 O          -9.0499  -23.8702  -51.4675 O.2       17 UNK        -0.5000 
     99 N          -6.9160  -23.7198  -50.6810 N.am      18 UNK        -0.5000 
    100 CA        -6.8972  -22.3205  -50.2338 C.3       18 UNK         0.1400 
    101 CB        -7.8727  -22.1164  -49.0546 C.3       18 UNK        -0.1800 
    102 C         -7.1153  -21.3133  -51.3883 C.2       18 UNK         0.5000 
    103 O         -7.0078  -21.6883  -52.5590 O.2       18 UNK        -0.5000 
    104 N         -7.3798  -20.0442  -51.0396 N.am      19 UNK        -0.5000 
    105 CA        -7.6929  -18.9207  -51.9330 C.3       19 UNK         0.1400 
    106 CB        -9.1376  -19.0606  -52.4622 C.3       19 UNK        -0.1800 
    107 C         -6.6431  -18.7349  -53.0498 C.2       19 UNK         0.5000 
    108 O         -5.5562  -18.2222  -52.7800 O.2       19 UNK        -0.5000 
    109 N         -6.9640  -19.1992  -54.2660 N.am      20 UNK        -0.5000 
    110 CA        -6.0976  -19.2084  -55.4473 C.3       20 UNK         0.1400 
    111 CB        -6.8933  -19.7562  -56.6414 C.3       20 UNK        -0.1800 
    112 C         -4.7832  -19.9965  -55.2698 C.2       20 UNK         0.5000 
    113 O         -3.8188  -19.7178  -55.9839 O.2       20 UNK        -0.5000 
    114 N         -4.7363  -20.9226  -54.2989 N.am      21 UNK        -0.5000 
    115 CA        -3.5375  -21.6678  -53.9005 C.3       21 UNK         0.1400 
    116 CB        -3.9229  -22.7416  -52.8729 C.3       21 UNK        -0.1800 
    117 C         -2.3896  -20.7843  -53.3634 C.2       21 UNK         0.5000 
    118 O         -1.2479  -21.2438  -53.3438 O.2       21 UNK        -0.5000 
    119 N         -2.6917  -19.5359  -52.9728 N.am      22 UNK        -0.5000 
    120 CA        -1.6900  -18.4923  -52.6937 C.3       22 UNK         0.1400 
    121 C         -0.9504  -17.9693  -53.9666 C.2       22 UNK         0.5000 
    122 N         -1.4087  -18.2498  -55.1819 N.am      22 UNK        -0.7600 
    123 O          0.0687  -17.2965  -53.8544 O.2       22 UNK        -0.5000 
    124 C124       -2.2909  -17.3176  -51.8609 C.3       23 UNK        -0.0398 
    125 S125       -1.4904  -17.0876  -50.2367 S.3       23 UNK        -0.2404 
    126 C126       -0.1016  -15.9840  -50.6456 C.3       23 UNK        -0.0205 
    127 H127        4.5424   -8.0280  -49.3147 H         1 UNK         0.0600 
    128 H128        4.0603   -9.1481  -50.5921 H         1 UNK         0.0600 
    129 H129        2.8320   -8.2453  -49.7002 H         1 UNK         0.0600 
    130 H130        4.1817  -11.2710  -49.9474 H         1 UNK         0.3000 
    131 H131        4.6313  -12.1247  -47.3203 H         1 UNK         0.0600 
    132 H132        5.1674  -13.2828  -49.6117 H         1 UNK         0.0800 
    133 H133        3.5950  -13.9880  -49.5225 H         1 UNK         0.0800 
    134 H134        3.0671  -15.4361  -46.7583 H         1 UNK         0.0800 
    135 H135        4.1812  -16.7636  -46.7870 H         1 UNK         0.0800 
    136 H136        1.4622  -15.1387  -48.5768 H         1 UNK         0.1150 
    137 H137        1.2353  -18.1521  -51.6140 H         1 UNK         0.1150 
    138 H138        4.4891  -18.1593  -48.8268 H         1 UNK         0.1150 
    139 H139        3.6407  -19.4181  -51.9727 H         1 UNK         0.0800 
    140 H140        4.3931  -19.8702  -50.4621 H         1 UNK         0.0800 
    141 H141        1.1060  -20.0549  -48.8392 H         1 UNK         0.0800 
    142 H142        2.7240  -20.5360  -48.4252 H         1 UNK         0.0800 
    143 H143        2.0618  -22.9564  -48.5843 H         1 UNK         0.0600 
    144 H144        0.6851  -21.2509  -46.5725 H         1 UNK         0.3000 
    145 H145        0.8885  -23.5787  -44.1044 H         1 UNK         0.0600 
    146 H146        2.3401  -22.1785  -42.6511 H         1 UNK         0.0600 
    147 H147        3.3074  -23.1049  -43.7865 H         1 UNK         0.0600 
    148 H148        3.0310  -21.3926  -44.0704 H         1 UNK         0.0600 
    149 H149        0.6091  -20.7769  -43.7994 H         1 UNK         0.3000 
    150 H150       -2.6894  -20.4839  -45.2048 H         1 UNK         0.0600 
    151 H151       -2.9165  -21.2093  -42.8233 H         1 UNK         0.0600 
    152 H152       -3.0515  -19.4655  -42.9867 H         1 UNK         0.0600 
    153 H153       -1.5624  -20.1798  -42.3730 H         1 UNK         0.0600 
    154 H154       -0.9878  -18.4942  -44.1398 H         1 UNK         0.3000 
    155 H155        0.7842  -17.7334  -47.1928 H         1 UNK         0.0600 
    156 H156       -1.2646  -16.2455  -45.4659 H         1 UNK         0.0600 
    157 H157       -1.2883  -16.3995  -47.2173 H         1 UNK         0.0600 
    158 H158       -0.0114  -15.4763  -46.4354 H         1 UNK         0.0600 
    159 H159        1.0768  -16.7077  -44.5450 H         1 UNK         0.3000 
    160 H160        3.4678  -19.0790  -43.3779 H         1 UNK         0.0600 
    161 H161        4.6881  -16.9271  -42.9339 H         1 UNK         0.0600 
    162 H162        3.7649  -16.1484  -44.2182 H         1 UNK         0.0600 
    163 H163        4.8632  -17.4701  -44.5935 H         1 UNK         0.0600 
    164 H164        2.1522  -16.7034  -42.3452 H         1 UNK         0.3000 
    165 H165       -0.4640  -18.4729  -40.6808 H         1 UNK         0.0600 
    166 H166        0.5351  -17.3607  -38.7056 H         1 UNK         0.0600 
    167 H167        1.5197  -18.7336  -39.1854 H         1 UNK         0.0600 
    168 H168        2.0467  -17.1010  -39.5767 H         1 UNK         0.0600 
    169 H169        0.3273  -15.7163  -40.7067 H         1 UNK         0.3000 
    170 H170       -1.5422  -14.7450  -43.5743 H         1 UNK         0.0600 
    171 H171       -3.2710  -14.9125  -41.7711 H         1 UNK         0.0600 
    172 H172       -2.1296  -14.2450  -40.6096 H         1 UNK         0.0600 
    173 H173       -2.6902  -13.2669  -41.9666 H         1 UNK         0.0600 
    174 H174       -0.2474  -13.0393  -41.8539 H         1 UNK         0.3000 
    175 H175        2.0118  -12.4958  -41.7977 H         1 UNK         0.0600 
    176 H176        3.7037  -13.6638  -44.0751 H         1 UNK         0.0600 
    177 H177        4.2303  -12.4625  -42.9013 H         1 UNK         0.0600 
    178 H178        3.8339  -14.0916  -42.3748 H         1 UNK         0.0600 
    179 H179        2.0181  -11.9940  -44.7317 H         1 UNK         0.3000 
    180 H180       -0.5289   -9.5703  -44.5516 H         1 UNK         0.0600 
    181 H181        2.4473   -8.9149  -44.8842 H         1 UNK         0.0600 
    182 H182        1.3230   -8.0877  -43.8133 H         1 UNK         0.0600 
    183 H183        1.1109   -7.9798  -45.5546 H         1 UNK         0.0600 
    184 H184        1.3696  -10.3566  -46.5847 H         1 UNK         0.3000 
    185 H185       -0.1245  -13.3554  -47.5343 H         1 UNK         0.0600 
    186 H186       -1.9061  -11.9290  -48.5537 H         1 UNK         0.0600 
    187 H187       -0.6895  -10.7709  -49.0781 H         1 UNK         0.0600 
    188 H188       -0.7071  -12.4049  -49.7440 H         1 UNK         0.0600 
    189 H189        1.6005  -11.7616  -49.0679 H         1 UNK         0.3000 
    190 H190       -0.9398  -20.9432  -48.2550 H         1 UNK         0.3000 
    191 H191       -2.1449  -22.3188  -50.4874 H         1 UNK         0.0600 
    192 H192       -3.2303  -20.1400  -48.6256 H         1 UNK         0.0600 
    193 H193       -3.9458  -20.6320  -50.1583 H         1 UNK         0.0600 
    194 H194       -2.3605  -19.8836  -50.1316 H         1 UNK         0.0600 
    195 H195       -2.9255  -22.1505  -46.9656 H         1 UNK         0.3000 
    196 H196       -5.3234  -23.7758  -47.2849 H         1 UNK         0.0600 
    197 H197       -5.5535  -23.5351  -44.8692 H         1 UNK         0.0600 
    198 H198       -5.1522  -21.9672  -45.5510 H         1 UNK         0.0600 
    199 H199       -3.9250  -22.9083  -44.7032 H         1 UNK         0.0600 
    200 H200       -1.9584  -24.2972  -46.3418 H         1 UNK         0.3000 
    201 H201       -2.1018  -27.0043  -45.5173 H         1 UNK         0.0600 
    202 H202       -0.1214  -25.5373  -45.1767 H         1 UNK         0.0600 
    203 H203        0.1648  -25.4940  -46.9186 H         1 UNK         0.0600 
    204 H204        0.3416  -27.0019  -46.0291 H         1 UNK         0.0600 
    205 H205       -2.2742  -25.6064  -48.7386 H         1 UNK         0.3000 
    206 H206       -1.9207  -28.1553  -50.1528 H         1 UNK         0.0600 
    207 H207       -1.1174  -25.9755  -51.1199 H         1 UNK         0.0600 
    208 H208       -2.2808  -26.7835  -52.1576 H         1 UNK         0.0600 
    209 H209       -2.7830  -25.4063  -51.1914 H         1 UNK         0.0600 
    210 H210       -4.3464  -27.0158  -48.2544 H         1 UNK         0.3000 
    211 H211       -6.3791  -27.5751  -47.7744 H         1 UNK         0.0600 
    212 H212       -6.3192  -29.6390  -50.0338 H         1 UNK         0.0600 
    213 H213       -7.4633  -29.5783  -48.7035 H         1 UNK         0.0600 
    214 H214       -5.7687  -29.9091  -48.3799 H         1 UNK         0.0600 
    215 H215       -5.9299  -26.8926  -51.1967 H         1 UNK         0.3000 
    216 H216       -8.6238  -26.2978  -51.8609 H         1 UNK         0.0600 
    217 H217       -7.5744  -25.1807  -53.8630 H         1 UNK         0.0600 
    218 H218       -6.9329  -26.7906  -53.5694 H         1 UNK         0.0600 
    219 H219       -5.9905  -25.3720  -53.1199 H         1 UNK         0.0600 
    220 H220       -6.0375  -24.2119  -50.5860 H         1 UNK         0.3000 
    221 H221       -5.8920  -22.1343  -49.8613 H         1 UNK         0.0600 
    222 H222       -8.9134  -22.1482  -49.3787 H         1 UNK         0.0600 
    223 H223       -7.7368  -22.8883  -48.2967 H         1 UNK         0.0600 
    224 H224       -7.7100  -21.1578  -48.5616 H         1 UNK         0.0600 
    225 H225       -7.4007  -19.8212  -50.0549 H         1 UNK         0.3000 
    226 H226       -7.6519  -18.0156  -51.3252 H         1 UNK         0.0600 
    227 H227       -9.8534  -19.0404  -51.6403 H         1 UNK         0.0600 
    228 H228       -9.3950  -18.2376  -53.1304 H         1 UNK         0.0600 
    229 H229       -9.2919  -19.9939  -53.0049 H         1 UNK         0.0600 
    230 H230       -7.8604  -19.6518  -54.3705 H         1 UNK         0.3000 
    231 H231       -5.8254  -18.1731  -55.6616 H         1 UNK         0.0600 
    232 H232       -7.7783  -19.1507  -56.8381 H         1 UNK         0.0600 
    233 H233       -7.2188  -20.7829  -56.4691 H         1 UNK         0.0600 
    234 H234       -6.2897  -19.7509  -57.5501 H         1 UNK         0.0600 
    235 H235       -5.5801  -21.1041  -53.7616 H         1 UNK         0.3000 
    236 H236       -3.1603  -22.1746  -54.7910 H         1 UNK         0.0600 
    237 H237       -3.0666  -23.3676  -52.6200 H         1 UNK         0.0600 
    238 H238       -4.2902  -22.2988  -51.9485 H         1 UNK         0.0600 
    239 H239       -4.7009  -23.3968  -53.2623 H         1 UNK         0.0600 
    240 H240       -3.6570  -19.2300  -53.0124 H         1 UNK         0.3000 
    241 H241       -0.9152  -18.9741  -52.0947 H         1 UNK         0.0600 
    242 H242       -0.9068  -17.9020  -55.9832 H         1 UNK         0.3800 
    243 H243       -2.2474  -18.8037  -55.3256 H         1 UNK         0.3800 
    244 H244       -2.2811  -16.3695  -52.4021 H         1 UNK         0.0800 
    245 H245       -3.3441  -17.4986  -51.6484 H         1 UNK         0.0800 
    246 H246       -0.0394  -15.8096  -51.7193 H         1 UNK         0.0800 
    247 H247       -0.2831  -15.0095  -50.1901 H         1 UNK         0.0800 
@<TRIPOS>BOND
     1    1    2 1    
     2    1  127 1    
     3    1  128 1    
     4    1  129 1    
     5    2    3 2    
     6    2    4 am   BACKBONE|DICT|INTERRES
     7    4    5 1    
     8    4  130 1    
     9    5    6 1    
    10    5   65 1    
    11    5  131 1    
    12    6    7 1    
    13    6  132 1    
    14    6  133 1    
    15    7    8 1    
    16    8    9 1    
    17    8  134 1    
    18    8  135 1    
    19    9   10 ar   
    20    9   14 ar   
    21   10   11 ar   
    22   10  136 1    
    23   11   12 ar   
    24   11  126 1    
    25   12   13 ar   
    26   12  137 1    
    27   13   14 ar   
    28   13   15 1    
    29   14  138 1    
    30   15   16 1    
    31   15  139 1    
    32   15  140 1    
    33   16   17 1    
    34   17   18 1    
    35   17  141 1    
    36   17  142 1    
    37   18   19 1    
    38   18   67 1    
    39   18  143 1    
    40   19   20 am   BACKBONE|DICT|INTERRES
    41   19  144 1    
    42   20   21 2    
    43   20   22 1    
    44   22   23 1    
    45   22   24 1    
    46   22  145 1    
    47   23  146 1    
    48   23  147 1    
    49   23  148 1    
    50   24   25 am   BACKBONE|DICT|INTERRES
    51   24  149 1    
    52   25   26 2    
    53   25   27 1    
    54   27   28 1    
    55   27   29 1    
    56   27  150 1    
    57   28  151 1    
    58   28  152 1    
    59   28  153 1    
    60   29   30 am   BACKBONE|DICT|INTERRES
    61   29  154 1    
    62   30   31 2    
    63   30   32 1    
    64   32   33 1    
    65   32   34 1    
    66   32  155 1    
    67   33  156 1    
    68   33  157 1    
    69   33  158 1    
    70   34   35 am   BACKBONE|DICT|INTERRES
    71   34  159 1    
    72   35   36 2    
    73   35   37 1    
    74   37   38 1    
    75   37   39 1    
    76   37  160 1    
    77   38  161 1    
    78   38  162 1    
    79   38  163 1    
    80   39   40 am   BACKBONE|DICT|INTERRES
    81   39  164 1    
    82   40   41 2    
    83   40   42 1    
    84   42   43 1    
    85   42   44 1    
    86   42  165 1    
    87   43  166 1    
    88   43  167 1    
    89   43  168 1    
    90   44   45 am   BACKBONE|DICT|INTERRES
    91   44  169 1    
    92   45   46 2    
    93   45   47 1    
    94   47   48 1    
    95   47   49 1    
    96   47  170 1    
    97   48  171 1    
    98   48  172 1    
    99   48  173 1    
   100   49   50 am   BACKBONE|DICT|INTERRES
   101   49  174 1    
   102   50   51 2    
   103   50   52 1    
   104   52   53 1    
   105   52   54 1    
   106   52  175 1    
   107   53  176 1    
   108   53  177 1    
   109   53  178 1    
   110   54   55 am   BACKBONE|DICT|INTERRES
   111   54  179 1    
   112   55   56 2    
   113   55   57 1    
   114   57   58 1    
   115   57   59 1    
   116   57  180 1    
   117   58  181 1    
   118   58  182 1    
   119   58  183 1    
   120   59   60 am   BACKBONE|DICT|INTERRES
   121   59  184 1    
   122   60   61 2    
   123   60   62 1    
   124   62   63 1    
   125   62   64 1    
   126   62  185 1    
   127   63  186 1    
   128   63  187 1    
   129   63  188 1    
   130   64   65 am   BACKBONE|DICT|INTERRES
   131   64  189 1    
   132   65   66 2    
   133   67   68 2    
   134   67   69 am   BACKBONE|DICT|INTERRES
   135   69   70 1    
   136   69  190 1    
   137   70   71 1    
   138   70   72 1    
   139   70  191 1    
   140   71  192 1    
   141   71  193 1    
   142   71  194 1    
   143   72   73 2    
   144   72   74 am   BACKBONE|DICT|INTERRES
   145   74   75 1    
   146   74  195 1    
   147   75   76 1    
   148   75   77 1    
   149   75  196 1    
   150   76  197 1    
   151   76  198 1    
   152   76  199 1    
   153   77   78 2    
   154   77   79 am   BACKBONE|DICT|INTERRES
   155   79   80 1    
   156   79  200 1    
   157   80   81 1    
   158   80   82 1    
   159   80  201 1    
   160   81  202 1    
   161   81  203 1    
   162   81  204 1    
   163   82   83 2    
   164   82   84 am   BACKBONE|DICT|INTERRES
   165   84   85 1    
   166   84  205 1    
   167   85   86 1    
   168   85   87 1    
   169   85  206 1    
   170   86  207 1    
   171   86  208 1    
   172   86  209 1    
   173   87   88 2    
   174   87   89 am   BACKBONE|DICT|INTERRES
   175   89   90 1    
   176   89  210 1    
   177   90   91 1    
   178   90   92 1    
   179   90  211 1    
   180   91  212 1    
   181   91  213 1    
   182   91  214 1    
   183   92   93 2    
   184   92   94 am   BACKBONE|DICT|INTERRES
   185   94   95 1    
   186   94  215 1    
   187   95   96 1    
   188   95   97 1    
   189   95  216 1    
   190   96  217 1    
   191   96  218 1    
   192   96  219 1    
   193   97   98 2    
   194   97   99 am   BACKBONE|DICT|INTERRES
   195   99  100 1    
   196   99  220 1    
   197  100  101 1    
   198  100  102 1    
   199  100  221 1    
   200  101  222 1    
   201  101  223 1    
   202  101  224 1    
   203  102  103 2    
   204  102  104 am   BACKBONE|DICT|INTERRES
   205  104  105 1    
   206  104  225 1    
   207  105  106 1    
   208  105  107 1    
   209  105  226 1    
   210  106  227 1    
   211  106  228 1    
   212  106  229 1    
   213  107  108 2    
   214  107  109 am   BACKBONE|DICT|INTERRES
   215  109  110 1    
   216  109  230 1    
   217  110  111 1    
   218  110  112 1    
   219  110  231 1    
   220  111  232 1    
   221  111  233 1    
   222  111  234 1    
   223  112  113 2    
   224  112  114 am   BACKBONE|DICT|INTERRES
   225  114  115 1    
   226  114  235 1    
   227  115  116 1    
   228  115  117 1    
   229  115  236 1    
   230  116  237 1    
   231  116  238 1    
   232  116  239 1    
   233  117  118 2    
   234  117  119 am   BACKBONE|DICT|INTERRES
   235  119  120 1    
   236  119  240 1    
   237  120  121 1    
   238  120  124 1    
   239  120  241 1    
   240  121  122 am   BACKBONE|DICT|INTERRES
   241  121  123 2    
   242  122  242 1    
   243  122  243 1    
   244  124  125 1    
   245  124  244 1    
   246  124  245 1    
   247  125  126 1    
   248  126  246 1    
   249  126  247 1    
@<TRIPOS>SUBSTRUCTURE
     1 UNK         1 GROUP             0       ****    0 ROOT    
