@<TRIPOS>MOLECULE
3R540
247   249    1
SMALL
USER_CHARGES


@<TRIPOS>ATOM
      1 CA         -1.0966  -18.1869  -49.3502 C.3       0 UNK        -0.1800 
      2 C          -0.6868  -17.3471  -48.1561 C.2       0 UNK         0.5000 
      3 O          -1.5202  -16.6336  -47.6041 O.2       0 UNK        -0.5000 
      4 N           0.5774  -17.4540  -47.7320 N.am      1 UNK        -0.5000 
      5 CA          1.1815  -16.6604  -46.6555 C.3       1 UNK         0.1400 
      6 C6          2.6819  -16.9839  -46.4820 C.3       23 UNK        -0.0398 
      7 S7          3.6644  -16.4118  -47.9084 S.3       23 UNK        -0.2404 
      8 C8          4.2329  -17.9649  -48.6753 C.3       23 UNK        -0.0205 
      9 C9          3.2297  -18.5618  -49.6563 C.ar      23 UNK        -0.0193 
     10 C10         2.8410  -17.8427  -50.7911 C.ar      23 UNK        -0.1150 
     11 C11         1.9903  -18.4162  -51.7398 C.ar      23 UNK        -0.0193 
     12 C12         1.5339  -19.7223  -51.5512 C.ar      23 UNK        -0.1150 
     13 C13         1.9068  -20.4581  -50.4225 C.ar      23 UNK        -0.0193 
     14 C14         2.7472  -19.8618  -49.4733 C.ar      23 UNK        -0.1150 
     15 C15         1.3596  -21.8753  -50.2542 C.3       23 UNK        -0.0205 
     16 S16         2.4771  -23.0354  -49.3932 S.3       23 UNK        -0.2404 
     17 C17         1.5315  -24.6005  -49.5163 C.3       23 UNK        -0.0398 
     18 CA          0.7565  -25.0027  -48.2340 C.3       11 UNK         0.1400 
     19 N           1.6173  -25.0318  -47.0456 N.am      11 UNK        -0.5000 
     20 C           1.2543  -25.5123  -45.8482 C.2       10 UNK         0.5000 
     21 O           0.1475  -25.9948  -45.6143 O.2       10 UNK        -0.5000 
     22 CA          2.2787  -25.3803  -44.7081 C.3       10 UNK         0.1400 
     23 CB          3.2695  -26.5535  -44.7332 C.3       10 UNK        -0.1800 
     24 N           3.0175  -24.1153  -44.7421 N.am      10 UNK        -0.5000 
     25 C           2.4631  -22.9104  -44.5611 C.2       9 UNK         0.5000 
     26 O           1.2557  -22.7248  -44.3877 O.2       9 UNK        -0.5000 
     27 CA          3.4061  -21.7047  -44.6198 C.3       9 UNK         0.1400 
     28 CB          3.4593  -21.1433  -46.0500 C.3       9 UNK        -0.1800 
     29 N           2.9131  -20.6951  -43.6902 N.am      9 UNK        -0.5000 
     30 C           3.5898  -19.6206  -43.2759 C.2       8 UNK         0.5000 
     31 O           4.7256  -19.3287  -43.6599 O.2       8 UNK        -0.5000 
     32 CA          2.8860  -18.7222  -42.2510 C.3       8 UNK         0.1400 
     33 CB          3.0994  -19.2338  -40.8165 C.3       8 UNK        -0.1800 
     34 N           3.4168  -17.3725  -42.3867 N.am      8 UNK        -0.5000 
     35 C           2.7583  -16.2451  -42.1056 C.2       7 UNK         0.5000 
     36 O           1.6291  -16.2232  -41.6122 O.2       7 UNK        -0.5000 
     37 CA          3.4462  -14.9152  -42.4576 C.3       7 UNK         0.1400 
     38 CB          4.7925  -15.0637  -43.2052 C.3       7 UNK        -0.1800 
     39 N           2.4955  -14.1371  -43.2419 N.am      7 UNK        -0.5000 
     40 C           2.5468  -12.8215  -43.4785 C.2       6 UNK         0.5000 
     41 O           3.4540  -12.0844  -43.0907 O.2       6 UNK        -0.5000 
     42 CA          1.3695  -12.2272  -44.2715 C.3       6 UNK         0.1400 
     43 CB          1.6388  -12.3127  -45.7819 C.3       6 UNK        -0.1800 
     44 N           0.1185  -12.9209  -43.9744 N.am      6 UNK        -0.5000 
     45 C          -0.6297  -12.7269  -42.8813 C.2       5 UNK         0.5000 
     46 O          -0.3833  -11.8714  -42.0291 O.2       5 UNK        -0.5000 
     47 CA         -1.8505  -13.6589  -42.7247 C.3       5 UNK         0.1400 
     48 CB         -2.9199  -13.1060  -41.7601 C.3       5 UNK        -0.1800 
     49 N          -2.4464  -14.0378  -44.0107 N.am      5 UNK        -0.5000 
     50 C          -3.0158  -13.2358  -44.9249 C.2       4 UNK         0.5000 
     51 O          -3.1643  -12.0220  -44.7802 O.2       4 UNK        -0.5000 
     52 CA         -3.4791  -13.8972  -46.2394 C.3       4 UNK         0.1400 
     53 CB         -2.5370  -13.5084  -47.3902 C.3       4 UNK        -0.1800 
     54 N          -3.5286  -15.3570  -46.1525 N.am      4 UNK        -0.5000 
     55 C          -4.4942  -16.0607  -45.5483 C.2       3 UNK         0.5000 
     56 O          -5.5119  -15.5595  -45.0697 O.2       3 UNK        -0.5000 
     57 CA         -4.2526  -17.5743  -45.4144 C.3       3 UNK         0.1400 
     58 CB         -4.6473  -18.3237  -46.6971 C.3       3 UNK        -0.1800 
     59 N          -2.8613  -17.8869  -45.0849 N.am      3 UNK        -0.5000 
     60 C          -2.2960  -17.7000  -43.8846 C.2       2 UNK         0.5000 
     61 O          -2.8743  -17.1874  -42.9275 O.2       2 UNK        -0.5000 
     62 CA         -0.8391  -18.1712  -43.7274 C.3       2 UNK         0.1400 
     63 CB         -0.8187  -19.6617  -43.3458 C.3       2 UNK        -0.1800 
     64 N          -0.0442  -17.9517  -44.9416 N.am      2 UNK        -0.5000 
     65 C           0.4415  -16.7547  -45.3032 C.2       1 UNK         0.5000 
     66 O           0.3094  -15.7332  -44.6280 O.2       1 UNK        -0.5000 
     67 C          -0.4975  -24.1274  -48.0320 C.2       11 UNK         0.5000 
     68 O          -1.5834  -24.4988  -48.4749 O.2       11 UNK        -0.5000 
     69 N          -0.3151  -22.9961  -47.3401 N.am      12 UNK        -0.5000 
     70 CA         -1.3564  -22.0171  -47.0459 C.3       12 UNK         0.1400 
     71 CB         -0.6782  -20.6678  -46.7893 C.3       12 UNK        -0.1800 
     72 C          -2.2450  -22.4270  -45.8580 C.2       12 UNK         0.5000 
     73 O          -3.3631  -21.9278  -45.7383 O.2       12 UNK        -0.5000 
     74 N          -1.7375  -23.3182  -44.9976 N.am      13 UNK        -0.5000 
     75 CA         -2.5113  -23.9689  -43.9447 C.3       13 UNK         0.1400 
     76 CB         -1.5589  -24.4575  -42.8425 C.3       13 UNK        -0.1800 
     77 C          -3.3483  -25.1316  -44.5107 C.2       13 UNK         0.5000 
     78 O          -4.4945  -25.3123  -44.0984 O.2       13 UNK        -0.5000 
     79 N          -2.7608  -25.8970  -45.4418 N.am      14 UNK        -0.5000 
     80 CA         -3.3703  -27.0669  -46.0729 C.3       14 UNK         0.1400 
     81 CB         -2.2788  -27.8830  -46.7826 C.3       14 UNK        -0.1800 
     82 C          -4.5059  -26.7293  -47.0560 C.2       14 UNK         0.5000 
     83 O          -5.4710  -27.4913  -47.1356 O.2       14 UNK        -0.5000 
     84 N          -4.3769  -25.6205  -47.7937 N.am      15 UNK        -0.5000 
     85 CA         -5.3285  -25.1886  -48.8143 C.3       15 UNK         0.1400 
     86 CB         -4.9212  -25.7917  -50.1702 C.3       15 UNK        -0.1800 
     87 C          -5.3679  -23.6576  -48.8913 C.2       15 UNK         0.5000 
     88 O          -4.4279  -22.9914  -48.4547 O.2       15 UNK        -0.5000 
     89 N          -6.4400  -23.1205  -49.4883 N.am      16 UNK        -0.5000 
     90 CA         -6.6679  -21.6903  -49.7176 C.3       16 UNK         0.1400 
     91 CB         -8.1689  -21.4597  -49.9681 C.3       16 UNK        -0.1800 
     92 C          -5.7869  -21.1316  -50.8567 C.2       16 UNK         0.5000 
     93 O          -6.2969  -20.6217  -51.8561 O.2       16 UNK        -0.5000 
     94 N          -4.4644  -21.2409  -50.6823 N.am      17 UNK        -0.5000 
     95 CA         -3.4312  -20.8432  -51.6394 C.3       17 UNK         0.1400 
     96 CB         -2.0625  -21.2792  -51.1017 C.3       17 UNK        -0.1800 
     97 C          -3.4441  -19.3440  -51.9975 C.2       17 UNK         0.5000 
     98 O          -3.0485  -18.9892  -53.1073 O.2       17 UNK        -0.5000 
     99 N          -3.9665  -18.5064  -51.0902 N.am      18 UNK        -0.5000 
    100 CA        -4.1895  -17.0692  -51.2812 C.3       18 UNK         0.1400 
    101 CB        -4.4555  -16.4184  -49.9137 C.3       18 UNK        -0.1800 
    102 C         -5.3229  -16.7293  -52.2745 C.2       18 UNK         0.5000 
    103 O         -5.5400  -15.5482  -52.5509 O.2       18 UNK        -0.5000 
    104 N         -6.0240  -17.7478  -52.7868 N.am      19 UNK        -0.5000 
    105 CA        -7.0350  -17.6402  -53.8327 C.3       19 UNK         0.1400 
    106 CB        -8.4299  -17.7399  -53.1873 C.3       19 UNK        -0.1800 
    107 C         -6.8080  -18.7066  -54.9237 C.2       19 UNK         0.5000 
    108 O         -7.7718  -19.1184  -55.5729 O.2       19 UNK        -0.5000 
    109 N         -5.5555  -19.1493  -55.1133 N.am      20 UNK        -0.5000 
    110 CA        -5.1931  -20.1829  -56.0823 C.3       20 UNK         0.1400 
    111 CB        -5.3989  -21.5838  -55.4734 C.3       20 UNK        -0.1800 
    112 C         -3.7658  -19.9733  -56.6076 C.2       20 UNK         0.5000 
    113 O         -3.5956  -19.5898  -57.7656 O.2       20 UNK        -0.5000 
    114 N         -2.7658  -20.2368  -55.7563 N.am      21 UNK        -0.5000 
    115 CA        -1.3410  -20.0921  -56.0701 C.3       21 UNK         0.1400 
    116 CB        -0.5183  -20.8585  -55.0235 C.3       21 UNK        -0.1800 
    117 C         -0.9028  -18.6180  -56.1216 C.2       21 UNK         0.5000 
    118 O         -0.0687  -18.2501  -56.9498 O.2       21 UNK        -0.5000 
    119 N         -1.4959  -17.8080  -55.2450 N.am      22 UNK        -0.5000 
    120 CA        -1.3558  -16.3545  -55.1686 C.3       22 UNK         0.1400 
    121 C         -2.7054  -15.7291  -54.7208 C.2       22 UNK         0.5000 
    122 N         -2.7172  -14.6948  -53.8912 N.am      22 UNK        -0.7600 
    123 O         -3.7672  -16.1602  -55.1658 O.2       22 UNK        -0.5000 
    124 C124       -0.0838  -15.9044  -54.3936 C.3       23 UNK        -0.0398 
    125 S125        0.1014  -16.6396  -52.7279 S.3       23 UNK        -0.2404 
    126 C126        1.5959  -17.6445  -52.9889 C.3       23 UNK        -0.0205 
    127 H127       -0.3153  -18.8842  -49.6431 H         1 UNK         0.0600 
    128 H128       -1.3192  -17.5439  -50.2006 H         1 UNK         0.0600 
    129 H129       -1.9904  -18.7569  -49.1029 H         1 UNK         0.0600 
    130 H130        1.2209  -18.0278  -48.2590 H         1 UNK         0.3000 
    131 H131        1.0981  -15.6162  -46.9645 H         1 UNK         0.0600 
    132 H132        3.0835  -16.4784  -45.6031 H         1 UNK         0.0800 
    133 H133        2.8356  -18.0508  -46.3134 H         1 UNK         0.0800 
    134 H134        5.1528  -17.7547  -49.2225 H         1 UNK         0.0800 
    135 H135        4.5072  -18.6814  -47.9005 H         1 UNK         0.0800 
    136 H136        3.2158  -16.8402  -50.9438 H         1 UNK         0.1150 
    137 H137        0.8861  -20.1666  -52.2917 H         1 UNK         0.1150 
    138 H138        3.0550  -20.4219  -48.6060 H         1 UNK         0.1150 
    139 H139        0.4190  -21.8115  -49.7104 H         1 UNK         0.0800 
    140 H140        1.1252  -22.2942  -51.2341 H         1 UNK         0.0800 
    141 H141        2.2496  -25.3871  -49.7512 H         1 UNK         0.0800 
    142 H142        0.8609  -24.5638  -50.3769 H         1 UNK         0.0800 
    143 H143        0.3951  -26.0225  -48.3843 H         1 UNK         0.0600 
    144 H144        2.5402  -24.6366  -47.1527 H         1 UNK         0.3000 
    145 H145        1.7279  -25.4209  -43.7659 H         1 UNK         0.0600 
    146 H146        3.9442  -26.5181  -43.8777 H         1 UNK         0.0600 
    147 H147        2.7441  -27.5087  -44.6913 H         1 UNK         0.0600 
    148 H148        3.8757  -26.5516  -45.6400 H         1 UNK         0.0600 
    149 H149        4.0146  -24.1812  -44.8893 H         1 UNK         0.3000 
    150 H150        4.4048  -22.0180  -44.3082 H         1 UNK         0.0600 
    151 H151        2.4844  -20.7727  -46.3675 H         1 UNK         0.0600 
    152 H152        3.7717  -21.9102  -46.7596 H         1 UNK         0.0600 
    153 H153        4.1735  -20.3248  -46.1305 H         1 UNK         0.0600 
    154 H154        1.9952  -20.9033  -43.3179 H         1 UNK         0.3000 
    155 H155        1.8199  -18.7099  -42.4764 H         1 UNK         0.0600 
    156 H156        4.1570  -19.2503  -40.5501 H         1 UNK         0.0600 
    157 H157        2.7137  -20.2473  -40.7002 H         1 UNK         0.0600 
    158 H158        2.5816  -18.6052  -40.0919 H         1 UNK         0.0600 
    159 H159        4.3279  -17.3314  -42.8271 H         1 UNK         0.3000 
    160 H160        3.6261  -14.3948  -41.5150 H         1 UNK         0.0600 
    161 H161        4.6752  -15.5624  -44.1669 H         1 UNK         0.0600 
    162 H162        5.5117  -15.6336  -42.6158 H         1 UNK         0.0600 
    163 H163        5.2493  -14.0928  -43.3957 H         1 UNK         0.0600 
    164 H164        1.6778  -14.6528  -43.5546 H         1 UNK         0.3000 
    165 H165        1.2682  -11.1749  -43.9974 H         1 UNK         0.0600 
    166 H166        2.5508  -11.7760  -46.0459 H         1 UNK         0.0600 
    167 H167        1.7582  -13.3450  -46.1129 H         1 UNK         0.0600 
    168 H168        0.8230  -11.8695  -46.3535 H         1 UNK         0.0600 
    169 H169       -0.1187  -13.7055  -44.5694 H         1 UNK         0.3000 
    170 H170       -1.4648  -14.5829  -42.2908 H         1 UNK         0.0600 
    171 H171       -2.5087  -12.9663  -40.7598 H         1 UNK         0.0600 
    172 H172       -3.3070  -12.1421  -42.0913 H         1 UNK         0.0600 
    173 H173       -3.7610  -13.7936  -41.6706 H         1 UNK         0.0600 
    174 H174       -2.3791  -15.0186  -44.2417 H         1 UNK         0.3000 
    175 H175       -4.4785  -13.5222  -46.4689 H         1 UNK         0.0600 
    176 H176       -2.8628  -13.9490  -48.3327 H         1 UNK         0.0600 
    177 H177       -2.5105  -12.4268  -47.5277 H         1 UNK         0.0600 
    178 H178       -1.5151  -13.8411  -47.2020 H         1 UNK         0.0600 
    179 H179       -2.7479  -15.8576  -46.5765 H         1 UNK         0.3000 
    180 H180       -4.8879  -17.9384  -44.6041 H         1 UNK         0.0600 
    181 H181       -3.9804  -18.0845  -47.5240 H         1 UNK         0.0600 
    182 H182       -5.6628  -18.0711  -47.0044 H         1 UNK         0.0600 
    183 H183       -4.6123  -19.4031  -46.5459 H         1 UNK         0.0600 
    184 H184       -2.2932  -18.2425  -45.8372 H         1 UNK         0.3000 
    185 H185       -0.3871  -17.6054  -42.9098 H         1 UNK         0.0600 
    186 H186       -1.1992  -19.8025  -42.3335 H         1 UNK         0.0600 
    187 H187       -1.4461  -20.2598  -44.0056 H         1 UNK         0.0600 
    188 H188        0.1841  -20.0815  -43.3762 H         1 UNK         0.0600 
    189 H189        0.1017  -18.7403  -45.5526 H         1 UNK         0.3000 
    190 H190        0.6070  -22.7995  -46.9801 H         1 UNK         0.3000 
    191 H191       -2.0017  -21.9152  -47.9203 H         1 UNK         0.0600 
    192 H192       -0.0769  -20.3655  -47.6458 H         1 UNK         0.0600 
    193 H193       -1.4249  -19.8941  -46.6153 H         1 UNK         0.0600 
    194 H194       -0.0197  -20.7145  -45.9223 H         1 UNK         0.0600 
    195 H195       -0.7804  -23.6211  -45.1179 H         1 UNK         0.3000 
    196 H196       -3.1947  -23.2419  -43.5004 H         1 UNK         0.0600 
    197 H197       -2.1150  -24.9072  -42.0192 H         1 UNK         0.0600 
    198 H198       -0.9771  -23.6318  -42.4319 H         1 UNK         0.0600 
    199 H199       -0.8585  -25.2063  -43.2128 H         1 UNK         0.0600 
    200 H200       -1.7881  -25.7211  -45.6729 H         1 UNK         0.3000 
    201 H201       -3.7947  -27.6902  -45.2831 H         1 UNK         0.0600 
    202 H202       -2.6981  -28.7720  -47.2555 H         1 UNK         0.0600 
    203 H203       -1.7833  -27.2993  -47.5594 H         1 UNK         0.0600 
    204 H204       -1.5171  -28.2187  -46.0788 H         1 UNK         0.0600 
    205 H205       -3.5604  -25.0263  -47.6878 H         1 UNK         0.3000 
    206 H206       -6.3322  -25.5300  -48.5522 H         1 UNK         0.0600 
    207 H207       -4.9279  -26.8813  -50.1359 H         1 UNK         0.0600 
    208 H208       -5.6076  -25.4890  -50.9617 H         1 UNK         0.0600 
    209 H209       -3.9195  -25.4728  -50.4624 H         1 UNK         0.0600 
    210 H210       -7.1484  -23.7402  -49.8543 H         1 UNK         0.3000 
    211 H211       -6.3978  -21.1473  -48.8092 H         1 UNK         0.0600 
    212 H212       -8.5141  -21.9844  -50.8599 H         1 UNK         0.0600 
    213 H213       -8.3846  -20.3994  -50.1069 H         1 UNK         0.0600 
    214 H214       -8.7671  -21.8026  -49.1238 H         1 UNK         0.0600 
    215 H215       -4.1532  -21.7227  -49.8424 H         1 UNK         0.3000 
    216 H216       -3.6153  -21.3924  -52.5635 H         1 UNK         0.0600 
    217 H217       -1.2606  -20.9685  -51.7698 H         1 UNK         0.0600 
    218 H218       -2.0049  -22.3641  -51.0071 H         1 UNK         0.0600 
    219 H219       -1.8603  -20.8529  -50.1209 H         1 UNK         0.0600 
    220 H220       -4.2971  -18.8997  -50.2225 H         1 UNK         0.3000 
    221 H221       -3.2725  -16.6386  -51.6887 H         1 UNK         0.0600 
    222 H222       -5.3308  -16.8477  -49.4256 H         1 UNK         0.0600 
    223 H223       -3.6019  -16.5365  -49.2494 H         1 UNK         0.0600 
    224 H224       -4.6284  -15.3460  -50.0124 H         1 UNK         0.0600 
    225 H225       -5.8251  -18.6931  -52.4763 H         1 UNK         0.3000 
    226 H226       -6.9545  -16.6744  -54.3354 H         1 UNK         0.0600 
    227 H227       -9.2195  -17.6086  -53.9280 H         1 UNK         0.0600 
    228 H228       -8.5791  -18.7098  -52.7108 H         1 UNK         0.0600 
    229 H229       -8.5682  -16.9692  -52.4289 H         1 UNK         0.0600 
    230 H230       -4.7973  -18.7236  -54.5932 H         1 UNK         0.3000 
    231 H231       -5.8483  -20.1009  -56.9524 H         1 UNK         0.0600 
    232 H232       -4.8610  -21.7046  -54.5340 H         1 UNK         0.0600 
    233 H233       -5.0561  -22.3629  -56.1553 H         1 UNK         0.0600 
    234 H234       -6.4538  -21.7712  -55.2723 H         1 UNK         0.0600 
    235 H235       -2.9897  -20.4727  -54.8007 H         1 UNK         0.3000 
    236 H236       -1.1519  -20.5360  -57.0498 H         1 UNK         0.0600 
    237 H237       -0.7801  -21.9166  -55.0103 H         1 UNK         0.0600 
    238 H238        0.5492  -20.7883  -55.2363 H         1 UNK         0.0600 
    239 H239       -0.6808  -20.4584  -54.0232 H         1 UNK         0.0600 
    240 H240       -2.1563  -18.2051  -54.5814 H         1 UNK         0.3000 
    241 H241       -1.2399  -15.9883  -56.1902 H         1 UNK         0.0600 
    242 H242       -1.8708  -14.3158  -53.4985 H         1 UNK         0.3800 
    243 H243       -3.6118  -14.3177  -53.6159 H         1 UNK         0.3800 
    244 H244        0.7912  -16.1623  -54.9914 H         1 UNK         0.0800 
    245 H245       -0.0442  -14.8184  -54.3052 H         1 UNK         0.0800 
    246 H246        2.4184  -16.9966  -53.2958 H         1 UNK         0.0800 
    247 H247        1.4236  -18.3361  -53.8153 H         1 UNK         0.0800 
@<TRIPOS>BOND
     1    1    2 1    
     2    1  127 1    
     3    1  128 1    
     4    1  129 1    
     5    2    3 2    
     6    2    4 am   BACKBONE|DICT|INTERRES
     7    4    5 1    
     8    4  130 1    
     9    5    6 1    
    10    5   65 1    
    11    5  131 1    
    12    6    7 1    
    13    6  132 1    
    14    6  133 1    
    15    7    8 1    
    16    8    9 1    
    17    8  134 1    
    18    8  135 1    
    19    9   10 ar   
    20    9   14 ar   
    21   10   11 ar   
    22   10  136 1    
    23   11   12 ar   
    24   11  126 1    
    25   12   13 ar   
    26   12  137 1    
    27   13   14 ar   
    28   13   15 1    
    29   14  138 1    
    30   15   16 1    
    31   15  139 1    
    32   15  140 1    
    33   16   17 1    
    34   17   18 1    
    35   17  141 1    
    36   17  142 1    
    37   18   19 1    
    38   18   67 1    
    39   18  143 1    
    40   19   20 am   BACKBONE|DICT|INTERRES
    41   19  144 1    
    42   20   21 2    
    43   20   22 1    
    44   22   23 1    
    45   22   24 1    
    46   22  145 1    
    47   23  146 1    
    48   23  147 1    
    49   23  148 1    
    50   24   25 am   BACKBONE|DICT|INTERRES
    51   24  149 1    
    52   25   26 2    
    53   25   27 1    
    54   27   28 1    
    55   27   29 1    
    56   27  150 1    
    57   28  151 1    
    58   28  152 1    
    59   28  153 1    
    60   29   30 am   BACKBONE|DICT|INTERRES
    61   29  154 1    
    62   30   31 2    
    63   30   32 1    
    64   32   33 1    
    65   32   34 1    
    66   32  155 1    
    67   33  156 1    
    68   33  157 1    
    69   33  158 1    
    70   34   35 am   BACKBONE|DICT|INTERRES
    71   34  159 1    
    72   35   36 2    
    73   35   37 1    
    74   37   38 1    
    75   37   39 1    
    76   37  160 1    
    77   38  161 1    
    78   38  162 1    
    79   38  163 1    
    80   39   40 am   BACKBONE|DICT|INTERRES
    81   39  164 1    
    82   40   41 2    
    83   40   42 1    
    84   42   43 1    
    85   42   44 1    
    86   42  165 1    
    87   43  166 1    
    88   43  167 1    
    89   43  168 1    
    90   44   45 am   BACKBONE|DICT|INTERRES
    91   44  169 1    
    92   45   46 2    
    93   45   47 1    
    94   47   48 1    
    95   47   49 1    
    96   47  170 1    
    97   48  171 1    
    98   48  172 1    
    99   48  173 1    
   100   49   50 am   BACKBONE|DICT|INTERRES
   101   49  174 1    
   102   50   51 2    
   103   50   52 1    
   104   52   53 1    
   105   52   54 1    
   106   52  175 1    
   107   53  176 1    
   108   53  177 1    
   109   53  178 1    
   110   54   55 am   BACKBONE|DICT|INTERRES
   111   54  179 1    
   112   55   56 2    
   113   55   57 1    
   114   57   58 1    
   115   57   59 1    
   116   57  180 1    
   117   58  181 1    
   118   58  182 1    
   119   58  183 1    
   120   59   60 am   BACKBONE|DICT|INTERRES
   121   59  184 1    
   122   60   61 2    
   123   60   62 1    
   124   62   63 1    
   125   62   64 1    
   126   62  185 1    
   127   63  186 1    
   128   63  187 1    
   129   63  188 1    
   130   64   65 am   BACKBONE|DICT|INTERRES
   131   64  189 1    
   132   65   66 2    
   133   67   68 2    
   134   67   69 am   BACKBONE|DICT|INTERRES
   135   69   70 1    
   136   69  190 1    
   137   70   71 1    
   138   70   72 1    
   139   70  191 1    
   140   71  192 1    
   141   71  193 1    
   142   71  194 1    
   143   72   73 2    
   144   72   74 am   BACKBONE|DICT|INTERRES
   145   74   75 1    
   146   74  195 1    
   147   75   76 1    
   148   75   77 1    
   149   75  196 1    
   150   76  197 1    
   151   76  198 1    
   152   76  199 1    
   153   77   78 2    
   154   77   79 am   BACKBONE|DICT|INTERRES
   155   79   80 1    
   156   79  200 1    
   157   80   81 1    
   158   80   82 1    
   159   80  201 1    
   160   81  202 1    
   161   81  203 1    
   162   81  204 1    
   163   82   83 2    
   164   82   84 am   BACKBONE|DICT|INTERRES
   165   84   85 1    
   166   84  205 1    
   167   85   86 1    
   168   85   87 1    
   169   85  206 1    
   170   86  207 1    
   171   86  208 1    
   172   86  209 1    
   173   87   88 2    
   174   87   89 am   BACKBONE|DICT|INTERRES
   175   89   90 1    
   176   89  210 1    
   177   90   91 1    
   178   90   92 1    
   179   90  211 1    
   180   91  212 1    
   181   91  213 1    
   182   91  214 1    
   183   92   93 2    
   184   92   94 am   BACKBONE|DICT|INTERRES
   185   94   95 1    
   186   94  215 1    
   187   95   96 1    
   188   95   97 1    
   189   95  216 1    
   190   96  217 1    
   191   96  218 1    
   192   96  219 1    
   193   97   98 2    
   194   97   99 am   BACKBONE|DICT|INTERRES
   195   99  100 1    
   196   99  220 1    
   197  100  101 1    
   198  100  102 1    
   199  100  221 1    
   200  101  222 1    
   201  101  223 1    
   202  101  224 1    
   203  102  103 2    
   204  102  104 am   BACKBONE|DICT|INTERRES
   205  104  105 1    
   206  104  225 1    
   207  105  106 1    
   208  105  107 1    
   209  105  226 1    
   210  106  227 1    
   211  106  228 1    
   212  106  229 1    
   213  107  108 2    
   214  107  109 am   BACKBONE|DICT|INTERRES
   215  109  110 1    
   216  109  230 1    
   217  110  111 1    
   218  110  112 1    
   219  110  231 1    
   220  111  232 1    
   221  111  233 1    
   222  111  234 1    
   223  112  113 2    
   224  112  114 am   BACKBONE|DICT|INTERRES
   225  114  115 1    
   226  114  235 1    
   227  115  116 1    
   228  115  117 1    
   229  115  236 1    
   230  116  237 1    
   231  116  238 1    
   232  116  239 1    
   233  117  118 2    
   234  117  119 am   BACKBONE|DICT|INTERRES
   235  119  120 1    
   236  119  240 1    
   237  120  121 1    
   238  120  124 1    
   239  120  241 1    
   240  121  122 am   BACKBONE|DICT|INTERRES
   241  121  123 2    
   242  122  242 1    
   243  122  243 1    
   244  124  125 1    
   245  124  244 1    
   246  124  245 1    
   247  125  126 1    
   248  126  246 1    
   249  126  247 1    
@<TRIPOS>SUBSTRUCTURE
     1 UNK         1 GROUP             0       ****    0 ROOT    
