@<TRIPOS>MOLECULE
3R540
247   249    1
SMALL
USER_CHARGES


@<TRIPOS>ATOM
      1 CA          4.3340  -17.9532  -46.4984 C.3       0 UNK        -0.1800 
      2 C           4.8166  -17.6622  -47.9181 C.2       0 UNK         0.5000 
      3 O           5.8098  -18.2506  -48.3391 O.2       0 UNK        -0.5000 
      4 N           4.1749  -16.7773  -48.6974 N.am      1 UNK        -0.5000 
      5 CA          3.0127  -15.9393  -48.3646 C.3       1 UNK         0.1400 
      6 C6          2.5092  -15.1826  -49.6203 C.3       23 UNK        -0.0398 
      7 S7          0.7566  -14.6805  -49.5105 S.3       23 UNK        -0.2404 
      8 C8          0.0724  -15.3501  -51.0589 C.3       23 UNK        -0.0205 
      9 C9         -0.3970  -16.7876  -50.8998 C.ar      23 UNK        -0.0193 
     10 C10        -1.7491  -17.0565  -50.6736 C.ar      23 UNK        -0.1150 
     11 C11        -2.2063  -18.3716  -50.5643 C.ar      23 UNK        -0.0193 
     12 C12        -1.2903  -19.4241  -50.6473 C.ar      23 UNK        -0.1150 
     13 C13         0.0673  -19.1697  -50.8682 C.ar      23 UNK        -0.0193 
     14 C14         0.5042  -17.8500  -51.0095 C.ar      23 UNK        -0.1150 
     15 C15         1.0584  -20.3223  -50.9691 C.3       23 UNK        -0.0205 
     16 S16         2.3807  -20.2535  -49.7087 S.3       23 UNK        -0.2404 
     17 C17         1.4487  -20.1204  -48.1446 C.3       23 UNK        -0.0398 
     18 CA          1.1747  -21.4766  -47.4528 C.3       11 UNK         0.1400 
     19 N           0.8213  -21.3004  -46.0428 N.am      11 UNK        -0.5000 
     20 C           0.6358  -22.2898  -45.1583 C.2       10 UNK         0.5000 
     21 O           0.8358  -23.4778  -45.4092 O.2       10 UNK        -0.5000 
     22 CA          0.0739  -21.8892  -43.7813 C.3       10 UNK         0.1400 
     23 CB          1.1934  -21.4058  -42.8479 C.3       10 UNK        -0.1800 
     24 N          -0.9712  -20.8671  -43.8829 N.am      10 UNK        -0.5000 
     25 C          -2.1570  -21.0625  -44.4786 C.2       9 UNK         0.5000 
     26 O          -2.5150  -22.1494  -44.9316 O.2       9 UNK        -0.5000 
     27 CA         -3.0809  -19.8392  -44.6363 C.3       9 UNK         0.1400 
     28 CB         -3.8882  -19.5949  -43.3535 C.3       9 UNK        -0.1800 
     29 N          -2.3608  -18.6201  -45.0099 N.am      9 UNK        -0.5000 
     30 C          -1.6942  -18.4593  -46.1624 C.2       8 UNK         0.5000 
     31 O          -1.6547  -19.3170  -47.0418 O.2       8 UNK        -0.5000 
     32 CA         -0.8703  -17.1658  -46.3278 C.3       8 UNK         0.1400 
     33 CB         -1.7538  -15.9833  -46.7472 C.3       8 UNK        -0.1800 
     34 N          -0.1309  -16.8210  -45.1124 N.am      8 UNK        -0.5000 
     35 C           0.8191  -17.5926  -44.5665 C.2       7 UNK         0.5000 
     36 O           1.2145  -18.6425  -45.0704 O.2       7 UNK        -0.5000 
     37 CA          1.3722  -17.1622  -43.1983 C.3       7 UNK         0.1400 
     38 CB          2.4573  -16.0885  -43.3417 C.3       7 UNK        -0.1800 
     39 N           0.3125  -16.6826  -42.3134 N.am      7 UNK        -0.5000 
     40 C          -0.6125  -17.4749  -41.7540 C.2       6 UNK         0.5000 
     41 O          -0.6375  -18.6974  -41.8911 O.2       6 UNK        -0.5000 
     42 CA         -1.7160  -16.7786  -40.9370 C.3       6 UNK         0.1400 
     43 CB         -1.2483  -16.5330  -39.4949 C.3       6 UNK        -0.1800 
     44 N          -2.1377  -15.5099  -41.5327 N.am      6 UNK        -0.5000 
     45 C          -2.7741  -15.3992  -42.7076 C.2       5 UNK         0.5000 
     46 O          -3.1143  -16.3620  -43.3926 O.2       5 UNK        -0.5000 
     47 CA         -3.0288  -13.9721  -43.2252 C.3       5 UNK         0.1400 
     48 CB         -4.3647  -13.4340  -42.6918 C.3       5 UNK        -0.1800 
     49 N          -1.9531  -13.0395  -42.8773 N.am      5 UNK        -0.5000 
     50 C          -0.6980  -13.1291  -43.3354 C.2       4 UNK         0.5000 
     51 O          -0.3079  -14.0151  -44.0988 O.2       4 UNK        -0.5000 
     52 CA          0.2962  -12.0907  -42.8062 C.3       4 UNK         0.1400 
     53 CB          1.0265  -12.6237  -41.5612 C.3       4 UNK        -0.1800 
     54 N           1.2676  -11.7727  -43.8483 N.am      4 UNK        -0.5000 
     55 C           1.8478  -10.5760  -44.0046 C.2       3 UNK         0.5000 
     56 O           1.6426   -9.6209  -43.2530 O.2       3 UNK        -0.5000 
     57 CA          2.8344  -10.4335  -45.1771 C.3       3 UNK         0.1400 
     58 CB          3.7022   -9.1612  -45.0949 C.3       3 UNK        -0.1800 
     59 N           3.6889  -11.6155  -45.2555 N.am      3 UNK        -0.5000 
     60 C           4.2199  -12.1078  -46.3794 C.2       2 UNK         0.5000 
     61 O           4.0744  -11.5870  -47.4875 O.2       2 UNK        -0.5000 
     62 CA          5.0529  -13.4041  -46.2681 C.3       2 UNK         0.1400 
     63 CB          5.1839  -13.9622  -44.8333 C.3       2 UNK        -0.1800 
     64 N           4.5504  -14.4350  -47.1806 N.am      2 UNK        -0.5000 
     65 C           3.3072  -14.9416  -47.2215 C.2       1 UNK         0.5000 
     66 O           2.4243  -14.6703  -46.4089 O.2       1 UNK        -0.5000 
     67 C           0.1030  -22.2956  -48.2007 C.2       11 UNK         0.5000 
     68 O           0.4507  -23.2481  -48.8965 O.2       11 UNK        -0.5000 
     69 N          -1.1774  -21.9457  -48.0103 N.am      12 UNK        -0.5000 
     70 CA         -2.3260  -22.6480  -48.5843 C.3       12 UNK         0.1400 
     71 CB         -3.6189  -21.8866  -48.2567 C.3       12 UNK        -0.1800 
     72 C          -2.4291  -24.1101  -48.1178 C.2       12 UNK         0.5000 
     73 O          -2.7115  -24.9882  -48.9320 O.2       12 UNK        -0.5000 
     74 N          -2.1631  -24.3515  -46.8268 N.am      13 UNK        -0.5000 
     75 CA         -2.1014  -25.6847  -46.2295 C.3       13 UNK         0.1400 
     76 CB         -2.0183  -25.5628  -44.7006 C.3       13 UNK        -0.1800 
     77 C          -0.9367  -26.5276  -46.7819 C.2       13 UNK         0.5000 
     78 O          -1.1326  -27.7084  -47.0696 O.2       13 UNK        -0.5000 
     79 N           0.2389  -25.9047  -46.9497 N.am      14 UNK        -0.5000 
     80 CA          1.4332  -26.5206  -47.5324 C.3       14 UNK         0.1400 
     81 CB          2.6483  -25.6096  -47.2995 C.3       14 UNK        -0.1800 
     82 C           1.2678  -26.8438  -49.0295 C.2       14 UNK         0.5000 
     83 O           1.6728  -27.9216  -49.4669 O.2       14 UNK        -0.5000 
     84 N           0.6544  -25.9189  -49.7806 N.am      15 UNK        -0.5000 
     85 CA          0.3051  -26.0795  -51.1941 C.3       15 UNK         0.1400 
     86 CB         -0.0683  -24.7051  -51.7748 C.3       15 UNK        -0.1800 
     87 C          -0.8453  -27.0792  -51.4241 C.2       15 UNK         0.5000 
     88 O          -0.9543  -27.6315  -52.5193 O.2       15 UNK        -0.5000 
     89 N          -1.6830  -27.2698  -50.3944 N.am      16 UNK        -0.5000 
     90 CA         -2.9239  -28.0478  -50.3669 C.3       16 UNK         0.1400 
     91 CB         -2.6452  -29.5489  -50.5892 C.3       16 UNK        -0.1800 
     92 C          -3.9987  -27.4757  -51.3161 C.2       16 UNK         0.5000 
     93 O          -4.7940  -28.2315  -51.8782 O.2       16 UNK        -0.5000 
     94 N          -4.0029  -26.1470  -51.4767 N.am      17 UNK        -0.5000 
     95 CA         -4.8834  -25.3916  -52.3589 C.3       17 UNK         0.1400 
     96 CB         -4.4859  -25.6122  -53.8314 C.3       17 UNK        -0.1800 
     97 C          -4.7815  -23.9037  -52.0066 C.2       17 UNK         0.5000 
     98 O          -3.7233  -23.4436  -51.5711 O.2       17 UNK        -0.5000 
     99 N          -5.8643  -23.1586  -52.2536 N.am      18 UNK        -0.5000 
    100 CA        -5.9491  -21.7068  -52.0904 C.3       18 UNK         0.1400 
    101 CB        -7.4317  -21.3188  -51.9474 C.3       18 UNK        -0.1800 
    102 C         -5.2500  -20.9761  -53.2576 C.2       18 UNK         0.5000 
    103 O         -5.9118  -20.3093  -54.0548 O.2       18 UNK        -0.5000 
    104 N         -3.9231  -21.1467  -53.3399 N.am      19 UNK        -0.5000 
    105 CA        -3.0487  -20.7979  -54.4670 C.3       19 UNK         0.1400 
    106 CB        -1.5989  -21.1419  -54.0909 C.3       19 UNK        -0.1800 
    107 C         -3.1412  -19.3483  -54.9860 C.2       19 UNK         0.5000 
    108 O         -2.9382  -19.1282  -56.1809 O.2       19 UNK        -0.5000 
    109 N         -3.4652  -18.3997  -54.1002 N.am      20 UNK        -0.5000 
    110 CA        -3.7301  -17.0008  -54.4359 C.3       20 UNK         0.1400 
    111 CB        -2.4801  -16.1425  -54.1717 C.3       20 UNK        -0.1800 
    112 C         -4.9931  -16.5016  -53.7104 C.2       20 UNK         0.5000 
    113 O         -5.0015  -15.3909  -53.1788 O.2       20 UNK        -0.5000 
    114 N         -6.0438  -17.3368  -53.7227 N.am      21 UNK        -0.5000 
    115 CA        -7.4075  -17.0518  -53.2609 C.3       21 UNK         0.1400 
    116 CB        -8.0556  -15.9432  -54.1180 C.3       21 UNK        -0.1800 
    117 C         -7.5088  -16.7841  -51.7443 C.2       21 UNK         0.5000 
    118 O         -8.0889  -15.7822  -51.3216 O.2       21 UNK        -0.5000 
    119 N         -6.9669  -17.7170  -50.9517 N.am      22 UNK        -0.5000 
    120 CA        -7.1123  -17.7626  -49.4836 C.3       22 UNK         0.1400 
    121 C         -8.5344  -18.1690  -48.9869 C.2       22 UNK         0.5000 
    122 N         -9.4338  -18.6545  -49.8348 N.am      22 UNK        -0.7600 
    123 O         -8.8308  -18.0339  -47.8031 O.2       22 UNK        -0.5000 
    124 C124       -6.0342  -18.6658  -48.8279 C.3       23 UNK        -0.0398 
    125 S125       -4.3677  -17.9326  -48.8798 S.3       23 UNK        -0.2404 
    126 C126       -3.6925  -18.6518  -50.4054 C.3       23 UNK        -0.0205 
    127 H127        4.4527  -19.0128  -46.2715 H         1 UNK         0.0600 
    128 H128        3.2860  -17.7073  -46.3510 H         1 UNK         0.0600 
    129 H129        4.9238  -17.3849  -45.7794 H         1 UNK         0.0600 
    130 H130        4.5389  -16.6410  -49.6293 H         1 UNK         0.3000 
    131 H131        2.2181  -16.6111  -48.0333 H         1 UNK         0.0600 
    132 H132        3.1135  -14.2955  -49.8206 H         1 UNK         0.0800 
    133 H133        2.6326  -15.8105  -50.5016 H         1 UNK         0.0800 
    134 H134        0.8034  -15.2758  -51.8652 H         1 UNK         0.0800 
    135 H135       -0.7656  -14.7205  -51.3619 H         1 UNK         0.0800 
    136 H136       -2.4552  -16.2408  -50.6035 H         1 UNK         0.1150 
    137 H137       -1.6358  -20.4434  -50.5556 H         1 UNK         0.1150 
    138 H138        1.5498  -17.6580  -51.1981 H         1 UNK         0.1150 
    139 H139        0.5453  -21.2822  -50.8998 H         1 UNK         0.0800 
    140 H140        1.5188  -20.3011  -51.9576 H         1 UNK         0.0800 
    141 H141        0.5320  -19.5537  -48.2947 H         1 UNK         0.0800 
    142 H142        2.0586  -19.5026  -47.4868 H         1 UNK         0.0800 
    143 H143        2.0999  -22.0564  -47.4688 H         1 UNK         0.0600 
    144 H144        0.6901  -20.3430  -45.7266 H         1 UNK         0.3000 
    145 H145       -0.3741  -22.7795  -43.3352 H         1 UNK         0.0600 
    146 H146        0.8062  -21.1732  -41.8558 H         1 UNK         0.0600 
    147 H147        1.9577  -22.1744  -42.7273 H         1 UNK         0.0600 
    148 H148        1.6855  -20.5130  -43.2324 H         1 UNK         0.0600 
    149 H149       -0.7678  -19.9607  -43.4752 H         1 UNK         0.3000 
    150 H150       -3.7859  -20.0621  -45.4400 H         1 UNK         0.0600 
    151 H151       -4.4524  -20.4848  -43.0718 H         1 UNK         0.0600 
    152 H152       -4.6048  -18.7844  -43.4877 H         1 UNK         0.0600 
    153 H153       -3.2430  -19.3354  -42.5143 H         1 UNK         0.0600 
    154 H154       -2.4013  -17.8459  -44.3528 H         1 UNK         0.3000 
    155 H155       -0.1400  -17.3346  -47.1220 H         1 UNK         0.0600 
    156 H156       -2.5488  -15.7945  -46.0261 H         1 UNK         0.0600 
    157 H157       -1.1666  -15.0701  -46.8487 H         1 UNK         0.0600 
    158 H158       -2.2216  -16.1752  -47.7128 H         1 UNK         0.0600 
    159 H159       -0.3555  -15.9348  -44.6713 H         1 UNK         0.3000 
    160 H160        1.8321  -18.0386  -42.7368 H         1 UNK         0.0600 
    161 H161        2.0596  -15.1679  -43.7676 H         1 UNK         0.0600 
    162 H162        3.2587  -16.4330  -43.9958 H         1 UNK         0.0600 
    163 H163        2.9047  -15.8466  -42.3777 H         1 UNK         0.0600 
    164 H164        0.2328  -15.6840  -42.1980 H         1 UNK         0.3000 
    165 H165       -2.5806  -17.4450  -40.9077 H         1 UNK         0.0600 
    166 H166       -2.0481  -16.1079  -38.8881 H         1 UNK         0.0600 
    167 H167       -0.9429  -17.4664  -39.0201 H         1 UNK         0.0600 
    168 H168       -0.3979  -15.8510  -39.4560 H         1 UNK         0.0600 
    169 H169       -1.9024  -14.6670  -41.0305 H         1 UNK         0.3000 
    170 H170       -3.0917  -14.0220  -44.3142 H         1 UNK         0.0600 
    171 H171       -5.1866  -14.1012  -42.9552 H         1 UNK         0.0600 
    172 H172       -4.3563  -13.3363  -41.6055 H         1 UNK         0.0600 
    173 H173       -4.5936  -12.4561  -43.1159 H         1 UNK         0.0600 
    174 H174       -2.1954  -12.2882  -42.2471 H         1 UNK         0.3000 
    175 H175       -0.2641  -11.1924  -42.5373 H         1 UNK         0.0600 
    176 H176        1.6156  -13.5125  -41.7895 H         1 UNK         0.0600 
    177 H177        1.7023  -11.8733  -41.1507 H         1 UNK         0.0600 
    178 H178        0.3205  -12.8884  -40.7731 H         1 UNK         0.0600 
    179 H179        1.4267  -12.5099  -44.5255 H         1 UNK         0.3000 
    180 H180        2.2219  -10.3727  -46.0792 H         1 UNK         0.0600 
    181 H181        4.3279   -9.1615  -44.2017 H         1 UNK         0.0600 
    182 H182        3.0832   -8.2637  -45.0657 H         1 UNK         0.0600 
    183 H183        4.3566   -9.0710  -45.9619 H         1 UNK         0.0600 
    184 H184        3.8360  -12.1108  -44.3868 H         1 UNK         0.3000 
    185 H185        6.0560  -13.1506  -46.6139 H         1 UNK         0.0600 
    186 H186        5.7010  -13.2559  -44.1827 H         1 UNK         0.0600 
    187 H187        4.2144  -14.1768  -44.3868 H         1 UNK         0.0600 
    188 H188        5.7624  -14.8860  -44.8249 H         1 UNK         0.0600 
    189 H189        5.1947  -14.7212  -47.9042 H         1 UNK         0.3000 
    190 H190       -1.3795  -21.1075  -47.4693 H         1 UNK         0.3000 
    191 H191       -2.1881  -22.6478  -49.6659 H         1 UNK         0.0600 
    192 H192       -3.8942  -21.9852  -47.2070 H         1 UNK         0.0600 
    193 H193       -4.4514  -22.2644  -48.8511 H         1 UNK         0.0600 
    194 H194       -3.5162  -20.8242  -48.4654 H         1 UNK         0.0600 
    195 H195       -2.0041  -23.5618  -46.2080 H         1 UNK         0.3000 
    196 H196       -3.0310  -26.2020  -46.4760 H         1 UNK         0.0600 
    197 H197       -2.0115  -26.5470  -44.2308 H         1 UNK         0.0600 
    198 H198       -2.8738  -25.0171  -44.3021 H         1 UNK         0.0600 
    199 H199       -1.1145  -25.0421  -44.3846 H         1 UNK         0.0600 
    200 H200        0.3299  -24.9415  -46.6400 H         1 UNK         0.3000 
    201 H201        1.6130  -27.4616  -47.0085 H         1 UNK         0.0600 
    202 H202        2.8143  -25.4397  -46.2356 H         1 UNK         0.0600 
    203 H203        2.5220  -24.6374  -47.7763 H         1 UNK         0.0600 
    204 H204        3.5564  -26.0586  -47.7035 H         1 UNK         0.0600 
    205 H205        0.4235  -25.0215  -49.3574 H         1 UNK         0.3000 
    206 H206        1.1829  -26.4523  -51.7257 H         1 UNK         0.0600 
    207 H207        0.7558  -23.9980  -51.6787 H         1 UNK         0.0600 
    208 H208       -0.3127  -24.7790  -52.8352 H         1 UNK         0.0600 
    209 H209       -0.9352  -24.2779  -51.2686 H         1 UNK         0.0600 
    210 H210       -1.5255  -26.7039  -49.5697 H         1 UNK         0.3000 
    211 H211       -3.3230  -27.9346  -49.3580 H         1 UNK         0.0600 
    212 H212       -2.3119  -29.7547  -51.6066 H         1 UNK         0.0600 
    213 H213       -3.5431  -30.1424  -50.4141 H         1 UNK         0.0600 
    214 H214       -1.8788  -29.9115  -49.9041 H         1 UNK         0.0600 
    215 H215       -3.3654  -25.5794  -50.9248 H         1 UNK         0.3000 
    216 H216       -5.9117  -25.7222  -52.1992 H         1 UNK         0.0600 
    217 H217       -3.4462  -25.3337  -54.0092 H         1 UNK         0.0600 
    218 H218       -5.1057  -25.0140  -54.5004 H         1 UNK         0.0600 
    219 H219       -4.6072  -26.6538  -54.1283 H         1 UNK         0.0600 
    220 H220       -6.6790  -23.6051  -52.6498 H         1 UNK         0.3000 
    221 H221       -5.4397  -21.4234  -51.1677 H         1 UNK         0.0600 
    222 H222       -8.0150  -21.6285  -52.8156 H         1 UNK         0.0600 
    223 H223       -7.8755  -21.7800  -51.0648 H         1 UNK         0.0600 
    224 H224       -7.5528  -20.2424  -51.8435 H         1 UNK         0.0600 
    225 H225       -3.5115  -21.7643  -52.6472 H         1 UNK         0.3000 
    226 H226       -3.3413  -21.4463  -55.2952 H         1 UNK         0.0600 
    227 H227       -1.4995  -22.1899  -53.8065 H         1 UNK         0.0600 
    228 H228       -0.9248  -20.9686  -54.9307 H         1 UNK         0.0600 
    229 H229       -1.2461  -20.5333  -53.2591 H         1 UNK         0.0600 
    230 H230       -3.6022  -18.6687  -53.1386 H         1 UNK         0.3000 
    231 H231       -3.9622  -16.9185  -55.4997 H         1 UNK         0.0600 
    232 H232       -1.6074  -16.5430  -54.6876 H         1 UNK         0.0600 
    233 H233       -2.2472  -16.0877  -53.1115 H         1 UNK         0.0600 
    234 H234       -2.6267  -15.1215  -54.5256 H         1 UNK         0.0600 
    235 H235       -5.9173  -18.2529  -54.1428 H         1 UNK         0.3000 
    236 H236       -7.9777  -17.9645  -53.4405 H         1 UNK         0.0600 
    237 H237       -9.1080  -15.8167  -53.8612 H         1 UNK         0.0600 
    238 H238       -7.5676  -14.9786  -53.9747 H         1 UNK         0.0600 
    239 H239       -8.0095  -16.1879  -55.1791 H         1 UNK         0.0600 
    240 H240       -6.5024  -18.4988  -51.3823 H         1 UNK         0.3000 
    241 H241       -6.9605  -16.7476  -49.1108 H         1 UNK         0.0600 
    242 H242      -10.3474  -18.9050  -49.4898 H         1 UNK         0.3800 
    243 H243       -9.2250  -18.7630  -50.8125 H         1 UNK         0.3800 
    244 H244       -6.0271  -19.6595  -49.2777 H         1 UNK         0.0800 
    245 H245       -6.2538  -18.8238  -47.7703 H         1 UNK         0.0800 
    246 H246       -4.2217  -18.2243  -51.2553 H         1 UNK         0.0800 
    247 H247       -3.8809  -19.7243  -50.4252 H         1 UNK         0.0800 
@<TRIPOS>BOND
     1    1    2 1    
     2    1  127 1    
     3    1  128 1    
     4    1  129 1    
     5    2    3 2    
     6    2    4 am   BACKBONE|DICT|INTERRES
     7    4    5 1    
     8    4  130 1    
     9    5    6 1    
    10    5   65 1    
    11    5  131 1    
    12    6    7 1    
    13    6  132 1    
    14    6  133 1    
    15    7    8 1    
    16    8    9 1    
    17    8  134 1    
    18    8  135 1    
    19    9   10 ar   
    20    9   14 ar   
    21   10   11 ar   
    22   10  136 1    
    23   11   12 ar   
    24   11  126 1    
    25   12   13 ar   
    26   12  137 1    
    27   13   14 ar   
    28   13   15 1    
    29   14  138 1    
    30   15   16 1    
    31   15  139 1    
    32   15  140 1    
    33   16   17 1    
    34   17   18 1    
    35   17  141 1    
    36   17  142 1    
    37   18   19 1    
    38   18   67 1    
    39   18  143 1    
    40   19   20 am   BACKBONE|DICT|INTERRES
    41   19  144 1    
    42   20   21 2    
    43   20   22 1    
    44   22   23 1    
    45   22   24 1    
    46   22  145 1    
    47   23  146 1    
    48   23  147 1    
    49   23  148 1    
    50   24   25 am   BACKBONE|DICT|INTERRES
    51   24  149 1    
    52   25   26 2    
    53   25   27 1    
    54   27   28 1    
    55   27   29 1    
    56   27  150 1    
    57   28  151 1    
    58   28  152 1    
    59   28  153 1    
    60   29   30 am   BACKBONE|DICT|INTERRES
    61   29  154 1    
    62   30   31 2    
    63   30   32 1    
    64   32   33 1    
    65   32   34 1    
    66   32  155 1    
    67   33  156 1    
    68   33  157 1    
    69   33  158 1    
    70   34   35 am   BACKBONE|DICT|INTERRES
    71   34  159 1    
    72   35   36 2    
    73   35   37 1    
    74   37   38 1    
    75   37   39 1    
    76   37  160 1    
    77   38  161 1    
    78   38  162 1    
    79   38  163 1    
    80   39   40 am   BACKBONE|DICT|INTERRES
    81   39  164 1    
    82   40   41 2    
    83   40   42 1    
    84   42   43 1    
    85   42   44 1    
    86   42  165 1    
    87   43  166 1    
    88   43  167 1    
    89   43  168 1    
    90   44   45 am   BACKBONE|DICT|INTERRES
    91   44  169 1    
    92   45   46 2    
    93   45   47 1    
    94   47   48 1    
    95   47   49 1    
    96   47  170 1    
    97   48  171 1    
    98   48  172 1    
    99   48  173 1    
   100   49   50 am   BACKBONE|DICT|INTERRES
   101   49  174 1    
   102   50   51 2    
   103   50   52 1    
   104   52   53 1    
   105   52   54 1    
   106   52  175 1    
   107   53  176 1    
   108   53  177 1    
   109   53  178 1    
   110   54   55 am   BACKBONE|DICT|INTERRES
   111   54  179 1    
   112   55   56 2    
   113   55   57 1    
   114   57   58 1    
   115   57   59 1    
   116   57  180 1    
   117   58  181 1    
   118   58  182 1    
   119   58  183 1    
   120   59   60 am   BACKBONE|DICT|INTERRES
   121   59  184 1    
   122   60   61 2    
   123   60   62 1    
   124   62   63 1    
   125   62   64 1    
   126   62  185 1    
   127   63  186 1    
   128   63  187 1    
   129   63  188 1    
   130   64   65 am   BACKBONE|DICT|INTERRES
   131   64  189 1    
   132   65   66 2    
   133   67   68 2    
   134   67   69 am   BACKBONE|DICT|INTERRES
   135   69   70 1    
   136   69  190 1    
   137   70   71 1    
   138   70   72 1    
   139   70  191 1    
   140   71  192 1    
   141   71  193 1    
   142   71  194 1    
   143   72   73 2    
   144   72   74 am   BACKBONE|DICT|INTERRES
   145   74   75 1    
   146   74  195 1    
   147   75   76 1    
   148   75   77 1    
   149   75  196 1    
   150   76  197 1    
   151   76  198 1    
   152   76  199 1    
   153   77   78 2    
   154   77   79 am   BACKBONE|DICT|INTERRES
   155   79   80 1    
   156   79  200 1    
   157   80   81 1    
   158   80   82 1    
   159   80  201 1    
   160   81  202 1    
   161   81  203 1    
   162   81  204 1    
   163   82   83 2    
   164   82   84 am   BACKBONE|DICT|INTERRES
   165   84   85 1    
   166   84  205 1    
   167   85   86 1    
   168   85   87 1    
   169   85  206 1    
   170   86  207 1    
   171   86  208 1    
   172   86  209 1    
   173   87   88 2    
   174   87   89 am   BACKBONE|DICT|INTERRES
   175   89   90 1    
   176   89  210 1    
   177   90   91 1    
   178   90   92 1    
   179   90  211 1    
   180   91  212 1    
   181   91  213 1    
   182   91  214 1    
   183   92   93 2    
   184   92   94 am   BACKBONE|DICT|INTERRES
   185   94   95 1    
   186   94  215 1    
   187   95   96 1    
   188   95   97 1    
   189   95  216 1    
   190   96  217 1    
   191   96  218 1    
   192   96  219 1    
   193   97   98 2    
   194   97   99 am   BACKBONE|DICT|INTERRES
   195   99  100 1    
   196   99  220 1    
   197  100  101 1    
   198  100  102 1    
   199  100  221 1    
   200  101  222 1    
   201  101  223 1    
   202  101  224 1    
   203  102  103 2    
   204  102  104 am   BACKBONE|DICT|INTERRES
   205  104  105 1    
   206  104  225 1    
   207  105  106 1    
   208  105  107 1    
   209  105  226 1    
   210  106  227 1    
   211  106  228 1    
   212  106  229 1    
   213  107  108 2    
   214  107  109 am   BACKBONE|DICT|INTERRES
   215  109  110 1    
   216  109  230 1    
   217  110  111 1    
   218  110  112 1    
   219  110  231 1    
   220  111  232 1    
   221  111  233 1    
   222  111  234 1    
   223  112  113 2    
   224  112  114 am   BACKBONE|DICT|INTERRES
   225  114  115 1    
   226  114  235 1    
   227  115  116 1    
   228  115  117 1    
   229  115  236 1    
   230  116  237 1    
   231  116  238 1    
   232  116  239 1    
   233  117  118 2    
   234  117  119 am   BACKBONE|DICT|INTERRES
   235  119  120 1    
   236  119  240 1    
   237  120  121 1    
   238  120  124 1    
   239  120  241 1    
   240  121  122 am   BACKBONE|DICT|INTERRES
   241  121  123 2    
   242  122  242 1    
   243  122  243 1    
   244  124  125 1    
   245  124  244 1    
   246  124  245 1    
   247  125  126 1    
   248  126  246 1    
   249  126  247 1    
@<TRIPOS>SUBSTRUCTURE
     1 UNK         1 GROUP             0       ****    0 ROOT    
