@<TRIPOS>MOLECULE
3R540
247   249    1
SMALL
USER_CHARGES


@<TRIPOS>ATOM
      1 CA          6.5222  -14.5442  -51.9252 C.3       0 UNK        -0.1800 
      2 C           6.0544  -14.9071  -50.5228 C.2       0 UNK         0.5000 
      3 O           6.8670  -15.3088  -49.6893 O.2       0 UNK        -0.5000 
      4 N           4.7489  -14.7748  -50.2631 N.am      1 UNK        -0.5000 
      5 CA          4.1248  -14.9931  -48.9560 C.3       1 UNK         0.1400 
      6 C6          2.5936  -15.2069  -49.0774 C.3       23 UNK        -0.0398 
      7 S7          1.6998  -13.8657  -49.9507 S.3       23 UNK        -0.2404 
      8 C8          1.2066  -14.6607  -51.5152 C.3       23 UNK        -0.0205 
      9 C9          0.1740  -15.7553  -51.2948 C.ar      23 UNK        -0.0193 
     10 C10        -1.1343  -15.4259  -50.9306 C.ar      23 UNK        -0.1150 
     11 C11        -2.0733  -16.4294  -50.6788 C.ar      23 UNK        -0.0193 
     12 C12        -1.7005  -17.7701  -50.8123 C.ar      23 UNK        -0.1150 
     13 C13        -0.3991  -18.1126  -51.1891 C.ar      23 UNK        -0.0193 
     14 C14         0.5296  -17.0985  -51.4408 C.ar      23 UNK        -0.1150 
     15 C15         0.0006  -19.5759  -51.3248 C.3       23 UNK        -0.0205 
     16 S16         1.4539  -20.0032  -50.3106 S.3       23 UNK        -0.2404 
     17 C17         0.7780  -19.8708  -48.6213 C.3       23 UNK        -0.0398 
     18 CA          0.7868  -21.2255  -47.8728 C.3       11 UNK         0.1400 
     19 N           0.8056  -21.0412  -46.4194 N.am      11 UNK        -0.5000 
     20 C           1.0486  -22.0171  -45.5365 C.2       10 UNK         0.5000 
     21 O           1.2544  -23.1869  -45.8542 O.2       10 UNK        -0.5000 
     22 CA          1.0487  -21.6386  -44.0453 C.3       10 UNK         0.1400 
     23 CB          2.3841  -20.9849  -43.6583 C.3       10 UNK        -0.1800 
     24 N          -0.0518  -20.7754  -43.6104 N.am      10 UNK        -0.5000 
     25 C          -1.3607  -20.9720  -43.8214 C.2       9 UNK         0.5000 
     26 O          -1.8166  -21.8446  -44.5602 O.2       9 UNK        -0.5000 
     27 CA         -2.3238  -20.0600  -43.0415 C.3       9 UNK         0.1400 
     28 CB         -1.7622  -19.6022  -41.6803 C.3       9 UNK        -0.1800 
     29 N          -2.6743  -18.8850  -43.8300 N.am      9 UNK        -0.5000 
     30 C          -3.7039  -18.8149  -44.6827 C.2       8 UNK         0.5000 
     31 O          -4.4778  -19.7457  -44.9048 O.2       8 UNK        -0.5000 
     32 CA         -3.9307  -17.4644  -45.3829 C.3       8 UNK         0.1400 
     33 CB         -4.7728  -16.5345  -44.4955 C.3       8 UNK        -0.1800 
     34 N          -2.6786  -16.7903  -45.7197 N.am      8 UNK        -0.5000 
     35 C          -1.9365  -17.0782  -46.7961 C.2       7 UNK         0.5000 
     36 O          -2.2115  -17.9700  -47.5969 O.2       7 UNK        -0.5000 
     37 CA         -0.6619  -16.2317  -46.9892 C.3       7 UNK         0.1400 
     38 CB         -1.0198  -14.7890  -47.3802 C.3       7 UNK        -0.1800 
     39 N           0.1627  -16.1782  -45.7848 N.am      7 UNK        -0.5000 
     40 C           0.6921  -17.2345  -45.1571 C.2       6 UNK         0.5000 
     41 O           0.6427  -18.3853  -45.5859 O.2       6 UNK        -0.5000 
     42 CA          1.3638  -16.9637  -43.8001 C.3       6 UNK         0.1400 
     43 CB          2.8734  -16.7695  -43.9880 C.3       6 UNK        -0.1800 
     44 N           0.8107  -15.8107  -43.0813 N.am      6 UNK        -0.5000 
     45 C          -0.4546  -15.6974  -42.6517 C.2       5 UNK         0.5000 
     46 O          -1.3249  -16.5294  -42.9099 O.2       5 UNK        -0.5000 
     47 CA         -0.8453  -14.4464  -41.8364 C.3       5 UNK         0.1400 
     48 CB         -1.5273  -14.8347  -40.5094 C.3       5 UNK        -0.1800 
     49 N           0.2315  -13.4737  -41.6056 N.am      5 UNK        -0.5000 
     50 C           1.3543  -13.6070  -40.8863 C.2       4 UNK         0.5000 
     51 O           1.6847  -14.6525  -40.3256 O.2       4 UNK        -0.5000 
     52 CA          2.2692  -12.3621  -40.8150 C.3       4 UNK         0.1400 
     53 CB          3.5910  -12.6404  -40.0762 C.3       4 UNK        -0.1800 
     54 N           2.5850  -11.8098  -42.1358 N.am      4 UNK        -0.5000 
     55 C           1.7650  -11.0922  -42.9167 C.2       3 UNK         0.5000 
     56 O           0.6068  -10.8125  -42.6044 O.2       3 UNK        -0.5000 
     57 CA          2.3146  -10.6206  -44.2775 C.3       3 UNK         0.1400 
     58 CB          2.6703   -9.1269  -44.2219 C.3       3 UNK        -0.1800 
     59 N           3.4882  -11.3699  -44.7353 N.am      3 UNK        -0.5000 
     60 C           3.4639  -12.6351  -45.1718 C.2       2 UNK         0.5000 
     61 O           2.4478  -13.3354  -45.1993 O.2       2 UNK        -0.5000 
     62 CA          4.8167  -13.2211  -45.6123 C.3       2 UNK         0.1400 
     63 CB          5.5297  -13.8957  -44.4294 C.3       2 UNK        -0.1800 
     64 N           4.6306  -14.1913  -46.6903 N.am      2 UNK        -0.5000 
     65 C           4.4722  -13.8507  -47.9755 C.2       1 UNK         0.5000 
     66 O           4.5777  -12.6928  -48.3906 O.2       1 UNK        -0.5000 
     67 C          -0.3648  -22.1485  -48.3236 C.2       11 UNK         0.5000 
     68 O          -0.1425  -23.0607  -49.1217 O.2       11 UNK        -0.5000 
     69 N          -1.5620  -21.9309  -47.7622 N.am      12 UNK        -0.5000 
     70 CA         -2.7408  -22.7585  -48.0130 C.3       12 UNK         0.1400 
     71 CB         -3.9944  -22.0352  -47.5034 C.3       12 UNK        -0.1800 
     72 C          -2.6133  -24.1535  -47.3760 C.2       12 UNK         0.5000 
     73 O          -3.0133  -25.1408  -47.9913 O.2       12 UNK        -0.5000 
     74 N          -2.0268  -24.2204  -46.1723 N.am      13 UNK        -0.5000 
     75 CA         -1.7478  -25.4625  -45.4511 C.3       13 UNK         0.1400 
     76 CB         -1.2755  -25.1381  -44.0261 C.3       13 UNK        -0.1800 
     77 C          -0.7278  -26.3583  -46.1779 C.2       13 UNK         0.5000 
     78 O          -0.9346  -27.5697  -46.2500 O.2       13 UNK        -0.5000 
     79 N           0.3316  -25.7484  -46.7291 N.am      14 UNK        -0.5000 
     80 CA          1.3568  -26.4182  -47.5312 C.3       14 UNK         0.1400 
     81 CB          2.5352  -25.4611  -47.7666 C.3       14 UNK        -0.1800 
     82 C           0.8124  -26.9447  -48.8706 C.2       14 UNK         0.5000 
     83 O           1.1736  -28.0488  -49.2799 O.2       14 UNK        -0.5000 
     84 N          -0.0595  -26.1584  -49.5171 N.am      15 UNK        -0.5000 
     85 CA         -0.7598  -26.5419  -50.7441 C.3       15 UNK         0.1400 
     86 CB         -1.3713  -25.2865  -51.3808 C.3       15 UNK        -0.1800 
     87 C          -1.8542  -27.6019  -50.5117 C.2       15 UNK         0.5000 
     88 O          -2.1690  -28.3551  -51.4336 O.2       15 UNK        -0.5000 
     89 N          -2.4204  -27.6160  -49.2959 N.am      16 UNK        -0.5000 
     90 CA         -3.5783  -28.3942  -48.8463 C.3       16 UNK         0.1400 
     91 CB         -3.2748  -29.9067  -48.8627 C.3       16 UNK        -0.1800 
     92 C          -4.8660  -28.0167  -49.6105 C.2       16 UNK         0.5000 
     93 O          -5.7158  -28.8743  -49.8593 O.2       16 UNK        -0.5000 
     94 N          -4.9790  -26.7347  -49.9765 N.am      17 UNK        -0.5000 
     95 CA         -6.0382  -26.1509  -50.7915 C.3       17 UNK         0.1400 
     96 CB         -5.9157  -26.6395  -52.2493 C.3       17 UNK        -0.1800 
     97 C          -5.9157  -24.6222  -50.7312 C.2       17 UNK         0.5000 
     98 O          -4.8766  -24.1029  -50.3150 O.2       17 UNK        -0.5000 
     99 N          -6.9596  -23.9197  -51.1876 N.am      18 UNK        -0.5000 
    100 CA        -7.0028  -22.4608  -51.3119 C.3       18 UNK         0.1400 
    101 CB        -8.4709  -22.0048  -51.3883 C.3       18 UNK        -0.1800 
    102 C         -6.1674  -21.9658  -52.5119 C.2       18 UNK         0.5000 
    103 O         -6.7171  -21.4454  -53.4854 O.2       18 UNK        -0.5000 
    104 N         -4.8448  -22.1554  -52.4225 N.am      19 UNK        -0.5000 
    105 CA        -3.8401  -21.6975  -53.3823 C.3       19 UNK         0.1400 
    106 CB        -2.4523  -22.1384  -52.8999 C.3       19 UNK        -0.1800 
    107 C         -3.8900  -20.1738  -53.5849 C.2       19 UNK         0.5000 
    108 O         -4.1646  -19.4437  -52.6301 O.2       19 UNK        -0.5000 
    109 N         -3.6865  -19.7332  -54.8341 N.am      20 UNK        -0.5000 
    110 CA        -3.8129  -18.3444  -55.3034 C.3       20 UNK         0.1400 
    111 CB        -2.7049  -17.4627  -54.6887 C.3       20 UNK        -0.1800 
    112 C         -5.2289  -17.7439  -55.1142 C.2       20 UNK         0.5000 
    113 O         -5.3831  -16.5226  -55.1461 O.2       20 UNK        -0.5000 
    114 N         -6.2322  -18.6188  -54.9311 N.am      21 UNK        -0.5000 
    115 CA        -7.6287  -18.3350  -54.5879 C.3       21 UNK         0.1400 
    116 CB        -8.3305  -17.5365  -55.7070 C.3       21 UNK        -0.1800 
    117 C         -7.7961  -17.6999  -53.1893 C.2       21 UNK         0.5000 
    118 O         -8.7597  -16.9636  -52.9672 O.2       21 UNK        -0.5000 
    119 N         -6.8725  -17.9972  -52.2661 N.am      22 UNK        -0.5000 
    120 CA        -6.8521  -17.4430  -50.9031 C.3       22 UNK         0.1400 
    121 C         -6.2494  -18.3898  -49.8295 C.2       22 UNK         0.5000 
    122 N         -5.3873  -19.3384  -50.1698 N.am      22 UNK        -0.7600 
    123 O         -6.5860  -18.2694  -48.6552 O.2       22 UNK        -0.5000 
    124 C124       -6.2310  -16.0194  -50.8446 C.3       23 UNK        -0.0398 
    125 S125       -4.5955  -15.8918  -51.6512 S.3       23 UNK        -0.2404 
    126 C126       -3.4812  -16.0729  -50.2310 C.3       23 UNK        -0.0205 
    127 H127        5.6956  -14.2171  -52.5565 H         1 UNK         0.0600 
    128 H128        6.9915  -15.4062  -52.3993 H         1 UNK         0.0600 
    129 H129        7.2544  -13.7380  -51.8793 H         1 UNK         0.0600 
    130 H130        4.1382  -14.3893  -50.9684 H         1 UNK         0.3000 
    131 H131        4.5452  -15.9139  -48.5453 H         1 UNK         0.0600 
    132 H132        2.1487  -15.3224  -48.0876 H         1 UNK         0.0800 
    133 H133        2.4090  -16.1542  -49.5833 H         1 UNK         0.0800 
    134 H134        2.0904  -15.0535  -52.0200 H         1 UNK         0.0800 
    135 H135        0.7868  -13.9033  -52.1785 H         1 UNK         0.0800 
    136 H136       -1.4135  -14.3877  -50.8191 H         1 UNK         0.1150 
    137 H137       -2.4274  -18.5452  -50.6130 H         1 UNK         0.1150 
    138 H138        1.5381  -17.3599  -51.7290 H         1 UNK         0.1150 
    139 H139       -0.8255  -20.2302  -51.0457 H         1 UNK         0.0800 
    140 H140        0.2228  -19.7841  -52.3721 H         1 UNK         0.0800 
    141 H141       -0.2194  -19.4290  -48.6336 H         1 UNK         0.0800 
    142 H142        1.4095  -19.1524  -48.0969 H         1 UNK         0.0800 
    143 H143        1.7195  -21.7373  -48.1216 H         1 UNK         0.0600 
    144 H144        0.6559  -20.0937  -46.0728 H         1 UNK         0.3000 
    145 H145        0.9577  -22.5675  -43.4797 H         1 UNK         0.0600 
    146 H146        2.4463  -20.8147  -42.5834 H         1 UNK         0.0600 
    147 H147        3.2254  -21.6222  -43.9340 H         1 UNK         0.0600 
    148 H148        2.5218  -20.0266  -44.1596 H         1 UNK         0.0600 
    149 H149        0.2066  -20.0173  -42.9987 H         1 UNK         0.3000 
    150 H150       -3.2232  -20.6452  -42.8381 H         1 UNK         0.0600 
    151 H151       -1.4643  -20.4568  -41.0713 H         1 UNK         0.0600 
    152 H152       -2.5165  -19.0531  -41.1164 H         1 UNK         0.0600 
    153 H153       -0.8959  -18.9486  -41.7842 H         1 UNK         0.0600 
    154 H154       -2.1146  -18.0509  -43.6723 H         1 UNK         0.3000 
    155 H155       -4.4905  -17.6535  -46.3022 H         1 UNK         0.0600 
    156 H156       -4.9980  -15.5989  -45.0075 H         1 UNK         0.0600 
    157 H157       -5.7246  -16.9998  -44.2360 H         1 UNK         0.0600 
    158 H158       -4.2597  -16.2931  -43.5634 H         1 UNK         0.0600 
    159 H159       -2.3439  -16.0991  -45.0643 H         1 UNK         0.3000 
    160 H160       -0.0744  -16.6798  -47.7935 H         1 UNK         0.0600 
    161 H161       -1.5727  -14.2791  -46.5905 H         1 UNK         0.0600 
    162 H162       -1.6378  -14.7630  -48.2745 H         1 UNK         0.0600 
    163 H163       -0.1253  -14.2023  -47.5869 H         1 UNK         0.0600 
    164 H164        0.2915  -15.2698  -45.3624 H         1 UNK         0.3000 
    165 H165        1.2071  -17.8446  -43.1750 H         1 UNK         0.0600 
    166 H166        3.0811  -15.9218  -44.6394 H         1 UNK         0.0600 
    167 H167        3.3750  -16.5994  -43.0351 H         1 UNK         0.0600 
    168 H168        3.3283  -17.6500  -44.4435 H         1 UNK         0.0600 
    169 H169        1.4581  -15.0764  -42.8363 H         1 UNK         0.3000 
    170 H170       -1.5865  -13.9230  -42.4419 H         1 UNK         0.0600 
    171 H171       -2.4150  -15.4430  -40.6879 H         1 UNK         0.0600 
    172 H172       -0.8636  -15.4122  -39.8654 H         1 UNK         0.0600 
    173 H173       -1.8477  -13.9515  -39.9569 H         1 UNK         0.0600 
    174 H174        0.0925  -12.5648  -42.0402 H         1 UNK         0.3000 
    175 H175        1.7265  -11.6043  -40.2462 H         1 UNK         0.0600 
    176 H176        3.4068  -13.0008  -39.0633 H         1 UNK         0.0600 
    177 H177        4.1889  -13.3938  -40.5908 H         1 UNK         0.0600 
    178 H178        4.1930  -11.7355  -39.9903 H         1 UNK         0.0600 
    179 H179        3.5096  -12.0053  -42.4884 H         1 UNK         0.3000 
    180 H180        1.5178  -10.7542  -45.0124 H         1 UNK         0.0600 
    181 H181        1.8097   -8.5305  -43.9156 H         1 UNK         0.0600 
    182 H182        2.9858   -8.7595  -45.1987 H         1 UNK         0.0600 
    183 H183        3.4748   -8.9306  -43.5121 H         1 UNK         0.0600 
    184 H184        4.3647  -10.8678  -44.7361 H         1 UNK         0.3000 
    185 H185        5.4536  -12.4091  -45.9704 H         1 UNK         0.0600 
    186 H186        5.7405  -13.1742  -43.6391 H         1 UNK         0.0600 
    187 H187        4.9332  -14.6931  -43.9885 H         1 UNK         0.0600 
    188 H188        6.4840  -14.3232  -44.7374 H         1 UNK         0.0600 
    189 H189        4.5080  -15.1530  -46.4108 H         1 UNK         0.3000 
    190 H190       -1.6522  -21.2082  -47.0615 H         1 UNK         0.3000 
    191 H191       -2.8377  -22.8874  -49.0927 H         1 UNK         0.0600 
    192 H192       -3.9852  -21.9360  -46.4176 H         1 UNK         0.0600 
    193 H193       -4.8962  -22.5849  -47.7763 H         1 UNK         0.0600 
    194 H194       -4.0774  -21.0354  -47.9288 H         1 UNK         0.0600 
    195 H195       -1.7764  -23.3527  -45.7043 H         1 UNK         0.3000 
    196 H196       -2.6843  -26.0192  -45.3777 H         1 UNK         0.0600 
    197 H197       -1.1016  -26.0511  -43.4554 H         1 UNK         0.0600 
    198 H198       -2.0211  -24.5535  -43.4869 H         1 UNK         0.0600 
    199 H199       -0.3449  -24.5713  -44.0300 H         1 UNK         0.0600 
    200 H200        0.4665  -24.7537  -46.5648 H         1 UNK         0.3000 
    201 H201        1.7235  -27.2746  -46.9615 H         1 UNK         0.0600 
    202 H202        2.9920  -25.1605  -46.8236 H         1 UNK         0.0600 
    203 H203        2.2205  -24.5566  -48.2888 H         1 UNK         0.0600 
    204 H204        3.3122  -25.9357  -48.3671 H         1 UNK         0.0600 
    205 H205       -0.2619  -25.2376  -49.1442 H         1 UNK         0.3000 
    206 H206       -0.0322  -26.9606  -51.4424 H         1 UNK         0.0600 
    207 H207       -0.6026  -24.5509  -51.6189 H         1 UNK         0.0600 
    208 H208       -1.8880  -25.5332  -52.3091 H         1 UNK         0.0600 
    209 H209       -2.0954  -24.8101  -50.7185 H         1 UNK         0.0600 
    210 H210       -2.1299  -26.8914  -48.6495 H         1 UNK         0.3000 
    211 H211       -3.7473  -28.1046  -47.8082 H         1 UNK         0.0600 
    212 H212       -3.1663  -30.2895  -49.8777 H         1 UNK         0.0600 
    213 H213       -4.0774  -30.4703  -48.3859 H         1 UNK         0.0600 
    214 H214       -2.3562  -30.1284  -48.3192 H         1 UNK         0.0600 
    215 H215       -4.2755  -26.0674  -49.6725 H         1 UNK         0.3000 
    216 H216       -7.0065  -26.4401  -50.3788 H         1 UNK         0.0600 
    217 H217       -4.9423  -26.3876  -52.6727 H         1 UNK         0.0600 
    218 H218       -6.6777  -26.1880  -52.8854 H         1 UNK         0.0600 
    219 H219       -6.0402  -27.7197  -52.3229 H         1 UNK         0.0600 
    220 H220       -7.7626  -24.4176  -51.5438 H         1 UNK         0.3000 
    221 H221       -6.5700  -22.0201  -50.4112 H         1 UNK         0.0600 
    222 H222       -9.0232  -22.3047  -50.4976 H         1 UNK         0.0600 
    223 H223       -8.9803  -22.4236  -52.2570 H         1 UNK         0.0600 
    224 H224       -8.5370  -20.9180  -51.4590 H         1 UNK         0.0600 
    225 H225       -4.5037  -22.6447  -51.6016 H         1 UNK         0.3000 
    226 H226       -4.0484  -22.1820  -54.3382 H         1 UNK         0.0600 
    227 H227       -2.3518  -23.2201  -52.9667 H         1 UNK         0.0600 
    228 H228       -1.6590  -21.7026  -53.5087 H         1 UNK         0.0600 
    229 H229       -2.2757  -21.8490  -51.8638 H         1 UNK         0.0600 
    230 H230       -3.4791  -20.4114  -55.5543 H         1 UNK         0.3000 
    231 H231       -3.6465  -18.3728  -56.3811 H         1 UNK         0.0600 
    232 H232       -2.8263  -17.3502  -53.6115 H         1 UNK         0.0600 
    233 H233       -2.7103  -16.4620  -55.1217 H         1 UNK         0.0600 
    234 H234       -1.7173  -17.8873  -54.8679 H         1 UNK         0.0600 
    235 H235       -5.9902  -19.6004  -54.9072 H         1 UNK         0.3000 
    236 H236       -8.1220  -19.3060  -54.5291 H         1 UNK         0.0600 
    237 H237       -9.4055  -17.4817  -55.5316 H         1 UNK         0.0600 
    238 H238       -7.9600  -16.5132  -55.7708 H         1 UNK         0.0600 
    239 H239       -8.1860  -18.0082  -56.6789 H         1 UNK         0.0600 
    240 H240       -6.0839  -18.5788  -52.5212 H         1 UNK         0.3000 
    241 H241       -7.8932  -17.3393  -50.5906 H         1 UNK         0.0600 
    242 H242       -5.0134  -19.9196  -49.4399 H         1 UNK         0.3800 
    243 H243       -4.9773  -19.3788  -51.1025 H         1 UNK         0.3800 
    244 H244       -6.1700  -15.6559  -49.8173 H         1 UNK         0.0800 
    245 H245       -6.8949  -15.3228  -51.3577 H         1 UNK         0.0800 
    246 H246       -3.8512  -16.8461  -49.5575 H         1 UNK         0.0800 
    247 H247       -3.4810  -15.1439  -49.6606 H         1 UNK         0.0800 
@<TRIPOS>BOND
     1    1    2 1    
     2    1  127 1    
     3    1  128 1    
     4    1  129 1    
     5    2    3 2    
     6    2    4 am   BACKBONE|DICT|INTERRES
     7    4    5 1    
     8    4  130 1    
     9    5    6 1    
    10    5   65 1    
    11    5  131 1    
    12    6    7 1    
    13    6  132 1    
    14    6  133 1    
    15    7    8 1    
    16    8    9 1    
    17    8  134 1    
    18    8  135 1    
    19    9   10 ar   
    20    9   14 ar   
    21   10   11 ar   
    22   10  136 1    
    23   11   12 ar   
    24   11  126 1    
    25   12   13 ar   
    26   12  137 1    
    27   13   14 ar   
    28   13   15 1    
    29   14  138 1    
    30   15   16 1    
    31   15  139 1    
    32   15  140 1    
    33   16   17 1    
    34   17   18 1    
    35   17  141 1    
    36   17  142 1    
    37   18   19 1    
    38   18   67 1    
    39   18  143 1    
    40   19   20 am   BACKBONE|DICT|INTERRES
    41   19  144 1    
    42   20   21 2    
    43   20   22 1    
    44   22   23 1    
    45   22   24 1    
    46   22  145 1    
    47   23  146 1    
    48   23  147 1    
    49   23  148 1    
    50   24   25 am   BACKBONE|DICT|INTERRES
    51   24  149 1    
    52   25   26 2    
    53   25   27 1    
    54   27   28 1    
    55   27   29 1    
    56   27  150 1    
    57   28  151 1    
    58   28  152 1    
    59   28  153 1    
    60   29   30 am   BACKBONE|DICT|INTERRES
    61   29  154 1    
    62   30   31 2    
    63   30   32 1    
    64   32   33 1    
    65   32   34 1    
    66   32  155 1    
    67   33  156 1    
    68   33  157 1    
    69   33  158 1    
    70   34   35 am   BACKBONE|DICT|INTERRES
    71   34  159 1    
    72   35   36 2    
    73   35   37 1    
    74   37   38 1    
    75   37   39 1    
    76   37  160 1    
    77   38  161 1    
    78   38  162 1    
    79   38  163 1    
    80   39   40 am   BACKBONE|DICT|INTERRES
    81   39  164 1    
    82   40   41 2    
    83   40   42 1    
    84   42   43 1    
    85   42   44 1    
    86   42  165 1    
    87   43  166 1    
    88   43  167 1    
    89   43  168 1    
    90   44   45 am   BACKBONE|DICT|INTERRES
    91   44  169 1    
    92   45   46 2    
    93   45   47 1    
    94   47   48 1    
    95   47   49 1    
    96   47  170 1    
    97   48  171 1    
    98   48  172 1    
    99   48  173 1    
   100   49   50 am   BACKBONE|DICT|INTERRES
   101   49  174 1    
   102   50   51 2    
   103   50   52 1    
   104   52   53 1    
   105   52   54 1    
   106   52  175 1    
   107   53  176 1    
   108   53  177 1    
   109   53  178 1    
   110   54   55 am   BACKBONE|DICT|INTERRES
   111   54  179 1    
   112   55   56 2    
   113   55   57 1    
   114   57   58 1    
   115   57   59 1    
   116   57  180 1    
   117   58  181 1    
   118   58  182 1    
   119   58  183 1    
   120   59   60 am   BACKBONE|DICT|INTERRES
   121   59  184 1    
   122   60   61 2    
   123   60   62 1    
   124   62   63 1    
   125   62   64 1    
   126   62  185 1    
   127   63  186 1    
   128   63  187 1    
   129   63  188 1    
   130   64   65 am   BACKBONE|DICT|INTERRES
   131   64  189 1    
   132   65   66 2    
   133   67   68 2    
   134   67   69 am   BACKBONE|DICT|INTERRES
   135   69   70 1    
   136   69  190 1    
   137   70   71 1    
   138   70   72 1    
   139   70  191 1    
   140   71  192 1    
   141   71  193 1    
   142   71  194 1    
   143   72   73 2    
   144   72   74 am   BACKBONE|DICT|INTERRES
   145   74   75 1    
   146   74  195 1    
   147   75   76 1    
   148   75   77 1    
   149   75  196 1    
   150   76  197 1    
   151   76  198 1    
   152   76  199 1    
   153   77   78 2    
   154   77   79 am   BACKBONE|DICT|INTERRES
   155   79   80 1    
   156   79  200 1    
   157   80   81 1    
   158   80   82 1    
   159   80  201 1    
   160   81  202 1    
   161   81  203 1    
   162   81  204 1    
   163   82   83 2    
   164   82   84 am   BACKBONE|DICT|INTERRES
   165   84   85 1    
   166   84  205 1    
   167   85   86 1    
   168   85   87 1    
   169   85  206 1    
   170   86  207 1    
   171   86  208 1    
   172   86  209 1    
   173   87   88 2    
   174   87   89 am   BACKBONE|DICT|INTERRES
   175   89   90 1    
   176   89  210 1    
   177   90   91 1    
   178   90   92 1    
   179   90  211 1    
   180   91  212 1    
   181   91  213 1    
   182   91  214 1    
   183   92   93 2    
   184   92   94 am   BACKBONE|DICT|INTERRES
   185   94   95 1    
   186   94  215 1    
   187   95   96 1    
   188   95   97 1    
   189   95  216 1    
   190   96  217 1    
   191   96  218 1    
   192   96  219 1    
   193   97   98 2    
   194   97   99 am   BACKBONE|DICT|INTERRES
   195   99  100 1    
   196   99  220 1    
   197  100  101 1    
   198  100  102 1    
   199  100  221 1    
   200  101  222 1    
   201  101  223 1    
   202  101  224 1    
   203  102  103 2    
   204  102  104 am   BACKBONE|DICT|INTERRES
   205  104  105 1    
   206  104  225 1    
   207  105  106 1    
   208  105  107 1    
   209  105  226 1    
   210  106  227 1    
   211  106  228 1    
   212  106  229 1    
   213  107  108 2    
   214  107  109 am   BACKBONE|DICT|INTERRES
   215  109  110 1    
   216  109  230 1    
   217  110  111 1    
   218  110  112 1    
   219  110  231 1    
   220  111  232 1    
   221  111  233 1    
   222  111  234 1    
   223  112  113 2    
   224  112  114 am   BACKBONE|DICT|INTERRES
   225  114  115 1    
   226  114  235 1    
   227  115  116 1    
   228  115  117 1    
   229  115  236 1    
   230  116  237 1    
   231  116  238 1    
   232  116  239 1    
   233  117  118 2    
   234  117  119 am   BACKBONE|DICT|INTERRES
   235  119  120 1    
   236  119  240 1    
   237  120  121 1    
   238  120  124 1    
   239  120  241 1    
   240  121  122 am   BACKBONE|DICT|INTERRES
   241  121  123 2    
   242  122  242 1    
   243  122  243 1    
   244  124  125 1    
   245  124  244 1    
   246  124  245 1    
   247  125  126 1    
   248  126  246 1    
   249  126  247 1    
@<TRIPOS>SUBSTRUCTURE
     1 UNK         1 GROUP             0       ****    0 ROOT    
