@<TRIPOS>MOLECULE
3R540
247   249    1
SMALL
USER_CHARGES


@<TRIPOS>ATOM
      1 CA          2.5888  -11.3880  -50.5010 C.3       0 UNK        -0.1800 
      2 C           1.4009  -11.5571  -49.5644 C.2       0 UNK         0.5000 
      3 O           0.4583  -10.7680  -49.6284 O.2       0 UNK        -0.5000 
      4 N           1.4521  -12.5787  -48.6968 N.am      1 UNK        -0.5000 
      5 CA          0.4205  -12.9438  -47.7094 C.3       1 UNK         0.1400 
      6 C6         -0.9297  -13.3924  -48.3436 C.3       23 UNK        -0.0398 
      7 S7         -0.7331  -14.6453  -49.6589 S.3       23 UNK        -0.2404 
      8 C8         -1.1506  -16.1857  -48.7897 C.3       23 UNK        -0.0205 
      9 C9         -0.7677  -17.3891  -49.6330 C.ar      23 UNK        -0.0193 
     10 C10        -1.7076  -18.0112  -50.4587 C.ar      23 UNK        -0.1150 
     11 C11        -1.3406  -19.1003  -51.2559 C.ar      23 UNK        -0.0193 
     12 C12        -0.0245  -19.5725  -51.2114 C.ar      23 UNK        -0.1150 
     13 C13         0.9210  -18.9623  -50.3820 C.ar      23 UNK        -0.0193 
     14 C14         0.5423  -17.8710  -49.5966 C.ar      23 UNK        -0.1150 
     15 C15         2.3591  -19.4601  -50.3473 C.3       23 UNK        -0.0205 
     16 S16         2.5339  -21.0826  -49.5383 S.3       23 UNK        -0.2404 
     17 C17         1.9253  -20.7572  -47.8457 C.3       23 UNK        -0.0398 
     18 CA          0.9847  -21.8732  -47.3345 C.3       11 UNK         0.1400 
     19 N           0.7956  -21.8097  -45.8854 N.am      11 UNK        -0.5000 
     20 C           0.2224  -22.7744  -45.1523 C.2       10 UNK         0.5000 
     21 O          -0.1779  -23.8429  -45.6156 O.2       10 UNK        -0.5000 
     22 CA          0.0216  -22.4766  -43.6566 C.3       10 UNK         0.1400 
     23 CB          1.3352  -22.6592  -42.8821 C.3       10 UNK        -0.1800 
     24 N          -0.5165  -21.1363  -43.4174 N.am      10 UNK        -0.5000 
     25 C          -1.7182  -20.7208  -43.8448 C.2       9 UNK         0.5000 
     26 O          -2.5089  -21.4342  -44.4608 O.2       9 UNK        -0.5000 
     27 CA         -2.0918  -19.2550  -43.5712 C.3       9 UNK         0.1400 
     28 CB         -2.5679  -19.0798  -42.1216 C.3       9 UNK        -0.1800 
     29 N          -0.9968  -18.3268  -43.8506 N.am      9 UNK        -0.5000 
     30 C          -0.4530  -18.1310  -45.0607 C.2       8 UNK         0.5000 
     31 O          -0.8245  -18.7043  -46.0836 O.2       8 UNK        -0.5000 
     32 CA          0.7479  -17.1726  -45.1308 C.3       8 UNK         0.1400 
     33 CB          0.2997  -15.7108  -44.9750 C.3       8 UNK        -0.1800 
     34 N           1.7592  -17.4780  -44.1214 N.am      8 UNK        -0.5000 
     35 C           2.4089  -18.6445  -44.0038 C.2       7 UNK         0.5000 
     36 O           2.2682  -19.5938  -44.7744 O.2       7 UNK        -0.5000 
     37 CA          3.3362  -18.7885  -42.7867 C.3       7 UNK         0.1400 
     38 CB          4.6928  -18.1181  -43.0490 C.3       7 UNK        -0.1800 
     39 N           2.7343  -18.2286  -41.5766 N.am      7 UNK        -0.5000 
     40 C           1.6771  -18.7573  -40.9443 C.2       6 UNK         0.5000 
     41 O           1.1089  -19.7892  -41.3015 O.2       6 UNK        -0.5000 
     42 CA          1.1414  -17.9741  -39.7329 C.3       6 UNK         0.1400 
     43 CB          2.0082  -18.2275  -38.4903 C.3       6 UNK        -0.1800 
     44 N           1.0619  -16.5352  -39.9891 N.am      6 UNK        -0.5000 
     45 C           0.2277  -15.9766  -40.8766 C.2       5 UNK         0.5000 
     46 O          -0.5701  -16.6152  -41.5609 O.2       5 UNK        -0.5000 
     47 CA          0.3206  -14.4527  -41.0573 C.3       5 UNK         0.1400 
     48 CB         -0.5385  -13.7304  -40.0093 C.3       5 UNK        -0.1800 
     49 N           1.6828  -13.9207  -41.0108 N.am      5 UNK        -0.5000 
     50 C           2.6963  -14.2666  -41.8149 C.2       4 UNK         0.5000 
     51 O           2.6442  -15.2031  -42.6135 O.2       4 UNK        -0.5000 
     52 CA          3.9603  -13.3835  -41.7282 C.3       4 UNK         0.1400 
     53 CB          5.0816  -13.8589  -42.6692 C.3       4 UNK        -0.1800 
     54 N           3.6467  -11.9859  -42.0373 N.am      4 UNK        -0.5000 
     55 C           3.0477  -11.1223  -41.2063 C.2       3 UNK         0.5000 
     56 O           2.7673  -11.3937  -40.0374 O.2       3 UNK        -0.5000 
     57 CA          2.6623   -9.7418  -41.7707 C.3       3 UNK         0.1400 
     58 CB          3.7122   -8.6921  -41.3752 C.3       3 UNK        -0.1800 
     59 N           2.4695   -9.6941  -43.2243 N.am      3 UNK        -0.5000 
     60 C           1.5369  -10.3567  -43.9254 C.2       2 UNK         0.5000 
     61 O           0.7801  -11.1913  -43.4270 O.2       2 UNK        -0.5000 
     62 CA          1.4063   -9.9984  -45.4230 C.3       2 UNK         0.1400 
     63 CB          2.5320   -9.0842  -45.9513 C.3       2 UNK        -0.1800 
     64 N           1.3506  -11.1871  -46.2715 N.am      2 UNK        -0.5000 
     65 C           0.2373  -11.8386  -46.6377 C.2       1 UNK         0.5000 
     66 O          -0.8859  -11.5694  -46.2076 O.2       1 UNK        -0.5000 
     67 C          -0.3643  -21.9085  -48.0820 C.2       11 UNK         0.5000 
     68 O          -0.5349  -22.7481  -48.9648 O.2       11 UNK        -0.5000 
     69 N          -1.3180  -21.0553  -47.6787 N.am      12 UNK        -0.5000 
     70 CA         -2.6749  -21.0285  -48.2239 C.3       12 UNK         0.1400 
     71 CB         -3.4518  -19.8365  -47.6480 C.3       12 UNK        -0.1800 
     72 C          -3.4377  -22.3454  -47.9987 C.2       12 UNK         0.5000 
     73 O          -4.0638  -22.8447  -48.9335 O.2       12 UNK        -0.5000 
     74 N          -3.3420  -22.9051  -46.7844 N.am      13 UNK        -0.5000 
     75 CA         -3.9132  -24.2017  -46.4202 C.3       13 UNK         0.1400 
     76 CB         -3.7223  -24.4555  -44.9174 C.3       13 UNK        -0.1800 
     77 C          -3.3319  -25.3564  -47.2545 C.2       13 UNK         0.5000 
     78 O          -4.1001  -26.1507  -47.8005 O.2       13 UNK        -0.5000 
     79 N          -1.9957  -25.3946  -47.3740 N.am      14 UNK        -0.5000 
     80 CA         -1.2529  -26.3619  -48.1854 C.3       14 UNK         0.1400 
     81 CB          0.2543  -26.1790  -47.9530 C.3       14 UNK        -0.1800 
     82 C          -1.5877  -26.2740  -49.6859 C.2       14 UNK         0.5000 
     83 O          -1.7096  -27.3076  -50.3438 O.2       14 UNK        -0.5000 
     84 N          -1.7960  -25.0509  -50.1880 N.am      15 UNK        -0.5000 
     85 CA         -2.2262  -24.7282  -51.5498 C.3       15 UNK         0.1400 
     86 CB         -1.8149  -23.2801  -51.8543 C.3       15 UNK        -0.1800 
     87 C          -3.7343  -24.9717  -51.7950 C.2       15 UNK         0.5000 
     88 O          -4.3877  -24.1612  -52.4544 O.2       15 UNK        -0.5000 
     89 N          -4.2489  -26.0933  -51.2710 N.am      16 UNK        -0.5000 
     90 CA         -5.6146  -26.6084  -51.3937 C.3       16 UNK         0.1400 
     91 CB         -5.8626  -27.1291  -52.8240 C.3       16 UNK        -0.1800 
     92 C          -6.6964  -25.6248  -50.8991 C.2       16 UNK         0.5000 
     93 O          -7.7126  -25.4364  -51.5701 O.2       16 UNK        -0.5000 
     94 N          -6.4583  -25.0447  -49.7131 N.am      17 UNK        -0.5000 
     95 CA         -7.3364  -24.1120  -48.9964 C.3       17 UNK         0.1400 
     96 CB         -8.6345  -24.8146  -48.5448 C.3       17 UNK        -0.1800 
     97 C          -7.5853  -22.7980  -49.7684 C.2       17 UNK         0.5000 
     98 O          -8.7336  -22.3866  -49.9479 O.2       17 UNK        -0.5000 
     99 N          -6.4756  -22.1597  -50.1607 N.am      18 UNK        -0.5000 
    100 CA        -6.3327  -20.8686  -50.8368 C.3       18 UNK         0.1400 
    101 CB        -7.0025  -19.7394  -50.0272 C.3       18 UNK        -0.1800 
    102 C         -6.7950  -20.8548  -52.3070 C.2       18 UNK         0.5000 
    103 O         -7.5460  -21.7238  -52.7527 O.2       18 UNK        -0.5000 
    104 N         -6.3147  -19.8365  -53.0355 N.am      19 UNK        -0.5000 
    105 CA        -6.5939  -19.4524  -54.4277 C.3       19 UNK         0.1400 
    106 CB        -8.0831  -19.1050  -54.6125 C.3       19 UNK        -0.1800 
    107 C         -6.1270  -20.4448  -55.5123 C.2       19 UNK         0.5000 
    108 O         -5.6786  -20.0077  -56.5727 O.2       19 UNK        -0.5000 
    109 N         -6.2549  -21.7483  -55.2488 N.am      20 UNK        -0.5000 
    110 CA        -6.0592  -22.8358  -56.2054 C.3       20 UNK         0.1400 
    111 CB        -6.5952  -24.1317  -55.5815 C.3       20 UNK        -0.1800 
    112 C         -4.6092  -23.0321  -56.6847 C.2       20 UNK         0.5000 
    113 O         -4.4159  -23.5133  -57.8026 O.2       20 UNK        -0.5000 
    114 N         -3.6224  -22.6837  -55.8488 N.am      21 UNK        -0.5000 
    115 CA        -2.2044  -22.9317  -56.1185 C.3       21 UNK         0.1400 
    116 CB        -1.8396  -24.3747  -55.7111 C.3       21 UNK        -0.1800 
    117 C         -1.2951  -21.8659  -55.4814 C.2       21 UNK         0.5000 
    118 O         -0.2070  -22.1950  -55.0071 O.2       21 UNK        -0.5000 
    119 N         -1.7439  -20.6031  -55.4794 N.am      22 UNK        -0.5000 
    120 CA        -0.9515  -19.4557  -54.9908 C.3       22 UNK         0.1400 
    121 C          0.1371  -18.9522  -55.9858 C.2       22 UNK         0.5000 
    122 N          0.1740  -19.4153  -57.2296 N.am      22 UNK        -0.7600 
    123 O          0.9710  -18.1287  -55.6200 O.2       22 UNK        -0.5000 
    124 C124       -1.8382  -18.2738  -54.5153 C.3       23 UNK        -0.0398 
    125 S125       -3.1710  -18.6887  -53.3366 S.3       23 UNK        -0.2404 
    126 C126       -2.3734  -19.7958  -52.1305 C.3       23 UNK        -0.0205 
    127 H127        2.2599  -11.4507  -51.5383 H         1 UNK         0.0600 
    128 H128        3.3470  -12.1544  -50.3384 H         1 UNK         0.0600 
    129 H129        3.0520  -10.4134  -50.3471 H         1 UNK         0.0600 
    130 H130        2.2572  -13.1886  -48.7175 H         1 UNK         0.3000 
    131 H131        0.8241  -13.8044  -47.1765 H         1 UNK         0.0600 
    132 H132       -1.6003  -13.7843  -47.5771 H         1 UNK         0.0800 
    133 H133       -1.4450  -12.5361  -48.7815 H         1 UNK         0.0800 
    134 H134       -0.6175  -16.2299  -47.8414 H         1 UNK         0.0800 
    135 H135       -2.2157  -16.2024  -48.5538 H         1 UNK         0.0800 
    136 H136       -2.7237  -17.6438  -50.4876 H         1 UNK         0.1150 
    137 H137        0.2667  -20.4231  -51.8119 H         1 UNK         0.1150 
    138 H138        1.2699  -17.3864  -48.9608 H         1 UNK         0.1150 
    139 H139        2.7323  -19.5364  -51.3695 H         1 UNK         0.0800 
    140 H140        3.0059  -18.7415  -49.8415 H         1 UNK         0.0800 
    141 H141        1.4397  -19.7836  -47.7772 H         1 UNK         0.0800 
    142 H142        2.8043  -20.6949  -47.2030 H         1 UNK         0.0800 
    143 H143        1.4791  -22.8272  -47.5319 H         1 UNK         0.0600 
    144 H144        1.1254  -20.9666  -45.4221 H         1 UNK         0.3000 
    145 H145       -0.7012  -23.1982  -43.2705 H         1 UNK         0.0600 
    146 H146        1.1779  -22.5470  -41.8093 H         1 UNK         0.0600 
    147 H147        1.7515  -23.6537  -43.0471 H         1 UNK         0.0600 
    148 H148        2.0880  -21.9320  -43.1874 H         1 UNK         0.0600 
    149 H149        0.0652  -20.5009  -42.8805 H         1 UNK         0.3000 
    150 H150       -2.9210  -18.9964  -44.2328 H         1 UNK         0.0600 
    151 H151       -3.3837  -19.7661  -41.8913 H         1 UNK         0.0600 
    152 H152       -2.9357  -18.0684  -41.9483 H         1 UNK         0.0600 
    153 H153       -1.7648  -19.2703  -41.4085 H         1 UNK         0.0600 
    154 H154       -0.6508  -17.7896  -43.0597 H         1 UNK         0.3000 
    155 H155        1.2114  -17.2883  -46.1126 H         1 UNK         0.0600 
    156 H156       -0.1367  -15.5284  -43.9946 H         1 UNK         0.0600 
    157 H157       -0.4552  -15.4422  -45.7127 H         1 UNK         0.0600 
    158 H158        1.1398  -15.0265  -45.0942 H         1 UNK         0.0600 
    159 H159        1.9789  -16.7352  -43.4620 H         1 UNK         0.3000 
    160 H160        3.5096  -19.8537  -42.6201 H         1 UNK         0.0600 
    161 H161        4.5859  -17.0499  -43.2383 H         1 UNK         0.0600 
    162 H162        5.1802  -18.5570  -43.9204 H         1 UNK         0.0600 
    163 H163        5.3667  -18.2441  -42.2015 H         1 UNK         0.0600 
    164 H164        3.0979  -17.3432  -41.2565 H         1 UNK         0.3000 
    165 H165        0.1328  -18.3370  -39.5232 H         1 UNK         0.0600 
    166 H166        1.5863  -17.7419  -37.6103 H         1 UNK         0.0600 
    167 H167        2.0731  -19.2943  -38.2717 H         1 UNK         0.0600 
    168 H168        3.0254  -17.8570  -38.6233 H         1 UNK         0.0600 
    169 H169        1.6906  -15.9369  -39.4738 H         1 UNK         0.3000 
    170 H170       -0.0828  -14.2128  -42.0425 H         1 UNK         0.0600 
    171 H171       -1.5687  -14.0884  -40.0335 H         1 UNK         0.0600 
    172 H172       -0.1586  -13.8874  -38.9991 H         1 UNK         0.0600 
    173 H173       -0.5645  -12.6563  -40.1950 H         1 UNK         0.0600 
    174 H174        1.8321  -13.1173  -40.4092 H         1 UNK         0.3000 
    175 H175        4.3349  -13.4471  -40.7046 H         1 UNK         0.0600 
    176 H176        4.7667  -13.8444  -43.7134 H         1 UNK         0.0600 
    177 H177        5.9669  -13.2296  -42.5769 H         1 UNK         0.0600 
    178 H178        5.3851  -14.8785  -42.4298 H         1 UNK         0.0600 
    179 H179        3.8060  -11.6896  -42.9887 H         1 UNK         0.3000 
    180 H180        1.7134   -9.4632  -41.3079 H         1 UNK         0.0600 
    181 H181        4.6788   -8.8966  -41.8374 H         1 UNK         0.0600 
    182 H182        3.8621   -8.6753  -40.2947 H         1 UNK         0.0600 
    183 H183        3.4016   -7.6903  -41.6728 H         1 UNK         0.0600 
    184 H184        3.0499   -9.0345  -43.7222 H         1 UNK         0.3000 
    185 H185        0.4693   -9.4472  -45.5253 H         1 UNK         0.0600 
    186 H186        2.5517   -8.1281  -45.4266 H         1 UNK         0.0600 
    187 H187        3.5147   -9.5470  -45.8514 H         1 UNK         0.0600 
    188 H188        2.3825   -8.8569  -47.0073 H         1 UNK         0.0600 
    189 H189        2.2271  -11.4911  -46.6689 H         1 UNK         0.3000 
    190 H190       -1.1017  -20.3609  -46.9679 H         1 UNK         0.3000 
    191 H191       -2.5869  -20.8840  -49.3004 H         1 UNK         0.0600 
    192 H192       -2.9565  -18.8942  -47.8812 H         1 UNK         0.0600 
    193 H193       -4.4573  -19.7872  -48.0656 H         1 UNK         0.0600 
    194 H194       -3.5472  -19.9036  -46.5641 H         1 UNK         0.0600 
    195 H195       -2.8448  -22.4062  -46.0505 H         1 UNK         0.3000 
    196 H196       -4.9853  -24.1575  -46.6163 H         1 UNK         0.0600 
    197 H197       -4.1446  -25.4180  -44.6263 H         1 UNK         0.0600 
    198 H198       -4.2205  -23.6891  -44.3235 H         1 UNK         0.0600 
    199 H199       -2.6685  -24.4601  -44.6381 H         1 UNK         0.0600 
    200 H200       -1.4404  -24.7067  -46.8727 H         1 UNK         0.3000 
    201 H201       -1.5309  -27.3608  -47.8435 H         1 UNK         0.0600 
    202 H202        0.5112  -26.3217  -46.9033 H         1 UNK         0.0600 
    203 H203        0.5885  -25.1833  -48.2461 H         1 UNK         0.0600 
    204 H204        0.8302  -26.9030  -48.5307 H         1 UNK         0.0600 
    205 H205       -1.6318  -24.2525  -49.5811 H         1 UNK         0.3000 
    206 H206       -1.6878  -25.3776  -52.2425 H         1 UNK         0.0600 
    207 H207       -0.7367  -23.1454  -51.7656 H         1 UNK         0.0600 
    208 H208       -2.0939  -22.9932  -52.8666 H         1 UNK         0.0600 
    209 H209       -2.2977  -22.5846  -51.1681 H         1 UNK         0.0600 
    210 H210       -3.6060  -26.6835  -50.7549 H         1 UNK         0.3000 
    211 H211       -5.6713  -27.4681  -50.7244 H         1 UNK         0.0600 
    212 H212       -5.8119  -26.3286  -53.5596 H         1 UNK         0.0600 
    213 H213       -6.8458  -27.5932  -52.9096 H         1 UNK         0.0600 
    214 H214       -5.1251  -27.8824  -53.1008 H         1 UNK         0.0600 
    215 H215       -5.5789  -25.2573  -49.2563 H         1 UNK         0.3000 
    216 H216       -6.7985  -23.8267  -48.0923 H         1 UNK         0.0600 
    217 H217       -9.2302  -24.1589  -47.9087 H         1 UNK         0.0600 
    218 H218       -8.4159  -25.7134  -47.9683 H         1 UNK         0.0600 
    219 H219       -9.2591  -25.1018  -49.3910 H         1 UNK         0.0600 
    220 H220       -5.5904  -22.6064  -49.9288 H         1 UNK         0.3000 
    221 H221       -5.2603  -20.6789  -50.8386 H         1 UNK         0.0600 
    222 H222       -8.0903  -19.8021  -50.0676 H         1 UNK         0.0600 
    223 H223       -6.7056  -19.7707  -48.9792 H         1 UNK         0.0600 
    224 H224       -6.7217  -18.7591  -50.4133 H         1 UNK         0.0600 
    225 H225       -5.6624  -19.2150  -52.5774 H         1 UNK         0.3000 
    226 H226       -6.0275  -18.5348  -54.5935 H         1 UNK         0.0600 
    227 H227       -8.3987  -18.3360  -53.9075 H         1 UNK         0.0600 
    228 H228       -8.2723  -18.7228  -55.6164 H         1 UNK         0.0600 
    229 H229       -8.7248  -19.9749  -54.4698 H         1 UNK         0.0600 
    230 H230       -6.6623  -21.9975  -54.3502 H         1 UNK         0.3000 
    231 H231       -6.6615  -22.6116  -57.0882 H         1 UNK         0.0600 
    232 H232       -6.0858  -24.3519  -54.6439 H         1 UNK         0.0600 
    233 H233       -6.4522  -24.9840  -56.2471 H         1 UNK         0.0600 
    234 H234       -7.6622  -24.0572  -55.3705 H         1 UNK         0.0600 
    235 H235       -3.8592  -22.3015  -54.9435 H         1 UNK         0.3000 
    236 H236       -2.0264  -22.8387  -57.1918 H         1 UNK         0.0600 
    237 H237       -2.4284  -25.1027  -56.2692 H         1 UNK         0.0600 
    238 H238       -0.7903  -24.5928  -55.9131 H         1 UNK         0.0600 
    239 H239       -2.0167  -24.5503  -54.6509 H         1 UNK         0.0600 
    240 H240       -2.6420  -20.3935  -55.8912 H         1 UNK         0.3000 
    241 H241       -0.3826  -19.7923  -54.1239 H         1 UNK         0.0600 
    242 H242       -0.5034  -20.0877  -57.5505 H         1 UNK         0.3800 
    243 H243        0.8868  -19.0832  -57.8605 H         1 UNK         0.3800 
    244 H244       -1.2185  -17.5094  -54.0425 H         1 UNK         0.0800 
    245 H245       -2.3064  -17.7908  -55.3745 H         1 UNK         0.0800 
    246 H246       -1.9353  -20.6428  -52.6536 H         1 UNK         0.0800 
    247 H247       -3.1439  -20.2121  -51.4854 H         1 UNK         0.0800 
@<TRIPOS>BOND
     1    1    2 1    
     2    1  127 1    
     3    1  128 1    
     4    1  129 1    
     5    2    3 2    
     6    2    4 am   BACKBONE|DICT|INTERRES
     7    4    5 1    
     8    4  130 1    
     9    5    6 1    
    10    5   65 1    
    11    5  131 1    
    12    6    7 1    
    13    6  132 1    
    14    6  133 1    
    15    7    8 1    
    16    8    9 1    
    17    8  134 1    
    18    8  135 1    
    19    9   10 ar   
    20    9   14 ar   
    21   10   11 ar   
    22   10  136 1    
    23   11   12 ar   
    24   11  126 1    
    25   12   13 ar   
    26   12  137 1    
    27   13   14 ar   
    28   13   15 1    
    29   14  138 1    
    30   15   16 1    
    31   15  139 1    
    32   15  140 1    
    33   16   17 1    
    34   17   18 1    
    35   17  141 1    
    36   17  142 1    
    37   18   19 1    
    38   18   67 1    
    39   18  143 1    
    40   19   20 am   BACKBONE|DICT|INTERRES
    41   19  144 1    
    42   20   21 2    
    43   20   22 1    
    44   22   23 1    
    45   22   24 1    
    46   22  145 1    
    47   23  146 1    
    48   23  147 1    
    49   23  148 1    
    50   24   25 am   BACKBONE|DICT|INTERRES
    51   24  149 1    
    52   25   26 2    
    53   25   27 1    
    54   27   28 1    
    55   27   29 1    
    56   27  150 1    
    57   28  151 1    
    58   28  152 1    
    59   28  153 1    
    60   29   30 am   BACKBONE|DICT|INTERRES
    61   29  154 1    
    62   30   31 2    
    63   30   32 1    
    64   32   33 1    
    65   32   34 1    
    66   32  155 1    
    67   33  156 1    
    68   33  157 1    
    69   33  158 1    
    70   34   35 am   BACKBONE|DICT|INTERRES
    71   34  159 1    
    72   35   36 2    
    73   35   37 1    
    74   37   38 1    
    75   37   39 1    
    76   37  160 1    
    77   38  161 1    
    78   38  162 1    
    79   38  163 1    
    80   39   40 am   BACKBONE|DICT|INTERRES
    81   39  164 1    
    82   40   41 2    
    83   40   42 1    
    84   42   43 1    
    85   42   44 1    
    86   42  165 1    
    87   43  166 1    
    88   43  167 1    
    89   43  168 1    
    90   44   45 am   BACKBONE|DICT|INTERRES
    91   44  169 1    
    92   45   46 2    
    93   45   47 1    
    94   47   48 1    
    95   47   49 1    
    96   47  170 1    
    97   48  171 1    
    98   48  172 1    
    99   48  173 1    
   100   49   50 am   BACKBONE|DICT|INTERRES
   101   49  174 1    
   102   50   51 2    
   103   50   52 1    
   104   52   53 1    
   105   52   54 1    
   106   52  175 1    
   107   53  176 1    
   108   53  177 1    
   109   53  178 1    
   110   54   55 am   BACKBONE|DICT|INTERRES
   111   54  179 1    
   112   55   56 2    
   113   55   57 1    
   114   57   58 1    
   115   57   59 1    
   116   57  180 1    
   117   58  181 1    
   118   58  182 1    
   119   58  183 1    
   120   59   60 am   BACKBONE|DICT|INTERRES
   121   59  184 1    
   122   60   61 2    
   123   60   62 1    
   124   62   63 1    
   125   62   64 1    
   126   62  185 1    
   127   63  186 1    
   128   63  187 1    
   129   63  188 1    
   130   64   65 am   BACKBONE|DICT|INTERRES
   131   64  189 1    
   132   65   66 2    
   133   67   68 2    
   134   67   69 am   BACKBONE|DICT|INTERRES
   135   69   70 1    
   136   69  190 1    
   137   70   71 1    
   138   70   72 1    
   139   70  191 1    
   140   71  192 1    
   141   71  193 1    
   142   71  194 1    
   143   72   73 2    
   144   72   74 am   BACKBONE|DICT|INTERRES
   145   74   75 1    
   146   74  195 1    
   147   75   76 1    
   148   75   77 1    
   149   75  196 1    
   150   76  197 1    
   151   76  198 1    
   152   76  199 1    
   153   77   78 2    
   154   77   79 am   BACKBONE|DICT|INTERRES
   155   79   80 1    
   156   79  200 1    
   157   80   81 1    
   158   80   82 1    
   159   80  201 1    
   160   81  202 1    
   161   81  203 1    
   162   81  204 1    
   163   82   83 2    
   164   82   84 am   BACKBONE|DICT|INTERRES
   165   84   85 1    
   166   84  205 1    
   167   85   86 1    
   168   85   87 1    
   169   85  206 1    
   170   86  207 1    
   171   86  208 1    
   172   86  209 1    
   173   87   88 2    
   174   87   89 am   BACKBONE|DICT|INTERRES
   175   89   90 1    
   176   89  210 1    
   177   90   91 1    
   178   90   92 1    
   179   90  211 1    
   180   91  212 1    
   181   91  213 1    
   182   91  214 1    
   183   92   93 2    
   184   92   94 am   BACKBONE|DICT|INTERRES
   185   94   95 1    
   186   94  215 1    
   187   95   96 1    
   188   95   97 1    
   189   95  216 1    
   190   96  217 1    
   191   96  218 1    
   192   96  219 1    
   193   97   98 2    
   194   97   99 am   BACKBONE|DICT|INTERRES
   195   99  100 1    
   196   99  220 1    
   197  100  101 1    
   198  100  102 1    
   199  100  221 1    
   200  101  222 1    
   201  101  223 1    
   202  101  224 1    
   203  102  103 2    
   204  102  104 am   BACKBONE|DICT|INTERRES
   205  104  105 1    
   206  104  225 1    
   207  105  106 1    
   208  105  107 1    
   209  105  226 1    
   210  106  227 1    
   211  106  228 1    
   212  106  229 1    
   213  107  108 2    
   214  107  109 am   BACKBONE|DICT|INTERRES
   215  109  110 1    
   216  109  230 1    
   217  110  111 1    
   218  110  112 1    
   219  110  231 1    
   220  111  232 1    
   221  111  233 1    
   222  111  234 1    
   223  112  113 2    
   224  112  114 am   BACKBONE|DICT|INTERRES
   225  114  115 1    
   226  114  235 1    
   227  115  116 1    
   228  115  117 1    
   229  115  236 1    
   230  116  237 1    
   231  116  238 1    
   232  116  239 1    
   233  117  118 2    
   234  117  119 am   BACKBONE|DICT|INTERRES
   235  119  120 1    
   236  119  240 1    
   237  120  121 1    
   238  120  124 1    
   239  120  241 1    
   240  121  122 am   BACKBONE|DICT|INTERRES
   241  121  123 2    
   242  122  242 1    
   243  122  243 1    
   244  124  125 1    
   245  124  244 1    
   246  124  245 1    
   247  125  126 1    
   248  126  246 1    
   249  126  247 1    
@<TRIPOS>SUBSTRUCTURE
     1 UNK         1 GROUP             0       ****    0 ROOT    
