@<TRIPOS>MOLECULE
3R540
247   249    1
SMALL
USER_CHARGES


@<TRIPOS>ATOM
      1 CA         -3.4594  -13.7645  -48.1064 C.3       0 UNK        -0.1800 
      2 C          -2.0205  -13.3674  -47.8135 C.2       0 UNK         0.5000 
      3 O          -1.7450  -12.8178  -46.7479 O.2       0 UNK        -0.5000 
      4 N          -1.1152  -13.6254  -48.7660 N.am      1 UNK        -0.5000 
      5 CA          0.3415  -13.4119  -48.6990 C.3       1 UNK         0.1400 
      6 C6          1.0777  -14.4915  -47.8605 C.3       23 UNK        -0.0398 
      7 S7          0.8237  -16.1636  -48.5476 S.3       23 UNK        -0.2404 
      8 C8          2.3132  -16.3707  -49.5730 C.3       23 UNK        -0.0205 
      9 C9          2.0856  -17.3879  -50.6825 C.ar      23 UNK        -0.0193 
     10 C10         1.9296  -16.9646  -52.0053 C.ar      23 UNK        -0.1150 
     11 C11         1.7067  -17.8885  -53.0292 C.ar      23 UNK        -0.0193 
     12 C12         1.6645  -19.2506  -52.7190 C.ar      23 UNK        -0.1150 
     13 C13         1.8308  -19.6973  -51.4052 C.ar      23 UNK        -0.0193 
     14 C14         2.0449  -18.7542  -50.3917 C.ar      23 UNK        -0.1150 
     15 C15         1.8116  -21.2034  -51.1419 C.3       23 UNK        -0.0205 
     16 S16         1.3735  -21.7065  -49.4442 S.3       23 UNK        -0.2404 
     17 C17        -0.3506  -21.1226  -49.3068 C.3       23 UNK        -0.0398 
     18 CA         -1.2933  -22.2043  -48.7263 C.3       11 UNK         0.1400 
     19 N          -0.8288  -22.7110  -47.4310 N.am      11 UNK        -0.5000 
     20 C          -1.2065  -23.8742  -46.8841 C.2       10 UNK         0.5000 
     21 O          -1.9891  -24.6591  -47.4211 O.2       10 UNK        -0.5000 
     22 CA         -0.6265  -24.2256  -45.4999 C.3       10 UNK         0.1400 
     23 CB          0.6522  -25.0612  -45.6556 C.3       10 UNK        -0.1800 
     24 N          -0.3313  -23.0621  -44.6650 N.am      10 UNK        -0.5000 
     25 C          -1.2232  -22.1421  -44.2750 C.2       9 UNK         0.5000 
     26 O          -2.4198  -22.1887  -44.5572 O.2       9 UNK        -0.5000 
     27 CA         -0.6756  -20.9338  -43.4964 C.3       9 UNK         0.1400 
     28 CB         -0.7248  -21.2053  -41.9859 C.3       9 UNK        -0.1800 
     29 N           0.6851  -20.5290  -43.8692 N.am      9 UNK        -0.5000 
     30 C           1.1038  -20.2236  -45.1078 C.2       8 UNK         0.5000 
     31 O           0.4209  -20.3786  -46.1214 O.2       8 UNK        -0.5000 
     32 CA          2.5123  -19.6196  -45.2031 C.3       8 UNK         0.1400 
     33 CB          2.8844  -19.1554  -46.6221 C.3       8 UNK        -0.1800 
     34 N           2.6013  -18.4970  -44.2752 N.am      8 UNK        -0.5000 
     35 C           3.7020  -18.1283  -43.6087 C.2       7 UNK         0.5000 
     36 O           4.7890  -18.6961  -43.7234 O.2       7 UNK        -0.5000 
     37 CA          3.5795  -16.9291  -42.6460 C.3       7 UNK         0.1400 
     38 CB          4.2023  -15.6733  -43.2754 C.3       7 UNK        -0.1800 
     39 N           2.1992  -16.6356  -42.2512 N.am      7 UNK        -0.5000 
     40 C           1.4652  -17.4039  -41.4310 C.2       6 UNK         0.5000 
     41 O           1.8968  -18.4236  -40.8923 O.2       6 UNK        -0.5000 
     42 CA         -0.0005  -16.9904  -41.1806 C.3       6 UNK         0.1400 
     43 CB         -0.1293  -16.2664  -39.8320 C.3       6 UNK        -0.1800 
     44 N          -0.5782  -16.1450  -42.2268 N.am      6 UNK        -0.5000 
     45 C          -0.7333  -16.4923  -43.5119 C.2       5 UNK         0.5000 
     46 O          -0.4132  -17.5875  -43.9663 O.2       5 UNK        -0.5000 
     47 CA         -1.2925  -15.4170  -44.4591 C.3       5 UNK         0.1400 
     48 CB         -2.8210  -15.5387  -44.5500 C.3       5 UNK        -0.1800 
     49 N          -0.9411  -14.0413  -44.0892 N.am      5 UNK        -0.5000 
     50 C           0.2996  -13.5603  -43.9168 C.2       4 UNK         0.5000 
     51 O           1.3116  -14.2612  -43.9492 O.2       4 UNK        -0.5000 
     52 CA          0.4120  -12.0458  -43.6781 C.3       4 UNK         0.1400 
     53 CB          1.8484  -11.5100  -43.8351 C.3       4 UNK        -0.1800 
     54 N          -0.4953  -11.3395  -44.5791 N.am      4 UNK        -0.5000 
     55 C          -1.0682  -10.1561  -44.3382 C.2       3 UNK         0.5000 
     56 O          -0.8955   -9.5098  -43.3027 O.2       3 UNK        -0.5000 
     57 CA         -1.9906   -9.6220  -45.4534 C.3       3 UNK         0.1400 
     58 CB         -2.4889   -8.1824  -45.2042 C.3       3 UNK        -0.1800 
     59 N          -1.3874   -9.7542  -46.7844 N.am      3 UNK        -0.5000 
     60 C          -0.2802   -9.1527  -47.2462 C.2       2 UNK         0.5000 
     61 O           0.3816   -8.3340  -46.6055 O.2       2 UNK        -0.5000 
     62 CA          0.1423   -9.5466  -48.6790 C.3       2 UNK         0.1400 
     63 CB          1.5375   -9.0160  -49.0733 C.3       2 UNK        -0.1800 
     64 N           0.0381  -10.9917  -48.9213 N.am      2 UNK        -0.5000 
     65 C           0.7202  -11.9671  -48.2991 C.2       1 UNK         0.5000 
     66 O           1.5841  -11.7662  -47.4456 O.2       1 UNK        -0.5000 
     67 C          -2.7329  -21.6633  -48.6379 C.2       11 UNK         0.5000 
     68 O          -3.4469  -21.6887  -49.6383 O.2       11 UNK        -0.5000 
     69 N          -3.1381  -21.1920  -47.4505 N.am      12 UNK        -0.5000 
     70 CA         -4.4988  -20.7449  -47.1599 C.3       12 UNK         0.1400 
     71 CB         -4.4547  -19.6641  -46.0676 C.3       12 UNK        -0.1800 
     72 C          -5.3906  -21.9235  -46.7301 C.2       12 UNK         0.5000 
     73 O          -6.5462  -21.9954  -47.1464 O.2       12 UNK        -0.5000 
     74 N          -4.8308  -22.8335  -45.9200 N.am      13 UNK        -0.5000 
     75 CA         -5.5049  -24.0067  -45.3563 C.3       13 UNK         0.1400 
     76 CB         -4.6882  -24.5090  -44.1547 C.3       13 UNK        -0.1800 
     77 C          -5.7404  -25.1555  -46.3582 C.2       13 UNK         0.5000 
     78 O          -6.4289  -26.1148  -46.0083 O.2       13 UNK        -0.5000 
     79 N          -5.1621  -25.0520  -47.5634 N.am      14 UNK        -0.5000 
     80 CA         -5.2111  -26.0294  -48.6563 C.3       14 UNK         0.1400 
     81 CB         -6.6577  -26.3009  -49.1234 C.3       14 UNK        -0.1800 
     82 C          -4.4035  -27.3119  -48.3705 C.2       14 UNK         0.5000 
     83 O          -4.7418  -28.3802  -48.8827 O.2       14 UNK        -0.5000 
     84 N          -3.3373  -27.1776  -47.5723 N.am      15 UNK        -0.5000 
     85 CA         -2.3826  -28.2425  -47.2652 C.3       15 UNK         0.1400 
     86 CB         -1.9402  -28.1122  -45.8001 C.3       15 UNK        -0.1800 
     87 C          -1.1687  -28.2098  -48.2135 C.2       15 UNK         0.5000 
     88 O          -0.5989  -29.2650  -48.4940 O.2       15 UNK        -0.5000 
     89 N          -0.8066  -27.0138  -48.6979 N.am      16 UNK        -0.5000 
     90 CA          0.2039  -26.7890  -49.7290 C.3       16 UNK         0.1400 
     91 CB          1.1560  -25.6626  -49.2786 C.3       16 UNK        -0.1800 
     92 C          -0.5386  -26.4950  -51.0430 C.2       16 UNK         0.5000 
     93 O          -1.1316  -27.4131  -51.6126 O.2       16 UNK        -0.5000 
     94 N          -0.5335  -25.2309  -51.4896 N.am      17 UNK        -0.5000 
     95 CA         -1.3905  -24.7406  -52.5703 C.3       17 UNK         0.1400 
     96 CB         -0.9605  -23.3192  -52.9555 C.3       17 UNK        -0.1800 
     97 C          -2.8648  -24.7641  -52.1295 C.2       17 UNK         0.5000 
     98 O          -3.1516  -24.4488  -50.9741 O.2       17 UNK        -0.5000 
     99 N          -3.7626  -25.1593  -53.0382 N.am      18 UNK        -0.5000 
    100 CA        -5.1777  -25.4211  -52.7713 C.3       18 UNK         0.1400 
    101 CB        -5.7349  -26.2967  -53.9081 C.3       18 UNK        -0.1800 
    102 C         -6.0045  -24.1355  -52.5579 C.2       18 UNK         0.5000 
    103 O         -6.7745  -23.7514  -53.4399 O.2       18 UNK        -0.5000 
    104 N         -5.8212  -23.5022  -51.3899 N.am      19 UNK        -0.5000 
    105 CA        -6.4615  -22.2607  -50.9375 C.3       19 UNK         0.1400 
    106 CB        -7.9819  -22.4491  -50.7536 C.3       19 UNK        -0.1800 
    107 C         -6.0952  -21.0845  -51.8626 C.2       19 UNK         0.5000 
    108 O         -6.9687  -20.4397  -52.4464 O.2       19 UNK        -0.5000 
    109 N         -4.7857  -20.8675  -52.0044 N.am      20 UNK        -0.5000 
    110 CA        -4.1760  -19.9137  -52.9171 C.3       20 UNK         0.1400 
    111 CB        -3.8796  -20.6018  -54.2619 C.3       20 UNK        -0.1800 
    112 C         -2.9297  -19.3247  -52.2466 C.2       20 UNK         0.5000 
    113 O         -1.8026  -19.6310  -52.6335 O.2       20 UNK        -0.5000 
    114 N         -3.1612  -18.4723  -51.2427 N.am      21 UNK        -0.5000 
    115 CA        -2.1507  -17.6564  -50.5670 C.3       21 UNK         0.1400 
    116 CB        -2.6709  -17.3351  -49.1534 C.3       21 UNK        -0.1800 
    117 C         -1.8372  -16.3924  -51.4003 C.2       21 UNK         0.5000 
    118 O         -2.0143  -15.2700  -50.9233 O.2       21 UNK        -0.5000 
    119 N         -1.4208  -16.6072  -52.6534 N.am      22 UNK        -0.5000 
    120 CA        -1.2214  -15.6422  -53.7523 C.3       22 UNK         0.1400 
    121 C         -0.1965  -14.4807  -53.5456 C.2       22 UNK         0.5000 
    122 N          0.1138  -14.0857  -52.3227 N.am      22 UNK        -0.7600 
    123 O          0.3129  -13.9079  -54.5049 O.2       22 UNK        -0.5000 
    124 C124       -1.0788  -16.3724  -55.1219 C.3       23 UNK        -0.0398 
    125 S125       -0.0662  -17.8987  -55.1786 S.3       23 UNK        -0.2404 
    126 C126        1.5504  -17.4305  -54.4750 C.3       23 UNK        -0.0205 
    127 H127       -3.7000  -14.7015  -47.6055 H         1 UNK         0.0600 
    128 H128       -3.6298  -13.8954  -49.1752 H         1 UNK         0.0600 
    129 H129       -4.1443  -12.9966  -47.7470 H         1 UNK         0.0600 
    130 H130       -1.4432  -14.1126  -49.5964 H         1 UNK         0.3000 
    131 H131        0.7040  -13.5122  -49.7212 H         1 UNK         0.0600 
    132 H132        0.7241  -14.4780  -46.8296 H         1 UNK         0.0800 
    133 H133        2.1501  -14.2945  -47.8138 H         1 UNK         0.0800 
    134 H134        3.1445  -16.6890  -48.9423 H         1 UNK         0.0800 
    135 H135        2.5994  -15.4093  -50.0020 H         1 UNK         0.0800 
    136 H136        1.9908  -15.9128  -52.2386 H         1 UNK         0.1150 
    137 H137        1.5025  -19.9680  -53.5115 H         1 UNK         0.1150 
    138 H138        2.1821  -19.0739  -49.3708 H         1 UNK         0.1150 
    139 H139        1.1198  -21.6852  -51.8311 H         1 UNK         0.0800 
    140 H140        2.8008  -21.6011  -51.3711 H         1 UNK         0.0800 
    141 H141       -0.3544  -20.2259  -48.6844 H         1 UNK         0.0800 
    142 H142       -0.7015  -20.8087  -50.2917 H         1 UNK         0.0800 
    143 H143       -1.3127  -23.0407  -49.4279 H         1 UNK         0.0600 
    144 H144       -0.2053  -22.0946  -46.9180 H         1 UNK         0.3000 
    145 H145       -1.3701  -24.8263  -44.9746 H         1 UNK         0.0600 
    146 H146        1.0257  -25.3956  -44.6876 H         1 UNK         0.0600 
    147 H147        0.4717  -25.9530  -46.2558 H         1 UNK         0.0600 
    148 H148        1.4452  -24.4938  -46.1447 H         1 UNK         0.0600 
    149 H149        0.6332  -22.9263  -44.4008 H         1 UNK         0.3000 
    150 H150       -1.3349  -20.0913  -43.7130 H         1 UNK         0.0600 
    151 H151       -1.7344  -21.4706  -41.6689 H         1 UNK         0.0600 
    152 H152       -0.4271  -20.3259  -41.4154 H         1 UNK         0.0600 
    153 H153       -0.0647  -22.0264  -41.7036 H         1 UNK         0.0600 
    154 H154        1.3190  -20.3548  -43.1025 H         1 UNK         0.3000 
    155 H155        3.2095  -20.4040  -44.9020 H         1 UNK         0.0600 
    156 H156        3.8873  -18.7296  -46.6527 H         1 UNK         0.0600 
    157 H157        2.1879  -18.4012  -46.9888 H         1 UNK         0.0600 
    158 H158        2.8668  -19.9938  -47.3185 H         1 UNK         0.0600 
    159 H159        1.7308  -18.0035  -44.1060 H         1 UNK         0.3000 
    160 H160        4.1456  -17.1723  -41.7445 H         1 UNK         0.0600 
    161 H161        3.7152  -15.4117  -44.2155 H         1 UNK         0.0600 
    162 H162        5.2606  -15.8282  -43.4888 H         1 UNK         0.0600 
    163 H163        4.1269  -14.8148  -42.6077 H         1 UNK         0.0600 
    164 H164        1.7716  -15.8247  -42.6873 H         1 UNK         0.3000 
    165 H165       -0.5930  -17.9059  -41.1351 H         1 UNK         0.0600 
    166 H166        0.4213  -15.3248  -39.8276 H         1 UNK         0.0600 
    167 H167       -1.1716  -16.0485  -39.5980 H         1 UNK         0.0600 
    168 H168        0.2626  -16.8797  -39.0193 H         1 UNK         0.0600 
    169 H169       -0.8556  -15.2141  -41.9532 H         1 UNK         0.3000 
    170 H170       -0.8761  -15.6055  -45.4503 H         1 UNK         0.0600 
    171 H171       -3.1132  -16.5280  -44.9052 H         1 UNK         0.0600 
    172 H172       -3.2948  -15.3835  -43.5799 H         1 UNK         0.0600 
    173 H173       -3.2372  -14.8087  -45.2430 H         1 UNK         0.0600 
    174 H174       -1.7063  -13.3829  -44.0686 H         1 UNK         0.3000 
    175 H175        0.0942  -11.8759  -42.6475 H         1 UNK         0.0600 
    176 H176        1.8967  -10.4389  -43.6393 H         1 UNK         0.0600 
    177 H177        2.5280  -11.9980  -43.1355 H         1 UNK         0.0600 
    178 H178        2.2314  -11.6834  -44.8408 H         1 UNK         0.0600 
    179 H179       -0.7286  -11.8246  -45.4436 H         1 UNK         0.3000 
    180 H180       -2.8667  -10.2722  -45.4540 H         1 UNK         0.0600 
    181 H181       -3.0559   -8.1231  -44.2745 H         1 UNK         0.0600 
    182 H182       -1.6654   -7.4720  -45.1279 H         1 UNK         0.0600 
    183 H183       -3.1470   -7.8487  -46.0064 H         1 UNK         0.0600 
    184 H184       -1.8110  -10.4577  -47.3731 H         1 UNK         0.3000 
    185 H185       -0.5818   -9.0743  -49.3443 H         1 UNK         0.0600 
    186 H186        2.3187   -9.3900  -48.4110 H         1 UNK         0.0600 
    187 H187        1.7952   -9.3037  -50.0925 H         1 UNK         0.0600 
    188 H188        1.5668   -7.9268  -49.0275 H         1 UNK         0.0600 
    189 H189       -0.6629  -11.2708  -49.5938 H         1 UNK         0.3000 
    190 H190       -2.4970  -21.2321  -46.6697 H         1 UNK         0.3000 
    191 H191       -4.9348  -20.2985  -48.0565 H         1 UNK         0.0600 
    192 H192       -5.4562  -19.2924  -45.8475 H         1 UNK         0.0600 
    193 H193       -3.8533  -18.8105  -46.3801 H         1 UNK         0.0600 
    194 H194       -4.0340  -20.0439  -45.1360 H         1 UNK         0.0600 
    195 H195       -3.8913  -22.6564  -45.5725 H         1 UNK         0.3000 
    196 H196       -6.4852  -23.6918  -44.9928 H         1 UNK         0.0600 
    197 H197       -5.1878  -25.3420  -43.6586 H         1 UNK         0.0600 
    198 H198       -4.5544  -23.7233  -43.4109 H         1 UNK         0.0600 
    199 H199       -3.7004  -24.8542  -44.4597 H         1 UNK         0.0600 
    200 H200       -4.5757  -24.2449  -47.7242 H         1 UNK         0.3000 
    201 H201       -4.7027  -25.5545  -49.4872 H         1 UNK         0.0600 
    202 H202       -7.1876  -25.3705  -49.3249 H         1 UNK         0.0600 
    203 H203       -7.2289  -26.8595  -48.3821 H         1 UNK         0.0600 
    204 H204       -6.6693  -26.8854  -50.0436 H         1 UNK         0.0600 
    205 H205       -3.0946  -26.2440  -47.2566 H         1 UNK         0.3000 
    206 H206       -2.8638  -29.2161  -47.3803 H         1 UNK         0.0600 
    207 H207       -2.7886  -28.2211  -45.1242 H         1 UNK         0.0600 
    208 H208       -1.2150  -28.8841  -45.5396 H         1 UNK         0.0600 
    209 H209       -1.4795  -27.1466  -45.6010 H         1 UNK         0.0600 
    210 H210       -1.3498  -26.2012  -48.4244 H         1 UNK         0.3000 
    211 H211        0.8024  -27.6877  -49.8909 H         1 UNK         0.0600 
    212 H212        0.6258  -24.7413  -49.0407 H         1 UNK         0.0600 
    213 H213        1.8914  -25.4349  -50.0514 H         1 UNK         0.0600 
    214 H214        1.7132  -25.9603  -48.3907 H         1 UNK         0.0600 
    215 H215       -0.0395  -24.5332  -50.9549 H         1 UNK         0.3000 
    216 H216       -1.2606  -25.3932  -53.4362 H         1 UNK         0.0600 
    217 H217       -1.5199  -22.9685  -53.8221 H         1 UNK         0.0600 
    218 H218        0.0948  -23.2876  -53.2253 H         1 UNK         0.0600 
    219 H219       -1.1301  -22.6089  -52.1449 H         1 UNK         0.0600 
    220 H220       -3.4470  -25.3661  -53.9747 H         1 UNK         0.3000 
    221 H221       -5.2469  -26.0075  -51.8536 H         1 UNK         0.0600 
    222 H222       -5.6574  -25.8005  -54.8764 H         1 UNK         0.0600 
    223 H223       -5.2005  -27.2447  -53.9735 H         1 UNK         0.0600 
    224 H224       -6.7872  -26.5308  -53.7413 H         1 UNK         0.0600 
    225 H225       -5.0473  -23.8256  -50.8182 H         1 UNK         0.3000 
    226 H226       -6.0456  -22.0322  -49.9561 H         1 UNK         0.0600 
    227 H227       -8.1965  -23.2656  -50.0647 H         1 UNK         0.0600 
    228 H228       -8.4345  -21.5489  -50.3367 H         1 UNK         0.0600 
    229 H229       -8.4875  -22.6617  -51.6957 H         1 UNK         0.0600 
    230 H230       -4.1472  -21.3698  -51.3905 H         1 UNK         0.3000 
    231 H231       -4.8600  -19.0832  -53.1046 H         1 UNK         0.0600 
    232 H232       -3.3707  -19.9221  -54.9466 H         1 UNK         0.0600 
    233 H233       -4.7997  -20.9275  -54.7475 H         1 UNK         0.0600 
    234 H234       -3.2455  -21.4776  -54.1322 H         1 UNK         0.0600 
    235 H235       -4.1204  -18.2827  -50.9911 H         1 UNK         0.3000 
    236 H236       -1.2217  -18.2224  -50.4679 H         1 UNK         0.0600 
    237 H237       -3.6274  -16.8125  -49.1854 H         1 UNK         0.0600 
    238 H238       -2.8058  -18.2473  -48.5724 H         1 UNK         0.0600 
    239 H239       -1.9760  -16.7034  -48.6023 H         1 UNK         0.0600 
    240 H240       -1.2548  -17.5732  -52.9158 H         1 UNK         0.3000 
    241 H241       -2.1660  -15.0991  -53.8124 H         1 UNK         0.0600 
    242 H242       -0.3986  -14.4925  -51.5504 H         1 UNK         0.3800 
    243 H243        0.7572  -13.3229  -52.1916 H         1 UNK         0.3800 
    244 H244       -2.0764  -16.6768  -55.4412 H         1 UNK         0.0800 
    245 H245       -0.7384  -15.7021  -55.9124 H         1 UNK         0.0800 
    246 H246        2.3312  -17.9077  -55.0684 H         1 UNK         0.0800 
    247 H247        1.7143  -16.3579  -54.5776 H         1 UNK         0.0800 
@<TRIPOS>BOND
     1    1    2 1    
     2    1  127 1    
     3    1  128 1    
     4    1  129 1    
     5    2    3 2    
     6    2    4 am   BACKBONE|DICT|INTERRES
     7    4    5 1    
     8    4  130 1    
     9    5    6 1    
    10    5   65 1    
    11    5  131 1    
    12    6    7 1    
    13    6  132 1    
    14    6  133 1    
    15    7    8 1    
    16    8    9 1    
    17    8  134 1    
    18    8  135 1    
    19    9   10 ar   
    20    9   14 ar   
    21   10   11 ar   
    22   10  136 1    
    23   11   12 ar   
    24   11  126 1    
    25   12   13 ar   
    26   12  137 1    
    27   13   14 ar   
    28   13   15 1    
    29   14  138 1    
    30   15   16 1    
    31   15  139 1    
    32   15  140 1    
    33   16   17 1    
    34   17   18 1    
    35   17  141 1    
    36   17  142 1    
    37   18   19 1    
    38   18   67 1    
    39   18  143 1    
    40   19   20 am   BACKBONE|DICT|INTERRES
    41   19  144 1    
    42   20   21 2    
    43   20   22 1    
    44   22   23 1    
    45   22   24 1    
    46   22  145 1    
    47   23  146 1    
    48   23  147 1    
    49   23  148 1    
    50   24   25 am   BACKBONE|DICT|INTERRES
    51   24  149 1    
    52   25   26 2    
    53   25   27 1    
    54   27   28 1    
    55   27   29 1    
    56   27  150 1    
    57   28  151 1    
    58   28  152 1    
    59   28  153 1    
    60   29   30 am   BACKBONE|DICT|INTERRES
    61   29  154 1    
    62   30   31 2    
    63   30   32 1    
    64   32   33 1    
    65   32   34 1    
    66   32  155 1    
    67   33  156 1    
    68   33  157 1    
    69   33  158 1    
    70   34   35 am   BACKBONE|DICT|INTERRES
    71   34  159 1    
    72   35   36 2    
    73   35   37 1    
    74   37   38 1    
    75   37   39 1    
    76   37  160 1    
    77   38  161 1    
    78   38  162 1    
    79   38  163 1    
    80   39   40 am   BACKBONE|DICT|INTERRES
    81   39  164 1    
    82   40   41 2    
    83   40   42 1    
    84   42   43 1    
    85   42   44 1    
    86   42  165 1    
    87   43  166 1    
    88   43  167 1    
    89   43  168 1    
    90   44   45 am   BACKBONE|DICT|INTERRES
    91   44  169 1    
    92   45   46 2    
    93   45   47 1    
    94   47   48 1    
    95   47   49 1    
    96   47  170 1    
    97   48  171 1    
    98   48  172 1    
    99   48  173 1    
   100   49   50 am   BACKBONE|DICT|INTERRES
   101   49  174 1    
   102   50   51 2    
   103   50   52 1    
   104   52   53 1    
   105   52   54 1    
   106   52  175 1    
   107   53  176 1    
   108   53  177 1    
   109   53  178 1    
   110   54   55 am   BACKBONE|DICT|INTERRES
   111   54  179 1    
   112   55   56 2    
   113   55   57 1    
   114   57   58 1    
   115   57   59 1    
   116   57  180 1    
   117   58  181 1    
   118   58  182 1    
   119   58  183 1    
   120   59   60 am   BACKBONE|DICT|INTERRES
   121   59  184 1    
   122   60   61 2    
   123   60   62 1    
   124   62   63 1    
   125   62   64 1    
   126   62  185 1    
   127   63  186 1    
   128   63  187 1    
   129   63  188 1    
   130   64   65 am   BACKBONE|DICT|INTERRES
   131   64  189 1    
   132   65   66 2    
   133   67   68 2    
   134   67   69 am   BACKBONE|DICT|INTERRES
   135   69   70 1    
   136   69  190 1    
   137   70   71 1    
   138   70   72 1    
   139   70  191 1    
   140   71  192 1    
   141   71  193 1    
   142   71  194 1    
   143   72   73 2    
   144   72   74 am   BACKBONE|DICT|INTERRES
   145   74   75 1    
   146   74  195 1    
   147   75   76 1    
   148   75   77 1    
   149   75  196 1    
   150   76  197 1    
   151   76  198 1    
   152   76  199 1    
   153   77   78 2    
   154   77   79 am   BACKBONE|DICT|INTERRES
   155   79   80 1    
   156   79  200 1    
   157   80   81 1    
   158   80   82 1    
   159   80  201 1    
   160   81  202 1    
   161   81  203 1    
   162   81  204 1    
   163   82   83 2    
   164   82   84 am   BACKBONE|DICT|INTERRES
   165   84   85 1    
   166   84  205 1    
   167   85   86 1    
   168   85   87 1    
   169   85  206 1    
   170   86  207 1    
   171   86  208 1    
   172   86  209 1    
   173   87   88 2    
   174   87   89 am   BACKBONE|DICT|INTERRES
   175   89   90 1    
   176   89  210 1    
   177   90   91 1    
   178   90   92 1    
   179   90  211 1    
   180   91  212 1    
   181   91  213 1    
   182   91  214 1    
   183   92   93 2    
   184   92   94 am   BACKBONE|DICT|INTERRES
   185   94   95 1    
   186   94  215 1    
   187   95   96 1    
   188   95   97 1    
   189   95  216 1    
   190   96  217 1    
   191   96  218 1    
   192   96  219 1    
   193   97   98 2    
   194   97   99 am   BACKBONE|DICT|INTERRES
   195   99  100 1    
   196   99  220 1    
   197  100  101 1    
   198  100  102 1    
   199  100  221 1    
   200  101  222 1    
   201  101  223 1    
   202  101  224 1    
   203  102  103 2    
   204  102  104 am   BACKBONE|DICT|INTERRES
   205  104  105 1    
   206  104  225 1    
   207  105  106 1    
   208  105  107 1    
   209  105  226 1    
   210  106  227 1    
   211  106  228 1    
   212  106  229 1    
   213  107  108 2    
   214  107  109 am   BACKBONE|DICT|INTERRES
   215  109  110 1    
   216  109  230 1    
   217  110  111 1    
   218  110  112 1    
   219  110  231 1    
   220  111  232 1    
   221  111  233 1    
   222  111  234 1    
   223  112  113 2    
   224  112  114 am   BACKBONE|DICT|INTERRES
   225  114  115 1    
   226  114  235 1    
   227  115  116 1    
   228  115  117 1    
   229  115  236 1    
   230  116  237 1    
   231  116  238 1    
   232  116  239 1    
   233  117  118 2    
   234  117  119 am   BACKBONE|DICT|INTERRES
   235  119  120 1    
   236  119  240 1    
   237  120  121 1    
   238  120  124 1    
   239  120  241 1    
   240  121  122 am   BACKBONE|DICT|INTERRES
   241  121  123 2    
   242  122  242 1    
   243  122  243 1    
   244  124  125 1    
   245  124  244 1    
   246  124  245 1    
   247  125  126 1    
   248  126  246 1    
   249  126  247 1    
@<TRIPOS>SUBSTRUCTURE
     1 UNK         1 GROUP             0       ****    0 ROOT    
