@<TRIPOS>MOLECULE
3R540
247   249    1
SMALL
USER_CHARGES


@<TRIPOS>ATOM
      1 CA          3.2964  -17.3139  -43.5618 C.3       0 UNK        -0.1800 
      2 C           2.2618  -16.3305  -44.0905 C.2       0 UNK         0.5000 
      3 O           1.3726  -15.9154  -43.3476 O.2       0 UNK        -0.5000 
      4 N           2.3804  -15.9594  -45.3692 N.am      1 UNK        -0.5000 
      5 CA          1.5510  -14.9532  -46.0317 C.3       1 UNK         0.1400 
      6 C6          0.8369  -15.5040  -47.2877 C.3       23 UNK        -0.0398 
      7 S7         -0.3957  -16.7780  -46.8567 S.3       23 UNK        -0.2404 
      8 C8         -1.3861  -16.8481  -48.3881 C.3       23 UNK        -0.0205 
      9 C9         -0.6244  -17.3295  -49.6233 C.ar      23 UNK        -0.0193 
     10 C10        -0.9893  -16.8463  -50.8837 C.ar      23 UNK        -0.1150 
     11 C11        -0.3213  -17.2711  -52.0370 C.ar      23 UNK        -0.0193 
     12 C12         0.7213  -18.1961  -51.9234 C.ar      23 UNK        -0.1150 
     13 C13         1.0802  -18.7105  -50.6756 C.ar      23 UNK        -0.0193 
     14 C14         0.4098  -18.2677  -49.5320 C.ar      23 UNK        -0.1150 
     15 C15         2.1810  -19.7578  -50.5601 C.3       23 UNK        -0.0205 
     16 S16         1.6417  -21.3988  -51.1498 S.3       23 UNK        -0.2404 
     17 C17         0.1642  -21.7043  -50.1259 C.3       23 UNK        -0.0398 
     18 CA          0.2218  -23.0003  -49.2906 C.3       11 UNK         0.1400 
     19 N           1.4046  -23.0674  -48.4302 N.am      11 UNK        -0.5000 
     20 C           1.7999  -24.1595  -47.7620 C.2       10 UNK         0.5000 
     21 O           1.2195  -25.2428  -47.8178 O.2       10 UNK        -0.5000 
     22 CA          2.9994  -23.9788  -46.8122 C.3       10 UNK         0.1400 
     23 CB          4.3230  -24.1214  -47.5777 C.3       10 UNK        -0.1800 
     24 N           2.9729  -22.6886  -46.1130 N.am      10 UNK        -0.5000 
     25 C           1.9883  -22.3026  -45.2911 C.2       9 UNK         0.5000 
     26 O           1.0136  -23.0097  -45.0211 O.2       9 UNK        -0.5000 
     27 CA          2.0555  -20.8601  -44.7608 C.3       9 UNK         0.1400 
     28 CB          1.4420  -19.8961  -45.7899 C.3       9 UNK        -0.1800 
     29 N           1.3259  -20.7310  -43.5009 N.am      9 UNK        -0.5000 
     30 C           1.7656  -21.1847  -42.3198 C.2       8 UNK         0.5000 
     31 O           2.8896  -21.6639  -42.1569 O.2       8 UNK        -0.5000 
     32 CA          0.7786  -21.1188  -41.1324 C.3       8 UNK         0.1400 
     33 CB          1.4927  -20.9634  -39.7726 C.3       8 UNK        -0.1800 
     34 N          -0.2902  -20.1198  -41.2816 N.am      8 UNK        -0.5000 
     35 C          -0.1529  -18.7870  -41.3343 C.2       7 UNK         0.5000 
     36 O           0.9259  -18.1969  -41.2809 O.2       7 UNK        -0.5000 
     37 CA         -1.4549  -17.9819  -41.4191 C.3       7 UNK         0.1400 
     38 CB         -1.9287  -17.5693  -40.0132 C.3       7 UNK        -0.1800 
     39 N          -1.2693  -16.7965  -42.2545 N.am      7 UNK        -0.5000 
     40 C          -2.2665  -16.1619  -42.8829 C.2       6 UNK         0.5000 
     41 O          -3.4446  -16.5179  -42.8109 O.2       6 UNK        -0.5000 
     42 CA         -1.8937  -14.8991  -43.6770 C.3       6 UNK         0.1400 
     43 CB         -3.1172  -14.2135  -44.3251 C.3       6 UNK        -0.1800 
     44 N          -1.1773  -13.9746  -42.7991 N.am      6 UNK        -0.5000 
     45 C          -0.4720  -12.9140  -43.2030 C.2       5 UNK         0.5000 
     46 O          -0.3664  -12.5592  -44.3793 O.2       5 UNK        -0.5000 
     47 CA          0.2675  -12.1242  -42.1177 C.3       5 UNK         0.1400 
     48 CB          1.6824  -12.6897  -41.9012 C.3       5 UNK        -0.1800 
     49 N           0.3427  -10.7250  -42.5315 N.am      5 UNK        -0.5000 
     50 C           0.4227   -9.6800  -41.6990 C.2       4 UNK         0.5000 
     51 O           0.5086   -9.7984  -40.4754 O.2       4 UNK        -0.5000 
     52 CA          0.4018   -8.2754  -42.3334 C.3       4 UNK         0.1400 
     53 CB          1.0775   -7.2068  -41.4523 C.3       4 UNK        -0.1800 
     54 N           1.0242   -8.2781  -43.6576 N.am      4 UNK        -0.5000 
     55 C           0.6033   -7.5662  -44.7116 C.2       3 UNK         0.5000 
     56 O          -0.3847   -6.8309  -44.6885 O.2       3 UNK        -0.5000 
     57 CA          1.4236   -7.6835  -46.0143 C.3       3 UNK         0.1400 
     58 CB          2.3466   -6.4656  -46.1763 C.3       3 UNK        -0.1800 
     59 N           2.2327   -8.9038  -46.0937 N.am      3 UNK        -0.5000 
     60 C           1.7328  -10.1369  -46.2437 C.2       2 UNK         0.5000 
     61 O           0.5285  -10.3641  -46.3767 O.2       2 UNK        -0.5000 
     62 CA          2.7404  -11.2998  -46.2225 C.3       2 UNK         0.1400 
     63 CB          3.8047  -11.1387  -45.1150 C.3       2 UNK        -0.1800 
     64 N           2.0193  -12.5551  -46.0350 N.am      2 UNK        -0.5000 
     65 C           2.4621  -13.7668  -46.3792 C.2       1 UNK         0.5000 
     66 O           3.5433  -13.9727  -46.9370 O.2       1 UNK        -0.5000 
     67 C          -1.0895  -23.1279  -48.4895 C.2       11 UNK         0.5000 
     68 O          -2.0692  -23.6359  -49.0299 O.2       11 UNK        -0.5000 
     69 N          -1.1070  -22.6542  -47.2353 N.am      12 UNK        -0.5000 
     70 CA         -2.2633  -22.7610  -46.3441 C.3       12 UNK         0.1400 
     71 CB         -2.1530  -21.7358  -45.2042 C.3       12 UNK        -0.1800 
     72 C          -2.4162  -24.1921  -45.8065 C.2       12 UNK         0.5000 
     73 O          -3.5325  -24.7085  -45.7732 O.2       12 UNK        -0.5000 
     74 N          -1.2864  -24.8258  -45.4601 N.am      13 UNK        -0.5000 
     75 CA         -1.2060  -26.2306  -45.0558 C.3       13 UNK         0.1400 
     76 CB          0.2128  -26.5320  -44.5494 C.3       13 UNK        -0.1800 
     77 C          -1.6064  -27.1995  -46.1867 C.2       13 UNK         0.5000 
     78 O          -2.3105  -28.1767  -45.9307 O.2       13 UNK        -0.5000 
     79 N          -1.1811  -26.8913  -47.4199 N.am      14 UNK        -0.5000 
     80 CA         -1.5280  -27.6314  -48.6364 C.3       14 UNK         0.1400 
     81 CB         -0.5003  -27.2879  -49.7269 C.3       14 UNK        -0.1800 
     82 C          -2.9552  -27.3499  -49.1527 C.2       14 UNK         0.5000 
     83 O          -3.4284  -28.0797  -50.0237 O.2       14 UNK        -0.5000 
     84 N          -3.5902  -26.2822  -48.6451 N.am      15 UNK        -0.5000 
     85 CA         -4.8832  -25.7127  -49.0513 C.3       15 UNK         0.1400 
     86 CB         -6.0332  -26.7246  -48.8759 C.3       15 UNK        -0.1800 
     87 C          -4.8734  -25.0674  -50.4556 C.2       15 UNK         0.5000 
     88 O          -5.9315  -24.7099  -50.9740 O.2       15 UNK        -0.5000 
     89 N          -3.6792  -24.8626  -51.0246 N.am      16 UNK        -0.5000 
     90 CA         -3.4433  -24.1589  -52.2824 C.3       16 UNK         0.1400 
     91 CB         -1.9878  -24.3768  -52.7178 C.3       16 UNK        -0.1800 
     92 C          -3.7531  -22.6556  -52.1845 C.2       16 UNK         0.5000 
     93 O          -4.1712  -22.0638  -53.1787 O.2       16 UNK        -0.5000 
     94 N          -3.5666  -22.0655  -50.9952 N.am      17 UNK        -0.5000 
     95 CA         -3.9547  -20.6839  -50.7021 C.3       17 UNK         0.1400 
     96 CB         -3.2888  -20.2111  -49.4021 C.3       17 UNK        -0.1800 
     97 C          -5.4822  -20.5258  -50.6087 C.2       17 UNK         0.5000 
     98 O          -6.0210  -19.5386  -51.1069 O.2       17 UNK        -0.5000 
     99 N          -6.1535  -21.5192  -50.0068 N.am      18 UNK        -0.5000 
    100 CA        -7.6120  -21.5810  -49.8762 C.3       18 UNK         0.1400 
    101 CB        -7.9919  -22.6819  -48.8738 C.3       18 UNK        -0.1800 
    102 C         -8.3099  -21.8018  -51.2309 C.2       18 UNK         0.5000 
    103 O         -9.3555  -21.2036  -51.4850 O.2       18 UNK        -0.5000 
    104 N         -7.6892  -22.6197  -52.0918 N.am      19 UNK        -0.5000 
    105 CA        -8.0927  -22.8444  -53.4811 C.3       19 UNK         0.1400 
    106 CB        -7.3867  -24.1101  -53.9934 C.3       19 UNK        -0.1800 
    107 C         -7.7852  -21.6534  -54.4143 C.2       19 UNK         0.5000 
    108 O         -8.2874  -21.6322  -55.5384 O.2       19 UNK        -0.5000 
    109 N         -6.9495  -20.7108  -53.9490 N.am      20 UNK        -0.5000 
    110 CA        -6.3989  -19.5579  -54.6725 C.3       20 UNK         0.1400 
    111 CB        -7.5114  -18.5640  -55.0650 C.3       20 UNK        -0.1800 
    112 C         -5.5013  -19.9674  -55.8612 C.2       20 UNK         0.5000 
    113 O         -5.4005  -19.2358  -56.8477 O.2       20 UNK        -0.5000 
    114 N         -4.8628  -21.1367  -55.7372 N.am      21 UNK        -0.5000 
    115 CA        -3.9147  -21.6920  -56.6959 C.3       21 UNK         0.1400 
    116 CB        -3.9582  -23.2257  -56.6054 C.3       21 UNK        -0.1800 
    117 C         -2.4904  -21.1761  -56.4347 C.2       21 UNK         0.5000 
    118 O         -1.7434  -20.9697  -57.3914 O.2       21 UNK        -0.5000 
    119 N         -2.1466  -20.9761  -55.1520 N.am      22 UNK        -0.5000 
    120 CA        -0.8548  -20.4476  -54.6677 C.3       22 UNK         0.1400 
    121 C          0.3846  -21.3529  -54.9611 C.2       22 UNK         0.5000 
    122 N          0.2141  -22.6207  -55.3157 N.am      22 UNK        -0.7600 
    123 O          1.5243  -20.9119  -54.8424 O.2       22 UNK        -0.5000 
    124 C124       -0.6269  -18.9697  -55.0979 C.3       23 UNK        -0.0398 
    125 S125       -1.8215  -17.8261  -54.3214 S.3       23 UNK        -0.2404 
    126 C126       -0.7167  -16.7082  -53.3958 C.3       23 UNK        -0.0205 
    127 H127        3.8188  -16.8837  -42.7076 H         1 UNK         0.0600 
    128 H128        2.8089  -18.2311  -43.2342 H         1 UNK         0.0600 
    129 H129        4.0356  -17.5745  -44.3195 H         1 UNK         0.0600 
    130 H130        3.1631  -16.2885  -45.9167 H         1 UNK         0.3000 
    131 H131        0.7842  -14.5937  -45.3495 H         1 UNK         0.0600 
    132 H132        0.3234  -14.6982  -47.8153 H         1 UNK         0.0800 
    133 H133        1.5556  -15.9287  -47.9907 H         1 UNK         0.0800 
    134 H134       -1.8124  -15.8600  -48.5684 H         1 UNK         0.0800 
    135 H135       -2.2275  -17.5193  -48.2186 H         1 UNK         0.0800 
    136 H136       -1.7963  -16.1320  -50.9685 H         1 UNK         0.1150 
    137 H137        1.2504  -18.5327  -52.8025 H         1 UNK         0.1150 
    138 H138        0.6879  -18.6687  -48.5684 H         1 UNK         0.1150 
    139 H139        2.5268  -19.8423  -49.5289 H         1 UNK         0.0800 
    140 H140        3.0447  -19.4391  -51.1454 H         1 UNK         0.0800 
    141 H141       -0.6928  -21.7196  -50.8016 H         1 UNK         0.0800 
    142 H142        0.0065  -20.8627  -49.4554 H         1 UNK         0.0800 
    143 H143        0.2669  -23.8457  -49.9801 H         1 UNK         0.0600 
    144 H144        1.9525  -22.2247  -48.3468 H         1 UNK         0.3000 
    145 H145        2.9495  -24.7699  -46.0610 H         1 UNK         0.0600 
    146 H146        4.3734  -25.0816  -48.0932 H         1 UNK         0.0600 
    147 H147        5.1768  -24.0722  -46.9017 H         1 UNK         0.0600 
    148 H148        4.4427  -23.3393  -48.3285 H         1 UNK         0.0600 
    149 H149        3.7414  -22.0593  -46.2957 H         1 UNK         0.3000 
    150 H150        3.1001  -20.5871  -44.5966 H         1 UNK         0.0600 
    151 H151        0.4037  -20.1433  -46.0132 H         1 UNK         0.0600 
    152 H152        1.9949  -19.9181  -46.7295 H         1 UNK         0.0600 
    153 H153        1.4637  -18.8687  -45.4298 H         1 UNK         0.0600 
    154 H154        0.3831  -20.3787  -43.5551 H         1 UNK         0.3000 
    155 H155        0.2764  -22.0872  -41.1217 H         1 UNK         0.0600 
    156 H156        0.7764  -20.9328  -38.9517 H         1 UNK         0.0600 
    157 H157        2.0913  -20.0531  -39.7303 H         1 UNK         0.0600 
    158 H158        2.1634  -21.8023  -39.5834 H         1 UNK         0.0600 
    159 H159       -1.2250  -20.5021  -41.3230 H         1 UNK         0.3000 
    160 H160       -2.2146  -18.6200  -41.8761 H         1 UNK         0.0600 
    161 H161       -1.2147  -16.8999  -39.5319 H         1 UNK         0.0600 
    162 H162       -2.0486  -18.4407  -39.3683 H         1 UNK         0.0600 
    163 H163       -2.8921  -17.0607  -40.0502 H         1 UNK         0.0600 
    164 H164       -0.3041  -16.5028  -42.4004 H         1 UNK         0.3000 
    165 H165       -1.2213  -15.2209  -44.4713 H         1 UNK         0.0600 
    166 H166       -3.6687  -14.9127  -44.9548 H         1 UNK         0.0600 
    167 H167       -3.8068  -13.8310  -43.5719 H         1 UNK         0.0600 
    168 H168       -2.8230  -13.3807  -44.9631 H         1 UNK         0.0600 
    169 H169       -1.1894  -14.2180  -41.8179 H         1 UNK         0.3000 
    170 H170       -0.3009  -12.1977  -41.1879 H         1 UNK         0.0600 
    171 H171        2.2356  -12.1109  -41.1617 H         1 UNK         0.0600 
    172 H172        2.2591  -12.6951  -42.8264 H         1 UNK         0.0600 
    173 H173        1.6380  -13.7184  -41.5415 H         1 UNK         0.0600 
    174 H174        0.2036  -10.5725  -43.5233 H         1 UNK         0.3000 
    175 H175       -0.6545   -8.0156  -42.4292 H         1 UNK         0.0600 
    176 H176        0.5983   -7.1388  -40.4749 H         1 UNK         0.0600 
    177 H177        2.1320   -7.4322  -41.2894 H         1 UNK         0.0600 
    178 H178        1.0129   -6.2196  -41.9101 H         1 UNK         0.0600 
    179 H179        1.8458   -8.8559  -43.7617 H         1 UNK         0.3000 
    180 H180        0.7162   -7.6877  -46.8463 H         1 UNK         0.0600 
    181 H181        3.0881   -6.4133  -45.3780 H         1 UNK         0.0600 
    182 H182        1.7755   -5.5364  -46.1546 H         1 UNK         0.0600 
    183 H183        2.8775   -6.4960  -47.1280 H         1 UNK         0.0600 
    184 H184        3.2316   -8.7874  -46.0012 H         1 UNK         0.3000 
    185 H185        3.2336  -11.3165  -47.1964 H         1 UNK         0.0600 
    186 H186        4.4556  -12.0111  -45.0563 H         1 UNK         0.0600 
    187 H187        4.4502  -10.2804  -45.3025 H         1 UNK         0.0600 
    188 H188        3.3469  -11.0009  -44.1350 H         1 UNK         0.0600 
    189 H189        1.0951  -12.4541  -45.6161 H         1 UNK         0.3000 
    190 H190       -0.2514  -22.3085  -46.8273 H         1 UNK         0.3000 
    191 H191       -3.1652  -22.5264  -46.9126 H         1 UNK         0.0600 
    192 H192       -2.0593  -20.7220  -45.5939 H         1 UNK         0.0600 
    193 H193       -3.0447  -21.7601  -44.5768 H         1 UNK         0.0600 
    194 H194       -1.2980  -21.9300  -44.5579 H         1 UNK         0.0600 
    195 H195       -0.4154  -24.3038  -45.4738 H         1 UNK         0.3000 
    196 H196       -1.9019  -26.3800  -44.2277 H         1 UNK         0.0600 
    197 H197        0.2928  -27.5630  -44.2030 H         1 UNK         0.0600 
    198 H198        0.4781  -25.8850  -43.7130 H         1 UNK         0.0600 
    199 H199        0.9594  -26.3890  -45.3309 H         1 UNK         0.0600 
    200 H200       -0.5290  -26.1203  -47.5301 H         1 UNK         0.3000 
    201 H201       -1.4595  -28.7006  -48.4261 H         1 UNK         0.0600 
    202 H202       -0.6941  -27.8486  -50.6422 H         1 UNK         0.0600 
    203 H203        0.5122  -27.5330  -49.4057 H         1 UNK         0.0600 
    204 H204       -0.5233  -26.2275  -49.9804 H         1 UNK         0.0600 
    205 H205       -3.0989  -25.7513  -47.9387 H         1 UNK         0.3000 
    206 H206       -5.0673  -24.8926  -48.3560 H         1 UNK         0.0600 
    207 H207       -6.0245  -27.1614  -47.8773 H         1 UNK         0.0600 
    208 H208       -7.0017  -26.2412  -49.0090 H         1 UNK         0.0600 
    209 H209       -5.9759  -27.5370  -49.6003 H         1 UNK         0.0600 
    210 H210       -2.8634  -25.0882  -50.4724 H         1 UNK         0.3000 
    211 H211       -4.0995  -24.5881  -53.0419 H         1 UNK         0.0600 
    212 H212       -1.7935  -23.8955  -53.6761 H         1 UNK         0.0600 
    213 H213       -1.7666  -25.4376  -52.8371 H         1 UNK         0.0600 
    214 H214       -1.2823  -23.9668  -51.9947 H         1 UNK         0.0600 
    215 H215       -3.1921  -22.6228  -50.2334 H         1 UNK         0.3000 
    216 H216       -3.6023  -20.0428  -51.5138 H         1 UNK         0.0600 
    217 H217       -2.2080  -20.1514  -49.5097 H         1 UNK         0.0600 
    218 H218       -3.5134  -20.8730  -48.5666 H         1 UNK         0.0600 
    219 H219       -3.6368  -19.2140  -49.1307 H         1 UNK         0.0600 
    220 H220       -5.6339  -22.3070  -49.6527 H         1 UNK         0.3000 
    221 H221       -7.9565  -20.6248  -49.4765 H         1 UNK         0.0600 
    222 H222       -7.6800  -23.6688  -49.2153 H         1 UNK         0.0600 
    223 H223       -7.5360  -22.5038  -47.8997 H         1 UNK         0.0600 
    224 H224       -9.0719  -22.7150  -48.7251 H         1 UNK         0.0600 
    225 H225       -6.8853  -23.1465  -51.7647 H         1 UNK         0.3000 
    226 H226       -9.1708  -23.0155  -53.5061 H         1 UNK         0.0600 
    227 H227       -7.6190  -24.9730  -53.3688 H         1 UNK         0.0600 
    228 H228       -7.7002  -24.3508  -55.0099 H         1 UNK         0.0600 
    229 H229       -6.3034  -23.9870  -54.0052 H         1 UNK         0.0600 
    230 H230       -6.6004  -20.8273  -53.0076 H         1 UNK         0.3000 
    231 H231       -5.7410  -19.0494  -53.9662 H         1 UNK         0.0600 
    232 H232       -8.1697  -18.9721  -55.8322 H         1 UNK         0.0600 
    233 H233       -7.0876  -17.6391  -55.4577 H         1 UNK         0.0600 
    234 H234       -8.1234  -18.2985  -54.2029 H         1 UNK         0.0600 
    235 H235       -4.9417  -21.6250  -54.8502 H         1 UNK         0.3000 
    236 H236       -4.2050  -21.3992  -57.7072 H         1 UNK         0.0600 
    237 H237       -3.2710  -23.6789  -57.3209 H         1 UNK         0.0600 
    238 H238       -3.6825  -23.5815  -55.6120 H         1 UNK         0.0600 
    239 H239       -4.9563  -23.6034  -56.8288 H         1 UNK         0.0600 
    240 H240       -2.8351  -21.1849  -54.4382 H         1 UNK         0.3000 
    241 H241       -0.9282  -20.4577  -53.5792 H         1 UNK         0.0600 
    242 H242       -0.7087  -22.9984  -55.4471 H         1 UNK         0.3800 
    243 H243        1.0231  -23.1943  -55.4943 H         1 UNK         0.3800 
    244 H244        0.3821  -18.6387  -54.8563 H         1 UNK         0.0800 
    245 H245       -0.7037  -18.8653  -56.1803 H         1 UNK         0.0800 
    246 H246        0.1738  -16.4821  -53.9840 H         1 UNK         0.0800 
    247 H247       -1.2307  -15.7549  -53.2636 H         1 UNK         0.0800 
@<TRIPOS>BOND
     1    1    2 1    
     2    1  127 1    
     3    1  128 1    
     4    1  129 1    
     5    2    3 2    
     6    2    4 am   BACKBONE|DICT|INTERRES
     7    4    5 1    
     8    4  130 1    
     9    5    6 1    
    10    5   65 1    
    11    5  131 1    
    12    6    7 1    
    13    6  132 1    
    14    6  133 1    
    15    7    8 1    
    16    8    9 1    
    17    8  134 1    
    18    8  135 1    
    19    9   10 ar   
    20    9   14 ar   
    21   10   11 ar   
    22   10  136 1    
    23   11   12 ar   
    24   11  126 1    
    25   12   13 ar   
    26   12  137 1    
    27   13   14 ar   
    28   13   15 1    
    29   14  138 1    
    30   15   16 1    
    31   15  139 1    
    32   15  140 1    
    33   16   17 1    
    34   17   18 1    
    35   17  141 1    
    36   17  142 1    
    37   18   19 1    
    38   18   67 1    
    39   18  143 1    
    40   19   20 am   BACKBONE|DICT|INTERRES
    41   19  144 1    
    42   20   21 2    
    43   20   22 1    
    44   22   23 1    
    45   22   24 1    
    46   22  145 1    
    47   23  146 1    
    48   23  147 1    
    49   23  148 1    
    50   24   25 am   BACKBONE|DICT|INTERRES
    51   24  149 1    
    52   25   26 2    
    53   25   27 1    
    54   27   28 1    
    55   27   29 1    
    56   27  150 1    
    57   28  151 1    
    58   28  152 1    
    59   28  153 1    
    60   29   30 am   BACKBONE|DICT|INTERRES
    61   29  154 1    
    62   30   31 2    
    63   30   32 1    
    64   32   33 1    
    65   32   34 1    
    66   32  155 1    
    67   33  156 1    
    68   33  157 1    
    69   33  158 1    
    70   34   35 am   BACKBONE|DICT|INTERRES
    71   34  159 1    
    72   35   36 2    
    73   35   37 1    
    74   37   38 1    
    75   37   39 1    
    76   37  160 1    
    77   38  161 1    
    78   38  162 1    
    79   38  163 1    
    80   39   40 am   BACKBONE|DICT|INTERRES
    81   39  164 1    
    82   40   41 2    
    83   40   42 1    
    84   42   43 1    
    85   42   44 1    
    86   42  165 1    
    87   43  166 1    
    88   43  167 1    
    89   43  168 1    
    90   44   45 am   BACKBONE|DICT|INTERRES
    91   44  169 1    
    92   45   46 2    
    93   45   47 1    
    94   47   48 1    
    95   47   49 1    
    96   47  170 1    
    97   48  171 1    
    98   48  172 1    
    99   48  173 1    
   100   49   50 am   BACKBONE|DICT|INTERRES
   101   49  174 1    
   102   50   51 2    
   103   50   52 1    
   104   52   53 1    
   105   52   54 1    
   106   52  175 1    
   107   53  176 1    
   108   53  177 1    
   109   53  178 1    
   110   54   55 am   BACKBONE|DICT|INTERRES
   111   54  179 1    
   112   55   56 2    
   113   55   57 1    
   114   57   58 1    
   115   57   59 1    
   116   57  180 1    
   117   58  181 1    
   118   58  182 1    
   119   58  183 1    
   120   59   60 am   BACKBONE|DICT|INTERRES
   121   59  184 1    
   122   60   61 2    
   123   60   62 1    
   124   62   63 1    
   125   62   64 1    
   126   62  185 1    
   127   63  186 1    
   128   63  187 1    
   129   63  188 1    
   130   64   65 am   BACKBONE|DICT|INTERRES
   131   64  189 1    
   132   65   66 2    
   133   67   68 2    
   134   67   69 am   BACKBONE|DICT|INTERRES
   135   69   70 1    
   136   69  190 1    
   137   70   71 1    
   138   70   72 1    
   139   70  191 1    
   140   71  192 1    
   141   71  193 1    
   142   71  194 1    
   143   72   73 2    
   144   72   74 am   BACKBONE|DICT|INTERRES
   145   74   75 1    
   146   74  195 1    
   147   75   76 1    
   148   75   77 1    
   149   75  196 1    
   150   76  197 1    
   151   76  198 1    
   152   76  199 1    
   153   77   78 2    
   154   77   79 am   BACKBONE|DICT|INTERRES
   155   79   80 1    
   156   79  200 1    
   157   80   81 1    
   158   80   82 1    
   159   80  201 1    
   160   81  202 1    
   161   81  203 1    
   162   81  204 1    
   163   82   83 2    
   164   82   84 am   BACKBONE|DICT|INTERRES
   165   84   85 1    
   166   84  205 1    
   167   85   86 1    
   168   85   87 1    
   169   85  206 1    
   170   86  207 1    
   171   86  208 1    
   172   86  209 1    
   173   87   88 2    
   174   87   89 am   BACKBONE|DICT|INTERRES
   175   89   90 1    
   176   89  210 1    
   177   90   91 1    
   178   90   92 1    
   179   90  211 1    
   180   91  212 1    
   181   91  213 1    
   182   91  214 1    
   183   92   93 2    
   184   92   94 am   BACKBONE|DICT|INTERRES
   185   94   95 1    
   186   94  215 1    
   187   95   96 1    
   188   95   97 1    
   189   95  216 1    
   190   96  217 1    
   191   96  218 1    
   192   96  219 1    
   193   97   98 2    
   194   97   99 am   BACKBONE|DICT|INTERRES
   195   99  100 1    
   196   99  220 1    
   197  100  101 1    
   198  100  102 1    
   199  100  221 1    
   200  101  222 1    
   201  101  223 1    
   202  101  224 1    
   203  102  103 2    
   204  102  104 am   BACKBONE|DICT|INTERRES
   205  104  105 1    
   206  104  225 1    
   207  105  106 1    
   208  105  107 1    
   209  105  226 1    
   210  106  227 1    
   211  106  228 1    
   212  106  229 1    
   213  107  108 2    
   214  107  109 am   BACKBONE|DICT|INTERRES
   215  109  110 1    
   216  109  230 1    
   217  110  111 1    
   218  110  112 1    
   219  110  231 1    
   220  111  232 1    
   221  111  233 1    
   222  111  234 1    
   223  112  113 2    
   224  112  114 am   BACKBONE|DICT|INTERRES
   225  114  115 1    
   226  114  235 1    
   227  115  116 1    
   228  115  117 1    
   229  115  236 1    
   230  116  237 1    
   231  116  238 1    
   232  116  239 1    
   233  117  118 2    
   234  117  119 am   BACKBONE|DICT|INTERRES
   235  119  120 1    
   236  119  240 1    
   237  120  121 1    
   238  120  124 1    
   239  120  241 1    
   240  121  122 am   BACKBONE|DICT|INTERRES
   241  121  123 2    
   242  122  242 1    
   243  122  243 1    
   244  124  125 1    
   245  124  244 1    
   246  124  245 1    
   247  125  126 1    
   248  126  246 1    
   249  126  247 1    
@<TRIPOS>SUBSTRUCTURE
     1 UNK         1 GROUP             0       ****    0 ROOT    
