@<TRIPOS>MOLECULE
3R540
247   249    1
SMALL
USER_CHARGES


@<TRIPOS>ATOM
      1 CA         -5.0761  -17.5847  -46.1191 C.3       0 UNK        -0.1800 
      2 C          -3.9729  -16.6165  -45.7180 C.2       0 UNK         0.5000 
      3 O          -4.1400  -15.8529  -44.7674 O.2       0 UNK        -0.5000 
      4 N          -2.8340  -16.6563  -46.4199 N.am      1 UNK        -0.5000 
      5 CA         -1.6574  -15.7973  -46.2246 C.3       1 UNK         0.1400 
      6 C6         -0.8713  -15.6022  -47.5488 C.3       23 UNK        -0.0398 
      7 S7         -0.3905  -17.1632  -48.3606 S.3       23 UNK        -0.2404 
      8 C8          0.5063  -16.5398  -49.8214 C.3       23 UNK        -0.0205 
      9 C9          1.1209  -17.6630  -50.6511 C.ar      23 UNK        -0.0193 
     10 C10         0.9930  -17.6813  -52.0439 C.ar      23 UNK        -0.1150 
     11 C11         1.5843  -18.7016  -52.7994 C.ar      23 UNK        -0.0193 
     12 C12         2.2930  -19.7186  -52.1500 C.ar      23 UNK        -0.1150 
     13 C13         2.4149  -19.7187  -50.7591 C.ar      23 UNK        -0.0193 
     14 C14         1.8474  -18.6775  -50.0255 C.ar      23 UNK        -0.1150 
     15 C15         3.1545  -20.8362  -50.0379 C.3       23 UNK        -0.0205 
     16 S16         2.0937  -22.2886  -49.7423 S.3       23 UNK        -0.2404 
     17 C17         0.6764  -21.5737  -48.8405 C.3       23 UNK        -0.0398 
     18 CA         -0.0151  -22.6218  -47.9389 C.3       11 UNK         0.1400 
     19 N           0.7517  -22.9124  -46.7223 N.am      11 UNK        -0.5000 
     20 C           0.5422  -23.9766  -45.9345 C.2       10 UNK         0.5000 
     21 O          -0.3120  -24.8332  -46.1580 O.2       10 UNK        -0.5000 
     22 CA          1.3927  -24.0705  -44.6541 C.3       10 UNK         0.1400 
     23 CB          2.8189  -24.5394  -44.9790 C.3       10 UNK        -0.1800 
     24 N           1.4488  -22.8036  -43.9230 N.am      10 UNK        -0.5000 
     25 C           0.3874  -22.2000  -43.3696 C.2       9 UNK         0.5000 
     26 O          -0.7447  -22.6790  -43.3727 O.2       9 UNK        -0.5000 
     27 CA          0.6066  -20.8080  -42.7480 C.3       9 UNK         0.1400 
     28 CB          0.8470  -20.9158  -41.2358 C.3       9 UNK        -0.1800 
     29 N           1.6951  -20.0399  -43.3544 N.am      9 UNK        -0.5000 
     30 C           1.7665  -19.6729  -44.6412 C.2       8 UNK         0.5000 
     31 O           0.9386  -20.0042  -45.4938 O.2       8 UNK        -0.5000 
     32 CA          2.9635  -18.7781  -45.0025 C.3       8 UNK         0.1400 
     33 CB          2.9962  -18.3951  -46.4867 C.3       8 UNK        -0.1800 
     34 N           2.9122  -17.5555  -44.2087 N.am      8 UNK        -0.5000 
     35 C           3.6150  -17.3209  -43.0936 C.2       7 UNK         0.5000 
     36 O           4.3847  -18.1429  -42.5944 O.2       7 UNK        -0.5000 
     37 CA          3.3830  -15.9613  -42.4034 C.3       7 UNK         0.1400 
     38 CB          4.5707  -15.5017  -41.5324 C.3       7 UNK        -0.1800 
     39 N           2.9504  -14.9119  -43.3349 N.am      7 UNK        -0.5000 
     40 C           3.6746  -14.3670  -44.3238 C.2       6 UNK         0.5000 
     41 O           4.8591  -14.6334  -44.5316 O.2       6 UNK        -0.5000 
     42 CA          2.9655  -13.3797  -45.2713 C.3       6 UNK         0.1400 
     43 CB          2.8140  -14.0069  -46.6678 C.3       6 UNK        -0.1800 
     44 N           1.6484  -12.9250  -44.8170 N.am      6 UNK        -0.5000 
     45 C           1.4296  -12.0285  -43.8452 C.2       5 UNK         0.5000 
     46 O           2.3221  -11.5643  -43.1346 O.2       5 UNK        -0.5000 
     47 CA         -0.0165  -11.5365  -43.6504 C.3       5 UNK         0.1400 
     48 CB         -0.9830  -11.9380  -44.7830 C.3       5 UNK        -0.1800 
     49 N          -0.5364  -12.0421  -42.3864 N.am      5 UNK        -0.5000 
     50 C          -1.2270  -11.3293  -41.4869 C.2       4 UNK         0.5000 
     51 O          -1.4691  -10.1278  -41.6129 O.2       4 UNK        -0.5000 
     52 CA         -1.7684  -12.0717  -40.2447 C.3       4 UNK         0.1400 
     53 CB         -3.2924  -12.2440  -40.3468 C.3       4 UNK        -0.1800 
     54 N          -1.1670  -13.3900  -40.0399 N.am      4 UNK        -0.5000 
     55 C           0.0754  -13.6044  -39.5900 C.2       3 UNK         0.5000 
     56 O           0.8226  -12.7067  -39.2003 O.2       3 UNK        -0.5000 
     57 CA          0.5831  -15.0616  -39.5962 C.3       3 UNK         0.1400 
     58 CB          0.5171  -15.6576  -38.1819 C.3       3 UNK        -0.1800 
     59 N          -0.1041  -15.9742  -40.5233 N.am      3 UNK        -0.5000 
     60 C          -0.2220  -15.8217  -41.8504 C.2       2 UNK         0.5000 
     61 O           0.1722  -14.8153  -42.4426 O.2       2 UNK        -0.5000 
     62 CA         -0.8445  -16.9962  -42.6382 C.3       2 UNK         0.1400 
     63 CB         -1.9120  -17.7614  -41.8331 C.3       2 UNK        -0.1800 
     64 N          -1.4365  -16.5700  -43.9045 N.am      2 UNK        -0.5000 
     65 C          -0.7797  -16.2383  -45.0234 C.2       1 UNK         0.5000 
     66 O           0.4494  -16.2636  -45.1177 O.2       1 UNK        -0.5000 
     67 C          -1.4586  -22.1959  -47.6138 C.2       11 UNK         0.5000 
     68 O          -2.3646  -22.5135  -48.3865 O.2       11 UNK        -0.5000 
     69 N          -1.6591  -21.5155  -46.4764 N.am      12 UNK        -0.5000 
     70 CA         -2.9814  -21.1725  -45.9552 C.3       12 UNK         0.1400 
     71 CB         -2.8419  -20.1819  -44.7905 C.3       12 UNK        -0.1800 
     72 C          -3.7789  -22.4238  -45.5407 C.2       12 UNK         0.5000 
     73 O          -4.9277  -22.5726  -45.9565 O.2       12 UNK        -0.5000 
     74 N          -3.1420  -23.3195  -44.7722 N.am      13 UNK        -0.5000 
     75 CA         -3.7128  -24.5850  -44.3036 C.3       13 UNK         0.1400 
     76 CB         -2.7709  -25.2196  -43.2693 C.3       13 UNK        -0.1800 
     77 C          -4.0104  -25.5778  -45.4418 C.2       13 UNK         0.5000 
     78 O          -5.0421  -26.2491  -45.4068 O.2       13 UNK        -0.5000 
     79 N          -3.1203  -25.6343  -46.4422 N.am      14 UNK        -0.5000 
     80 CA         -3.2744  -26.4497  -47.6501 C.3       14 UNK         0.1400 
     81 CB         -1.9089  -26.5683  -48.3458 C.3       14 UNK        -0.1800 
     82 C          -4.3226  -25.9008  -48.6395 C.2       14 UNK         0.5000 
     83 O          -4.6905  -26.6130  -49.5741 O.2       14 UNK        -0.5000 
     84 N          -4.7519  -24.6447  -48.4409 N.am      15 UNK        -0.5000 
     85 CA         -5.6354  -23.8519  -49.3030 C.3       15 UNK         0.1400 
     86 CB         -7.0364  -24.4869  -49.4166 C.3       15 UNK        -0.1800 
     87 C          -5.0098  -23.5217  -50.6754 C.2       15 UNK         0.5000 
     88 O          -5.7297  -23.2043  -51.6214 O.2       15 UNK        -0.5000 
     89 N          -3.6723  -23.5503  -50.7476 N.am      16 UNK        -0.5000 
     90 CA         -2.8802  -23.1146  -51.8971 C.3       16 UNK         0.1400 
     91 CB         -1.4545  -23.6674  -51.7545 C.3       16 UNK        -0.1800 
     92 C          -2.8691  -21.5787  -52.0216 C.2       16 UNK         0.5000 
     93 O          -2.7440  -21.0524  -53.1248 O.2       16 UNK        -0.5000 
     94 N          -3.0409  -20.8913  -50.8845 N.am      17 UNK        -0.5000 
     95 CA         -3.1667  -19.4390  -50.7780 C.3       17 UNK         0.1400 
     96 CB         -3.1763  -19.0753  -49.2877 C.3       17 UNK        -0.1800 
     97 C          -4.4274  -18.8615  -51.4561 C.2       17 UNK         0.5000 
     98 O          -4.4511  -17.6680  -51.7589 O.2       17 UNK        -0.5000 
     99 N          -5.4615  -19.6932  -51.6496 N.am      18 UNK        -0.5000 
    100 CA        -6.7170  -19.3157  -52.2936 C.3       18 UNK         0.1400 
    101 CB        -7.7777  -20.3879  -52.0021 C.3       18 UNK        -0.1800 
    102 C         -6.5275  -19.1378  -53.8092 C.2       18 UNK         0.5000 
    103 O         -5.9261  -20.0031  -54.4510 O.2       18 UNK        -0.5000 
    104 N         -7.0645  -18.0327  -54.3480 N.am      19 UNK        -0.5000 
    105 CA        -7.0037  -17.6164  -55.7535 C.3       19 UNK         0.1400 
    106 CB        -7.9256  -18.5086  -56.6160 C.3       19 UNK        -0.1800 
    107 C         -5.5462  -17.5468  -56.2565 C.2       19 UNK         0.5000 
    108 O         -4.8266  -16.6146  -55.8945 O.2       19 UNK        -0.5000 
    109 N         -5.1353  -18.5475  -57.0404 N.am      20 UNK        -0.5000 
    110 CA        -3.7592  -18.7867  -57.4601 C.3       20 UNK         0.1400 
    111 CB        -3.4974  -18.0944  -58.8111 C.3       20 UNK        -0.1800 
    112 C         -3.4825  -20.3011  -57.4896 C.2       20 UNK         0.5000 
    113 O         -2.7468  -20.7721  -58.3593 O.2       20 UNK        -0.5000 
    114 N         -4.0796  -21.0518  -56.5479 N.am      21 UNK        -0.5000 
    115 CA        -3.9644  -22.5127  -56.4386 C.3       21 UNK         0.1400 
    116 CB        -4.9190  -23.0169  -55.3458 C.3       21 UNK        -0.1800 
    117 C         -2.5247  -23.0178  -56.2030 C.2       21 UNK         0.5000 
    118 O         -2.2071  -24.1478  -56.5756 O.2       21 UNK        -0.5000 
    119 N         -1.6760  -22.1564  -55.6334 N.am      22 UNK        -0.5000 
    120 CA        -0.2194  -22.3059  -55.5315 C.3       22 UNK         0.1400 
    121 C          0.5528  -22.2823  -56.8868 C.2       22 UNK         0.5000 
    122 N         -0.0476  -21.8845  -58.0031 N.am      22 UNK        -0.7600 
    123 O          1.7249  -22.6465  -56.9263 O.2       22 UNK        -0.5000 
    124 C124        0.3752  -21.2901  -54.5210 C.3       23 UNK        -0.0398 
    125 S125       -0.0268  -19.5440  -54.8969 S.3       23 UNK        -0.2404 
    126 C126        1.4738  -18.6943  -54.3176 C.3       23 UNK        -0.0205 
    127 H127       -5.4918  -18.0698  -45.2360 H         1 UNK         0.0600 
    128 H128       -4.7086  -18.3613  -46.7881 H         1 UNK         0.0600 
    129 H129       -5.8796  -17.0485  -46.6237 H         1 UNK         0.0600 
    130 H130       -2.7319  -17.3319  -47.1632 H         1 UNK         0.3000 
    131 H131       -2.0302  -14.8089  -45.9523 H         1 UNK         0.0600 
    132 H132       -1.4921  -15.0444  -48.2512 H         1 UNK         0.0800 
    133 H133        0.0147  -14.9869  -47.3916 H         1 UNK         0.0800 
    134 H134       -0.1790  -15.9461  -50.4282 H         1 UNK         0.0800 
    135 H135        1.3037  -15.8705  -49.4956 H         1 UNK         0.0800 
    136 H136        0.4423  -16.8971  -52.5442 H         1 UNK         0.1150 
    137 H137        2.7482  -20.5134  -52.7230 H         1 UNK         0.1150 
    138 H138        1.9501  -18.6654  -48.9540 H         1 UNK         0.1150 
    139 H139        4.0176  -21.1450  -50.6292 H         1 UNK         0.0800 
    140 H140        3.5529  -20.4814  -49.0871 H         1 UNK         0.0800 
    141 H141       -0.0107  -21.1783  -49.5922 H         1 UNK         0.0800 
    142 H142        1.0005  -20.7209  -48.2426 H         1 UNK         0.0800 
    143 H143       -0.0977  -23.5511  -48.5068 H         1 UNK         0.0600 
    144 H144        1.4293  -22.2189  -46.4401 H         1 UNK         0.3000 
    145 H145        0.9296  -24.8145  -44.0023 H         1 UNK         0.0600 
    146 H146        3.4007  -24.6902  -44.0695 H         1 UNK         0.0600 
    147 H147        2.8039  -25.4894  -45.5149 H         1 UNK         0.0600 
    148 H148        3.3506  -23.8194  -45.6023 H         1 UNK         0.0600 
    149 H149        2.3443  -22.3414  -43.8731 H         1 UNK         0.3000 
    150 H150       -0.3114  -20.2394  -42.9016 H         1 UNK         0.0600 
    151 H151        1.7754  -21.4430  -41.0129 H         1 UNK         0.0600 
    152 H152        0.0355  -21.4587  -40.7490 H         1 UNK         0.0600 
    153 H153        0.8996  -19.9302  -40.7728 H         1 UNK         0.0600 
    154 H154        2.4323  -19.7348  -42.7339 H         1 UNK         0.3000 
    155 H155        3.8739  -19.3401  -44.7846 H         1 UNK         0.0600 
    156 H156        2.0989  -17.8480  -46.7771 H         1 UNK         0.0600 
    157 H157        3.0671  -19.2886  -47.1054 H         1 UNK         0.0600 
    158 H158        3.8583  -17.7685  -46.7155 H         1 UNK         0.0600 
    159 H159        2.2267  -16.8694  -44.5146 H         1 UNK         0.3000 
    160 H160        2.5514  -16.1308  -41.7250 H         1 UNK         0.0600 
    161 H161        5.4916  -15.4134  -42.1089 H         1 UNK         0.0600 
    162 H162        4.7607  -16.2122  -40.7272 H         1 UNK         0.0600 
    163 H163        4.3685  -14.5357  -41.0696 H         1 UNK         0.0600 
    164 H164        1.9718  -14.6482  -43.2640 H         1 UNK         0.3000 
    165 H165        3.6100  -12.5030  -45.3635 H         1 UNK         0.0600 
    166 H166        2.3098  -13.3308  -47.3583 H         1 UNK         0.0600 
    167 H167        3.7891  -14.2390  -47.0978 H         1 UNK         0.0600 
    168 H168        2.2501  -14.9391  -46.6309 H         1 UNK         0.0600 
    169 H169        0.8549  -13.2863  -45.3233 H         1 UNK         0.3000 
    170 H170        0.0399  -10.4464  -43.6269 H         1 UNK         0.0600 
    171 H171       -0.6145  -11.6151  -45.7576 H         1 UNK         0.0600 
    172 H172       -1.1359  -13.0159  -44.8139 H         1 UNK         0.0600 
    173 H173       -1.9592  -11.4739  -44.6410 H         1 UNK         0.0600 
    174 H174       -0.3412  -13.0229  -42.2016 H         1 UNK         0.3000 
    175 H175       -1.5521  -11.4514  -39.3724 H         1 UNK         0.0600 
    176 H176       -3.5707  -12.8602  -41.2028 H         1 UNK         0.0600 
    177 H177       -3.6982  -12.7111  -39.4492 H         1 UNK         0.0600 
    178 H178       -3.7891  -11.2796  -40.4615 H         1 UNK         0.0600 
    179 H179       -1.7098  -14.1867  -40.3380 H         1 UNK         0.3000 
    180 H180        1.6321  -15.0212  -39.8933 H         1 UNK         0.0600 
    181 H181       -0.5128  -15.7597  -37.8374 H         1 UNK         0.0600 
    182 H182        1.0420  -15.0255  -37.4642 H         1 UNK         0.0600 
    183 H183        0.9841  -16.6420  -38.1452 H         1 UNK         0.0600 
    184 H184       -0.4716  -16.8183  -40.1086 H         1 UNK         0.3000 
    185 H185       -0.0312  -17.6873  -42.8648 H         1 UNK         0.0600 
    186 H186       -1.4837  -18.2528  -40.9589 H         1 UNK         0.0600 
    187 H187       -2.7089  -17.0998  -41.4907 H         1 UNK         0.0600 
    188 H188       -2.3717  -18.5443  -42.4353 H         1 UNK         0.0600 
    189 H189       -2.4435  -16.4477  -43.9158 H         1 UNK         0.3000 
    190 H190       -0.8555  -21.2469  -45.9216 H         1 UNK         0.3000 
    191 H191       -3.5360  -20.6749  -46.7519 H         1 UNK         0.0600 
    192 H192       -2.2442  -19.3156  -45.0748 H         1 UNK         0.0600 
    193 H193       -3.8190  -19.8183  -44.4720 H         1 UNK         0.0600 
    194 H194       -2.3737  -20.6422  -43.9224 H         1 UNK         0.0600 
    195 H195       -2.2051  -23.1032  -44.4390 H         1 UNK         0.3000 
    196 H196       -4.6588  -24.3591  -43.8073 H         1 UNK         0.0600 
    197 H197       -3.1741  -26.1622  -42.8971 H         1 UNK         0.0600 
    198 H198       -2.6315  -24.5638  -42.4097 H         1 UNK         0.0600 
    199 H199       -1.7880  -25.4259  -43.6948 H         1 UNK         0.0600 
    200 H200       -2.2546  -25.1091  -46.3586 H         1 UNK         0.3000 
    201 H201       -3.5956  -27.4503  -47.3538 H         1 UNK         0.0600 
    202 H202       -1.9720  -27.1986  -49.2337 H         1 UNK         0.0600 
    203 H203       -1.1667  -27.0157  -47.6846 H         1 UNK         0.0600 
    204 H204       -1.5339  -25.5940  -48.6612 H         1 UNK         0.0600 
    205 H205       -4.3837  -24.1494  -47.6390 H         1 UNK         0.3000 
    206 H206       -5.7545  -22.8933  -48.7960 H         1 UNK         0.0600 
    207 H207       -7.4478  -24.7119  -48.4326 H         1 UNK         0.0600 
    208 H208       -7.7327  -23.8084  -49.9109 H         1 UNK         0.0600 
    209 H209       -7.0195  -25.4111  -49.9944 H         1 UNK         0.0600 
    210 H210       -3.1627  -23.7295  -49.8909 H         1 UNK         0.3000 
    211 H211       -3.3208  -23.5331  -52.8032 H         1 UNK         0.0600 
    212 H212       -0.9278  -23.2180  -50.9126 H         1 UNK         0.0600 
    213 H213       -0.8703  -23.4723  -52.6528 H         1 UNK         0.0600 
    214 H214       -1.4627  -24.7475  -51.6063 H         1 UNK         0.0600 
    215 H215       -3.0917  -21.4159  -50.0191 H         1 UNK         0.3000 
    216 H216       -2.2914  -18.9847  -51.2478 H         1 UNK         0.0600 
    217 H217       -3.2316  -17.9947  -49.1522 H         1 UNK         0.0600 
    218 H218       -2.2732  -19.4260  -48.7886 H         1 UNK         0.0600 
    219 H219       -4.0349  -19.5162  -48.7812 H         1 UNK         0.0600 
    220 H220       -5.3400  -20.6739  -51.4435 H         1 UNK         0.3000 
    221 H221       -7.0558  -18.3731  -51.8583 H         1 UNK         0.0600 
    222 H222       -7.5095  -21.3491  -52.4423 H         1 UNK         0.0600 
    223 H223       -7.9104  -20.5347  -50.9301 H         1 UNK         0.0600 
    224 H224       -8.7453  -20.0994  -52.4146 H         1 UNK         0.0600 
    225 H225       -7.5133  -17.3734  -53.7279 H         1 UNK         0.3000 
    226 H226       -7.3937  -16.5984  -55.7991 H         1 UNK         0.0600 
    227 H227       -8.9616  -18.4234  -56.2880 H         1 UNK         0.0600 
    228 H228       -7.8966  -18.2067  -57.6638 H         1 UNK         0.0600 
    229 H229       -7.6540  -19.5635  -56.5642 H         1 UNK         0.0600 
    230 H230       -5.7931  -19.2828  -57.2601 H         1 UNK         0.3000 
    231 H231       -3.0734  -18.3701  -56.7191 H         1 UNK         0.0600 
    232 H232       -4.1340  -18.5001  -59.5981 H         1 UNK         0.0600 
    233 H233       -2.4605  -18.2225  -59.1243 H         1 UNK         0.0600 
    234 H234       -3.6844  -17.0224  -58.7476 H         1 UNK         0.0600 
    235 H235       -4.6471  -20.5974  -55.8358 H         1 UNK         0.3000 
    236 H236       -4.2927  -22.9367  -57.3896 H         1 UNK         0.0600 
    237 H237       -5.9574  -22.8203  -55.6125 H         1 UNK         0.0600 
    238 H238       -4.8193  -24.0925  -55.1949 H         1 UNK         0.0600 
    239 H239       -4.7297  -22.5287  -54.3904 H         1 UNK         0.0600 
    240 H240       -2.0470  -21.2821  -55.2834 H         1 UNK         0.3000 
    241 H241       -0.0425  -23.3015  -55.1208 H         1 UNK         0.0600 
    242 H242        0.4709  -21.8836  -58.8668 H         1 UNK         0.3800 
    243 H243       -1.0116  -21.5652  -58.0018 H         1 UNK         0.3800 
    244 H244        0.0013  -21.4989  -53.5191 H         1 UNK         0.0800 
    245 H245        1.4567  -21.4168  -54.4601 H         1 UNK         0.0800 
    246 H246        2.3551  -19.1529  -54.7686 H         1 UNK         0.0800 
    247 H247        1.4530  -17.6648  -54.6778 H         1 UNK         0.0800 
@<TRIPOS>BOND
     1    1    2 1    
     2    1  127 1    
     3    1  128 1    
     4    1  129 1    
     5    2    3 2    
     6    2    4 am   BACKBONE|DICT|INTERRES
     7    4    5 1    
     8    4  130 1    
     9    5    6 1    
    10    5   65 1    
    11    5  131 1    
    12    6    7 1    
    13    6  132 1    
    14    6  133 1    
    15    7    8 1    
    16    8    9 1    
    17    8  134 1    
    18    8  135 1    
    19    9   10 ar   
    20    9   14 ar   
    21   10   11 ar   
    22   10  136 1    
    23   11   12 ar   
    24   11  126 1    
    25   12   13 ar   
    26   12  137 1    
    27   13   14 ar   
    28   13   15 1    
    29   14  138 1    
    30   15   16 1    
    31   15  139 1    
    32   15  140 1    
    33   16   17 1    
    34   17   18 1    
    35   17  141 1    
    36   17  142 1    
    37   18   19 1    
    38   18   67 1    
    39   18  143 1    
    40   19   20 am   BACKBONE|DICT|INTERRES
    41   19  144 1    
    42   20   21 2    
    43   20   22 1    
    44   22   23 1    
    45   22   24 1    
    46   22  145 1    
    47   23  146 1    
    48   23  147 1    
    49   23  148 1    
    50   24   25 am   BACKBONE|DICT|INTERRES
    51   24  149 1    
    52   25   26 2    
    53   25   27 1    
    54   27   28 1    
    55   27   29 1    
    56   27  150 1    
    57   28  151 1    
    58   28  152 1    
    59   28  153 1    
    60   29   30 am   BACKBONE|DICT|INTERRES
    61   29  154 1    
    62   30   31 2    
    63   30   32 1    
    64   32   33 1    
    65   32   34 1    
    66   32  155 1    
    67   33  156 1    
    68   33  157 1    
    69   33  158 1    
    70   34   35 am   BACKBONE|DICT|INTERRES
    71   34  159 1    
    72   35   36 2    
    73   35   37 1    
    74   37   38 1    
    75   37   39 1    
    76   37  160 1    
    77   38  161 1    
    78   38  162 1    
    79   38  163 1    
    80   39   40 am   BACKBONE|DICT|INTERRES
    81   39  164 1    
    82   40   41 2    
    83   40   42 1    
    84   42   43 1    
    85   42   44 1    
    86   42  165 1    
    87   43  166 1    
    88   43  167 1    
    89   43  168 1    
    90   44   45 am   BACKBONE|DICT|INTERRES
    91   44  169 1    
    92   45   46 2    
    93   45   47 1    
    94   47   48 1    
    95   47   49 1    
    96   47  170 1    
    97   48  171 1    
    98   48  172 1    
    99   48  173 1    
   100   49   50 am   BACKBONE|DICT|INTERRES
   101   49  174 1    
   102   50   51 2    
   103   50   52 1    
   104   52   53 1    
   105   52   54 1    
   106   52  175 1    
   107   53  176 1    
   108   53  177 1    
   109   53  178 1    
   110   54   55 am   BACKBONE|DICT|INTERRES
   111   54  179 1    
   112   55   56 2    
   113   55   57 1    
   114   57   58 1    
   115   57   59 1    
   116   57  180 1    
   117   58  181 1    
   118   58  182 1    
   119   58  183 1    
   120   59   60 am   BACKBONE|DICT|INTERRES
   121   59  184 1    
   122   60   61 2    
   123   60   62 1    
   124   62   63 1    
   125   62   64 1    
   126   62  185 1    
   127   63  186 1    
   128   63  187 1    
   129   63  188 1    
   130   64   65 am   BACKBONE|DICT|INTERRES
   131   64  189 1    
   132   65   66 2    
   133   67   68 2    
   134   67   69 am   BACKBONE|DICT|INTERRES
   135   69   70 1    
   136   69  190 1    
   137   70   71 1    
   138   70   72 1    
   139   70  191 1    
   140   71  192 1    
   141   71  193 1    
   142   71  194 1    
   143   72   73 2    
   144   72   74 am   BACKBONE|DICT|INTERRES
   145   74   75 1    
   146   74  195 1    
   147   75   76 1    
   148   75   77 1    
   149   75  196 1    
   150   76  197 1    
   151   76  198 1    
   152   76  199 1    
   153   77   78 2    
   154   77   79 am   BACKBONE|DICT|INTERRES
   155   79   80 1    
   156   79  200 1    
   157   80   81 1    
   158   80   82 1    
   159   80  201 1    
   160   81  202 1    
   161   81  203 1    
   162   81  204 1    
   163   82   83 2    
   164   82   84 am   BACKBONE|DICT|INTERRES
   165   84   85 1    
   166   84  205 1    
   167   85   86 1    
   168   85   87 1    
   169   85  206 1    
   170   86  207 1    
   171   86  208 1    
   172   86  209 1    
   173   87   88 2    
   174   87   89 am   BACKBONE|DICT|INTERRES
   175   89   90 1    
   176   89  210 1    
   177   90   91 1    
   178   90   92 1    
   179   90  211 1    
   180   91  212 1    
   181   91  213 1    
   182   91  214 1    
   183   92   93 2    
   184   92   94 am   BACKBONE|DICT|INTERRES
   185   94   95 1    
   186   94  215 1    
   187   95   96 1    
   188   95   97 1    
   189   95  216 1    
   190   96  217 1    
   191   96  218 1    
   192   96  219 1    
   193   97   98 2    
   194   97   99 am   BACKBONE|DICT|INTERRES
   195   99  100 1    
   196   99  220 1    
   197  100  101 1    
   198  100  102 1    
   199  100  221 1    
   200  101  222 1    
   201  101  223 1    
   202  101  224 1    
   203  102  103 2    
   204  102  104 am   BACKBONE|DICT|INTERRES
   205  104  105 1    
   206  104  225 1    
   207  105  106 1    
   208  105  107 1    
   209  105  226 1    
   210  106  227 1    
   211  106  228 1    
   212  106  229 1    
   213  107  108 2    
   214  107  109 am   BACKBONE|DICT|INTERRES
   215  109  110 1    
   216  109  230 1    
   217  110  111 1    
   218  110  112 1    
   219  110  231 1    
   220  111  232 1    
   221  111  233 1    
   222  111  234 1    
   223  112  113 2    
   224  112  114 am   BACKBONE|DICT|INTERRES
   225  114  115 1    
   226  114  235 1    
   227  115  116 1    
   228  115  117 1    
   229  115  236 1    
   230  116  237 1    
   231  116  238 1    
   232  116  239 1    
   233  117  118 2    
   234  117  119 am   BACKBONE|DICT|INTERRES
   235  119  120 1    
   236  119  240 1    
   237  120  121 1    
   238  120  124 1    
   239  120  241 1    
   240  121  122 am   BACKBONE|DICT|INTERRES
   241  121  123 2    
   242  122  242 1    
   243  122  243 1    
   244  124  125 1    
   245  124  244 1    
   246  124  245 1    
   247  125  126 1    
   248  126  246 1    
   249  126  247 1    
@<TRIPOS>SUBSTRUCTURE
     1 UNK         1 GROUP             0       ****    0 ROOT    
