@<TRIPOS>MOLECULE
3R540
247   249    1
SMALL
USER_CHARGES


@<TRIPOS>ATOM
      1 CA         -1.3255  -14.4967  -45.9120 C.3       0 UNK        -0.1800 
      2 C          -0.7907  -13.2419  -46.5850 C.2       0 UNK         0.5000 
      3 O          -1.0540  -12.1359  -46.1146 O.2       0 UNK        -0.5000 
      4 N          -0.0273  -13.4030  -47.6725 N.am      1 UNK        -0.5000 
      5 CA          0.5691  -12.3135  -48.4576 C.3       1 UNK         0.1400 
      6 C6          0.6334  -12.6549  -49.9687 C.3       23 UNK        -0.0398 
      7 S7         -1.0317  -12.8745  -50.6831 S.3       23 UNK        -0.2404 
      8 C8         -0.7045  -14.0676  -52.0259 C.3       23 UNK        -0.0205 
      9 C9         -0.3478  -15.4873  -51.5828 C.ar      23 UNK        -0.0193 
     10 C10         0.3448  -16.3086  -52.4780 C.ar      23 UNK        -0.1150 
     11 C11         0.6507  -17.6318  -52.1499 C.ar      23 UNK        -0.0193 
     12 C12         0.2849  -18.1292  -50.8974 C.ar      23 UNK        -0.1150 
     13 C13        -0.4141  -17.3268  -49.9939 C.ar      23 UNK        -0.0193 
     14 C14        -0.7330  -16.0110  -50.3411 C.ar      23 UNK        -0.1150 
     15 C15        -0.8485  -17.8962  -48.6563 C.3       23 UNK        -0.0205 
     16 S16        -2.4824  -18.6770  -48.7885 S.3       23 UNK        -0.2404 
     17 C17        -2.6622  -19.3399  -47.1040 C.3       23 UNK        -0.0398 
     18 CA         -2.1036  -20.7854  -46.9909 C.3       11 UNK         0.1400 
     19 N          -0.8554  -20.8505  -46.2228 N.am      11 UNK        -0.5000 
     20 C          -0.0989  -21.9504  -46.0902 C.2       10 UNK         0.5000 
     21 O          -0.3480  -23.0224  -46.6397 O.2       10 UNK        -0.5000 
     22 CA          1.1065  -21.8595  -45.1395 C.3       10 UNK         0.1400 
     23 CB          2.2925  -21.1655  -45.8253 C.3       10 UNK        -0.1800 
     24 N           0.7795  -21.1782  -43.8863 N.am      10 UNK        -0.5000 
     25 C          -0.1183  -21.6225  -42.9941 C.2       9 UNK         0.5000 
     26 O          -0.7240  -22.6878  -43.1081 O.2       9 UNK        -0.5000 
     27 CA         -0.4375  -20.6993  -41.8041 C.3       9 UNK         0.1400 
     28 CB          0.6383  -20.8144  -40.7145 C.3       9 UNK        -0.1800 
     29 N          -0.5865  -19.2999  -42.2031 N.am      9 UNK        -0.5000 
     30 C          -1.5197  -18.8407  -43.0494 C.2       8 UNK         0.5000 
     31 O          -2.3964  -19.5420  -43.5547 O.2       8 UNK        -0.5000 
     32 CA         -1.4123  -17.3594  -43.4481 C.3       8 UNK         0.1400 
     33 CB         -2.0245  -16.4470  -42.3746 C.3       8 UNK        -0.1800 
     34 N          -0.0259  -16.9685  -43.7056 N.am      8 UNK        -0.5000 
     35 C           0.7002  -17.4171  -44.7391 C.2       7 UNK         0.5000 
     36 O           0.2611  -18.1755  -45.6024 O.2       7 UNK        -0.5000 
     37 CA          2.1712  -16.9738  -44.7967 C.3       7 UNK         0.1400 
     38 CB          2.2942  -15.5776  -45.4228 C.3       7 UNK        -0.1800 
     39 N           2.8063  -16.9860  -43.4777 N.am      7 UNK        -0.5000 
     40 C           3.0695  -18.1072  -42.7888 C.2       6 UNK         0.5000 
     41 O           2.8388  -19.2373  -43.2156 O.2       6 UNK        -0.5000 
     42 CA          3.6414  -17.9454  -41.3676 C.3       6 UNK         0.1400 
     43 CB          5.1746  -17.8672  -41.4115 C.3       6 UNK        -0.1800 
     44 N           3.1225  -16.7757  -40.6588 N.am      6 UNK        -0.5000 
     45 C           1.8304  -16.5269  -40.4014 C.2       5 UNK         0.5000 
     46 O           0.9183  -17.2972  -40.7015 O.2       5 UNK        -0.5000 
     47 CA          1.4943  -15.1821  -39.7253 C.3       5 UNK         0.1400 
     48 CB          1.1134  -15.4033  -38.2539 C.3       5 UNK        -0.1800 
     49 N           2.5792  -14.1963  -39.7954 N.am      5 UNK        -0.5000 
     50 C           3.0092  -13.6057  -40.9182 C.2       4 UNK         0.5000 
     51 O           2.5417  -13.8338  -42.0369 O.2       4 UNK        -0.5000 
     52 CA          4.2196  -12.6693  -40.7696 C.3       4 UNK         0.1400 
     53 CB          5.5120  -13.4145  -41.1393 C.3       4 UNK        -0.1800 
     54 N           4.0883  -11.4974  -41.6290 N.am      4 UNK        -0.5000 
     55 C           3.3179  -10.4337  -41.3635 C.2       3 UNK         0.5000 
     56 O           2.6782  -10.2961  -40.3199 O.2       3 UNK        -0.5000 
     57 CA          3.2567   -9.3351  -42.4448 C.3       3 UNK         0.1400 
     58 CB          4.2708   -8.2218  -42.1393 C.3       3 UNK        -0.1800 
     59 N           3.5080   -9.8557  -43.7917 N.am      3 UNK        -0.5000 
     60 C           2.6314  -10.5968  -44.4799 C.2       2 UNK         0.5000 
     61 O           1.4852  -10.8392  -44.0921 O.2       2 UNK        -0.5000 
     62 CA          3.1350  -11.1900  -45.8027 C.3       2 UNK         0.1400 
     63 CB          4.1166  -12.3473  -45.5354 C.3       2 UNK        -0.1800 
     64 N           1.9832  -11.6623  -46.5626 N.am      2 UNK        -0.5000 
     65 C           1.9421  -11.9041  -47.8766 C.2       1 UNK         0.5000 
     66 O           2.9283  -11.8158  -48.6105 O.2       1 UNK        -0.5000 
     67 C          -3.1706  -21.7541  -46.4463 C.2       11 UNK         0.5000 
     68 O          -3.8098  -22.4468  -47.2376 O.2       11 UNK        -0.5000 
     69 N          -3.3242  -21.8075  -45.1163 N.am      12 UNK        -0.5000 
     70 CA         -4.2309  -22.7243  -44.4267 C.3       12 UNK         0.1400 
     71 CB         -4.3066  -22.3551  -42.9375 C.3       12 UNK        -0.1800 
     72 C          -3.8337  -24.2000  -44.6137 C.2       12 UNK         0.5000 
     73 O          -4.6979  -25.0235  -44.9147 O.2       12 UNK        -0.5000 
     74 N          -2.5347  -24.4998  -44.4716 N.am      13 UNK        -0.5000 
     75 CA         -1.9598  -25.8345  -44.6537 C.3       13 UNK         0.1400 
     76 CB         -0.4958  -25.8290  -44.1882 C.3       13 UNK        -0.1800 
     77 C          -2.0676  -26.3475  -46.1019 C.2       13 UNK         0.5000 
     78 O          -2.3908  -27.5174  -46.3102 O.2       13 UNK        -0.5000 
     79 N          -1.8182  -25.4603  -47.0739 N.am      14 UNK        -0.5000 
     80 CA         -1.9216  -25.7417  -48.5072 C.3       14 UNK         0.1400 
     81 CB         -1.0665  -24.7189  -49.2725 C.3       14 UNK        -0.1800 
     82 C          -3.3689  -25.7203  -49.0365 C.2       14 UNK         0.5000 
     83 O          -3.5838  -26.0889  -50.1920 O.2       14 UNK        -0.5000 
     84 N          -4.3202  -25.2467  -48.2178 N.am      15 UNK        -0.5000 
     85 CA         -5.7321  -25.0080  -48.5353 C.3       15 UNK         0.1400 
     86 CB         -6.4747  -26.3436  -48.7468 C.3       15 UNK        -0.1800 
     87 C          -5.8957  -24.0307  -49.7180 C.2       15 UNK         0.5000 
     88 O          -6.6292  -24.3183  -50.6640 O.2       15 UNK        -0.5000 
     89 N          -5.1507  -22.9162  -49.6617 N.am      16 UNK        -0.5000 
     90 CA         -5.0023  -21.8939  -50.7050 C.3       16 UNK         0.1400 
     91 CB         -6.3053  -21.0847  -50.8652 C.3       16 UNK        -0.1800 
     92 C          -4.4919  -22.4895  -52.0351 C.2       16 UNK         0.5000 
     93 O          -5.0426  -22.2010  -53.0990 O.2       16 UNK        -0.5000 
     94 N          -3.4693  -23.3523  -51.9276 N.am      17 UNK        -0.5000 
     95 CA         -2.8656  -24.1514  -52.9998 C.3       17 UNK         0.1400 
     96 CB         -2.1089  -23.2452  -53.9933 C.3       17 UNK        -0.1800 
     97 C          -3.9049  -25.0655  -53.6798 C.2       17 UNK         0.5000 
     98 O          -4.0880  -24.9997  -54.8951 O.2       17 UNK        -0.5000 
     99 N          -4.6118  -25.8591  -52.8608 N.am      18 UNK        -0.5000 
    100 CA        -5.7404  -26.7255  -53.2282 C.3       18 UNK         0.1400 
    101 CB        -5.2426  -27.9433  -54.0331 C.3       18 UNK        -0.1800 
    102 C         -6.8756  -25.9534  -53.9395 C.2       18 UNK         0.5000 
    103 O         -7.4276  -26.4259  -54.9346 O.2       18 UNK        -0.5000 
    104 N         -7.1616  -24.7510  -53.4222 N.am      19 UNK        -0.5000 
    105 CA        -8.1034  -23.7385  -53.9064 C.3       19 UNK         0.1400 
    106 CB        -9.5499  -24.2716  -53.8554 C.3       19 UNK        -0.1800 
    107 C         -7.7591  -23.1174  -55.2797 C.2       19 UNK         0.5000 
    108 O         -8.5713  -22.3516  -55.8024 O.2       19 UNK        -0.5000 
    109 N         -6.5824  -23.4217  -55.8468 N.am      20 UNK        -0.5000 
    110 CA        -6.1375  -22.8921  -57.1385 C.3       20 UNK         0.1400 
    111 CB        -5.1678  -23.8891  -57.7918 C.3       20 UNK        -0.1800 
    112 C         -5.4823  -21.5025  -57.0254 C.2       20 UNK         0.5000 
    113 O         -5.4050  -20.8010  -58.0356 O.2       20 UNK        -0.5000 
    114 N         -5.0287  -21.1361  -55.8162 N.am      21 UNK        -0.5000 
    115 CA        -4.2759  -19.9283  -55.4622 C.3       21 UNK         0.1400 
    116 CB        -5.1098  -18.6587  -55.7404 C.3       21 UNK        -0.1800 
    117 C         -2.8707  -19.8666  -56.1027 C.2       21 UNK         0.5000 
    118 O         -2.4573  -20.7757  -56.8272 O.2       21 UNK        -0.5000 
    119 N         -2.1424  -18.7934  -55.7902 N.am      22 UNK        -0.5000 
    120 CA        -0.7742  -18.5120  -56.2392 C.3       22 UNK         0.1400 
    121 C         -0.4282  -17.0092  -56.0510 C.2       22 UNK         0.5000 
    122 N          0.7322  -16.5648  -56.5153 N.am      22 UNK        -0.7600 
    123 O         -1.2064  -16.2305  -55.5027 O.2       22 UNK        -0.5000 
    124 C124        0.2908  -19.4797  -55.6384 C.3       23 UNK        -0.0398 
    125 S125        0.1686  -19.7526  -53.8343 S.3       23 UNK        -0.2404 
    126 C126        1.3446  -18.5387  -53.1537 C.3       23 UNK        -0.0205 
    127 H127       -1.0656  -14.4889  -44.8539 H         1 UNK         0.0600 
    128 H128       -0.9124  -15.4009  -46.3551 H         1 UNK         0.0600 
    129 H129       -2.4112  -14.5382  -45.9980 H         1 UNK         0.0600 
    130 H130        0.1774  -14.3337  -48.0037 H         1 UNK         0.3000 
    131 H131       -0.0624  -11.4270  -48.3653 H         1 UNK         0.0600 
    132 H132        1.1211  -11.8541  -50.5274 H         1 UNK         0.0800 
    133 H133        1.2306  -13.5535  -50.1319 H         1 UNK         0.0800 
    134 H134        0.0906  -13.6650  -52.6557 H         1 UNK         0.0800 
    135 H135       -1.5933  -14.1258  -52.6555 H         1 UNK         0.0800 
    136 H136        0.6240  -15.9221  -53.4479 H         1 UNK         0.1150 
    137 H137        0.5133  -19.1544  -50.6410 H         1 UNK         0.1150 
    138 H138       -1.3000  -15.4090  -49.6463 H         1 UNK         0.1150 
    139 H139       -0.1200  -18.6301  -48.3073 H         1 UNK         0.0800 
    140 H140       -0.8803  -17.1090  -47.9042 H         1 UNK         0.0800 
    141 H141       -3.7269  -19.2867  -46.8669 H         1 UNK         0.0800 
    142 H142       -2.1873  -18.6667  -46.3908 H         1 UNK         0.0800 
    143 H143       -1.8599  -21.1547  -47.9898 H         1 UNK         0.0600 
    144 H144       -0.5525  -19.9938  -45.7702 H         1 UNK         0.3000 
    145 H145        1.4101  -22.8788  -44.8924 H         1 UNK         0.0600 
    146 H146        3.1776  -21.1795  -45.1893 H         1 UNK         0.0600 
    147 H147        2.5540  -21.6693  -46.7566 H         1 UNK         0.0600 
    148 H148        2.0702  -20.1260  -46.0659 H         1 UNK         0.0600 
    149 H149        1.2862  -20.3199  -43.6916 H         1 UNK         0.3000 
    150 H150       -1.3889  -21.0235  -41.3776 H         1 UNK         0.0600 
    151 H151        0.7222  -21.8416  -40.3577 H         1 UNK         0.0600 
    152 H152        0.3984  -20.1884  -39.8548 H         1 UNK         0.0600 
    153 H153        1.6188  -20.5148  -41.0833 H         1 UNK         0.0600 
    154 H154        0.0693  -18.6359  -41.8008 H         1 UNK         0.3000 
    155 H155       -1.9802  -17.2194  -44.3701 H         1 UNK         0.0600 
    156 H156       -3.0728  -16.6968  -42.2070 H         1 UNK         0.0600 
    157 H157       -1.9851  -15.4003  -42.6757 H         1 UNK         0.0600 
    158 H158       -1.5110  -16.5396  -41.4177 H         1 UNK         0.0600 
    159 H159        0.4234  -16.3937  -43.0081 H         1 UNK         0.3000 
    160 H160        2.7034  -17.6789  -45.4389 H         1 UNK         0.0600 
    161 H161        1.8309  -14.8102  -44.8009 H         1 UNK         0.0600 
    162 H162        1.8149  -15.5435  -46.4018 H         1 UNK         0.0600 
    163 H163        3.3404  -15.3105  -45.5687 H         1 UNK         0.0600 
    164 H164        2.9965  -16.0900  -43.0495 H         1 UNK         0.3000 
    165 H165        3.3595  -18.8303  -40.7943 H         1 UNK         0.0600 
    166 H166        5.5977  -17.8432  -40.4071 H         1 UNK         0.0600 
    167 H167        5.5954  -18.7363  -41.9191 H         1 UNK         0.0600 
    168 H168        5.5178  -16.9783  -41.9425 H         1 UNK         0.0600 
    169 H169        3.8007  -16.0899  -40.3646 H         1 UNK         0.3000 
    170 H170        0.6273  -14.7687  -40.2448 H         1 UNK         0.0600 
    171 H171        0.7950  -14.4725  -37.7841 H         1 UNK         0.0600 
    172 H172        0.2858  -16.1087  -38.1658 H         1 UNK         0.0600 
    173 H173        1.9484  -15.8036  -37.6775 H         1 UNK         0.0600 
    174 H174        3.0265  -13.9649  -38.9197 H         1 UNK         0.3000 
    175 H175        4.2947  -12.3383  -39.7314 H         1 UNK         0.0600 
    176 H176        5.4922  -13.7705  -42.1705 H         1 UNK         0.0600 
    177 H177        6.3845  -12.7711  -41.0240 H         1 UNK         0.0600 
    178 H178        5.6631  -14.2818  -40.4955 H         1 UNK         0.0600 
    179 H179        4.5437  -11.5451  -42.5272 H         1 UNK         0.3000 
    180 H180        2.2554   -8.8995  -42.4189 H         1 UNK         0.0600 
    181 H181        5.2961   -8.5935  -42.1582 H         1 UNK         0.0600 
    182 H182        4.0950   -7.7944  -41.1511 H         1 UNK         0.0600 
    183 H183        4.1939   -7.4090  -42.8616 H         1 UNK         0.0600 
    184 H184        4.4245   -9.6835  -44.1800 H         1 UNK         0.3000 
    185 H185        3.6349  -10.4028  -46.3708 H         1 UNK         0.0600 
    186 H186        5.0395  -11.9806  -45.0856 H         1 UNK         0.0600 
    187 H187        3.6905  -13.0787  -44.8484 H         1 UNK         0.0600 
    188 H188        4.3919  -12.8665  -46.4533 H         1 UNK         0.0600 
    189 H189        1.1242  -11.7167  -46.0224 H         1 UNK         0.3000 
    190 H190       -2.7960  -21.1628  -44.5346 H         1 UNK         0.3000 
    191 H191       -5.2260  -22.5924  -44.8568 H         1 UNK         0.0600 
    192 H192       -4.6526  -21.3300  -42.8036 H         1 UNK         0.0600 
    193 H193       -5.0038  -23.0063  -42.4090 H         1 UNK         0.0600 
    194 H194       -3.3372  -22.4455  -42.4477 H         1 UNK         0.0600 
    195 H195       -1.8930  -23.7664  -44.1808 H         1 UNK         0.3000 
    196 H196       -2.5151  -26.5253  -44.0159 H         1 UNK         0.0600 
    197 H197       -0.0461  -26.8166  -44.2976 H         1 UNK         0.0600 
    198 H198       -0.4181  -25.5505  -43.1371 H         1 UNK         0.0600 
    199 H199        0.1068  -25.1266  -44.7649 H         1 UNK         0.0600 
    200 H200       -1.4939  -24.5300  -46.8195 H         1 UNK         0.3000 
    201 H201       -1.5167  -26.7371  -48.7008 H         1 UNK         0.0600 
    202 H202       -0.0326  -24.7341  -48.9272 H         1 UNK         0.0600 
    203 H203       -1.4451  -23.7036  -49.1458 H         1 UNK         0.0600 
    204 H204       -1.0510  -24.9375  -50.3403 H         1 UNK         0.0600 
    205 H205       -4.0270  -24.9320  -47.3024 H         1 UNK         0.3000 
    206 H206       -6.1677  -24.5170  -47.6639 H         1 UNK         0.0600 
    207 H207       -6.3545  -26.9998  -47.8849 H         1 UNK         0.0600 
    208 H208       -7.5440  -26.1778  -48.8823 H         1 UNK         0.0600 
    209 H209       -6.1130  -26.8765  -49.6266 H         1 UNK         0.0600 
    210 H210       -4.5964  -22.7709  -48.8182 H         1 UNK         0.3000 
    211 H211       -4.2280  -21.2074  -50.3590 H         1 UNK         0.0600 
    212 H212       -7.1263  -21.7030  -51.2281 H         1 UNK         0.0600 
    213 H213       -6.1728  -20.2671  -51.5747 H         1 UNK         0.0600 
    214 H214       -6.6121  -20.6441  -49.9167 H         1 UNK         0.0600 
    215 H215       -3.1338  -23.5554  -50.9982 H         1 UNK         0.3000 
    216 H216       -2.1347  -24.8108  -52.5306 H         1 UNK         0.0600 
    217 H217       -1.5742  -23.8403  -54.7341 H         1 UNK         0.0600 
    218 H218       -2.7833  -22.5835  -54.5362 H         1 UNK         0.0600 
    219 H219       -1.3732  -22.6248  -53.4816 H         1 UNK         0.0600 
    220 H220       -4.3711  -25.8520  -51.8714 H         1 UNK         0.3000 
    221 H221       -6.1613  -27.0943  -52.2918 H         1 UNK         0.0600 
    222 H222       -4.8420  -27.6502  -55.0041 H         1 UNK         0.0600 
    223 H223       -4.4598  -28.4772  -53.4945 H         1 UNK         0.0600 
    224 H224       -6.0526  -28.6511  -54.2129 H         1 UNK         0.0600 
    225 H225       -6.6826  -24.4954  -52.5619 H         1 UNK         0.3000 
    226 H226       -8.0339  -22.9181  -53.1914 H         1 UNK         0.0600 
    227 H227       -9.7850  -24.6784  -52.8718 H         1 UNK         0.0600 
    228 H228      -10.2690  -23.4764  -54.0550 H         1 UNK         0.0600 
    229 H229       -9.7193  -25.0559  -54.5935 H         1 UNK         0.0600 
    230 H230       -5.9392  -24.0385  -55.3626 H         1 UNK         0.3000 
    231 H231       -7.0029  -22.7967  -57.7977 H         1 UNK         0.0600 
    232 H232       -4.2184  -23.9366  -57.2581 H         1 UNK         0.0600 
    233 H233       -4.9453  -23.5953  -58.8183 H         1 UNK         0.0600 
    234 H234       -5.5895  -24.8939  -57.8233 H         1 UNK         0.0600 
    235 H235       -5.1452  -21.7899  -55.0475 H         1 UNK         0.3000 
    236 H236       -4.1160  -19.9889  -54.3849 H         1 UNK         0.0600 
    237 H237       -6.1149  -18.7507  -55.3284 H         1 UNK         0.0600 
    238 H238       -4.6576  -17.7784  -55.2830 H         1 UNK         0.0600 
    239 H239       -5.2025  -18.4580  -56.8080 H         1 UNK         0.0600 
    240 H240       -2.5346  -18.0637  -55.2097 H         1 UNK         0.3000 
    241 H241       -0.7751  -18.6570  -57.3211 H         1 UNK         0.0600 
    242 H242        1.3796  -17.1657  -57.0009 H         1 UNK         0.3800 
    243 H243        0.9549  -15.5873  -56.4096 H         1 UNK         0.3800 
    244 H244        1.3050  -19.1761  -55.8995 H         1 UNK         0.0800 
    245 H245        0.1697  -20.4581  -56.1046 H         1 UNK         0.0800 
    246 H246        2.1619  -19.0693  -52.6635 H         1 UNK         0.0800 
    247 H247        1.7973  -17.9483  -53.9513 H         1 UNK         0.0800 
@<TRIPOS>BOND
     1    1    2 1    
     2    1  127 1    
     3    1  128 1    
     4    1  129 1    
     5    2    3 2    
     6    2    4 am   BACKBONE|DICT|INTERRES
     7    4    5 1    
     8    4  130 1    
     9    5    6 1    
    10    5   65 1    
    11    5  131 1    
    12    6    7 1    
    13    6  132 1    
    14    6  133 1    
    15    7    8 1    
    16    8    9 1    
    17    8  134 1    
    18    8  135 1    
    19    9   10 ar   
    20    9   14 ar   
    21   10   11 ar   
    22   10  136 1    
    23   11   12 ar   
    24   11  126 1    
    25   12   13 ar   
    26   12  137 1    
    27   13   14 ar   
    28   13   15 1    
    29   14  138 1    
    30   15   16 1    
    31   15  139 1    
    32   15  140 1    
    33   16   17 1    
    34   17   18 1    
    35   17  141 1    
    36   17  142 1    
    37   18   19 1    
    38   18   67 1    
    39   18  143 1    
    40   19   20 am   BACKBONE|DICT|INTERRES
    41   19  144 1    
    42   20   21 2    
    43   20   22 1    
    44   22   23 1    
    45   22   24 1    
    46   22  145 1    
    47   23  146 1    
    48   23  147 1    
    49   23  148 1    
    50   24   25 am   BACKBONE|DICT|INTERRES
    51   24  149 1    
    52   25   26 2    
    53   25   27 1    
    54   27   28 1    
    55   27   29 1    
    56   27  150 1    
    57   28  151 1    
    58   28  152 1    
    59   28  153 1    
    60   29   30 am   BACKBONE|DICT|INTERRES
    61   29  154 1    
    62   30   31 2    
    63   30   32 1    
    64   32   33 1    
    65   32   34 1    
    66   32  155 1    
    67   33  156 1    
    68   33  157 1    
    69   33  158 1    
    70   34   35 am   BACKBONE|DICT|INTERRES
    71   34  159 1    
    72   35   36 2    
    73   35   37 1    
    74   37   38 1    
    75   37   39 1    
    76   37  160 1    
    77   38  161 1    
    78   38  162 1    
    79   38  163 1    
    80   39   40 am   BACKBONE|DICT|INTERRES
    81   39  164 1    
    82   40   41 2    
    83   40   42 1    
    84   42   43 1    
    85   42   44 1    
    86   42  165 1    
    87   43  166 1    
    88   43  167 1    
    89   43  168 1    
    90   44   45 am   BACKBONE|DICT|INTERRES
    91   44  169 1    
    92   45   46 2    
    93   45   47 1    
    94   47   48 1    
    95   47   49 1    
    96   47  170 1    
    97   48  171 1    
    98   48  172 1    
    99   48  173 1    
   100   49   50 am   BACKBONE|DICT|INTERRES
   101   49  174 1    
   102   50   51 2    
   103   50   52 1    
   104   52   53 1    
   105   52   54 1    
   106   52  175 1    
   107   53  176 1    
   108   53  177 1    
   109   53  178 1    
   110   54   55 am   BACKBONE|DICT|INTERRES
   111   54  179 1    
   112   55   56 2    
   113   55   57 1    
   114   57   58 1    
   115   57   59 1    
   116   57  180 1    
   117   58  181 1    
   118   58  182 1    
   119   58  183 1    
   120   59   60 am   BACKBONE|DICT|INTERRES
   121   59  184 1    
   122   60   61 2    
   123   60   62 1    
   124   62   63 1    
   125   62   64 1    
   126   62  185 1    
   127   63  186 1    
   128   63  187 1    
   129   63  188 1    
   130   64   65 am   BACKBONE|DICT|INTERRES
   131   64  189 1    
   132   65   66 2    
   133   67   68 2    
   134   67   69 am   BACKBONE|DICT|INTERRES
   135   69   70 1    
   136   69  190 1    
   137   70   71 1    
   138   70   72 1    
   139   70  191 1    
   140   71  192 1    
   141   71  193 1    
   142   71  194 1    
   143   72   73 2    
   144   72   74 am   BACKBONE|DICT|INTERRES
   145   74   75 1    
   146   74  195 1    
   147   75   76 1    
   148   75   77 1    
   149   75  196 1    
   150   76  197 1    
   151   76  198 1    
   152   76  199 1    
   153   77   78 2    
   154   77   79 am   BACKBONE|DICT|INTERRES
   155   79   80 1    
   156   79  200 1    
   157   80   81 1    
   158   80   82 1    
   159   80  201 1    
   160   81  202 1    
   161   81  203 1    
   162   81  204 1    
   163   82   83 2    
   164   82   84 am   BACKBONE|DICT|INTERRES
   165   84   85 1    
   166   84  205 1    
   167   85   86 1    
   168   85   87 1    
   169   85  206 1    
   170   86  207 1    
   171   86  208 1    
   172   86  209 1    
   173   87   88 2    
   174   87   89 am   BACKBONE|DICT|INTERRES
   175   89   90 1    
   176   89  210 1    
   177   90   91 1    
   178   90   92 1    
   179   90  211 1    
   180   91  212 1    
   181   91  213 1    
   182   91  214 1    
   183   92   93 2    
   184   92   94 am   BACKBONE|DICT|INTERRES
   185   94   95 1    
   186   94  215 1    
   187   95   96 1    
   188   95   97 1    
   189   95  216 1    
   190   96  217 1    
   191   96  218 1    
   192   96  219 1    
   193   97   98 2    
   194   97   99 am   BACKBONE|DICT|INTERRES
   195   99  100 1    
   196   99  220 1    
   197  100  101 1    
   198  100  102 1    
   199  100  221 1    
   200  101  222 1    
   201  101  223 1    
   202  101  224 1    
   203  102  103 2    
   204  102  104 am   BACKBONE|DICT|INTERRES
   205  104  105 1    
   206  104  225 1    
   207  105  106 1    
   208  105  107 1    
   209  105  226 1    
   210  106  227 1    
   211  106  228 1    
   212  106  229 1    
   213  107  108 2    
   214  107  109 am   BACKBONE|DICT|INTERRES
   215  109  110 1    
   216  109  230 1    
   217  110  111 1    
   218  110  112 1    
   219  110  231 1    
   220  111  232 1    
   221  111  233 1    
   222  111  234 1    
   223  112  113 2    
   224  112  114 am   BACKBONE|DICT|INTERRES
   225  114  115 1    
   226  114  235 1    
   227  115  116 1    
   228  115  117 1    
   229  115  236 1    
   230  116  237 1    
   231  116  238 1    
   232  116  239 1    
   233  117  118 2    
   234  117  119 am   BACKBONE|DICT|INTERRES
   235  119  120 1    
   236  119  240 1    
   237  120  121 1    
   238  120  124 1    
   239  120  241 1    
   240  121  122 am   BACKBONE|DICT|INTERRES
   241  121  123 2    
   242  122  242 1    
   243  122  243 1    
   244  124  125 1    
   245  124  244 1    
   246  124  245 1    
   247  125  126 1    
   248  126  246 1    
   249  126  247 1    
@<TRIPOS>SUBSTRUCTURE
     1 UNK         1 GROUP             0       ****    0 ROOT    
