@<TRIPOS>MOLECULE
3R540
247   249    1
SMALL
USER_CHARGES


@<TRIPOS>ATOM
      1 CA          4.0352  -19.5887  -47.1487 C.3       0 UNK        -0.1800 
      2 C           3.9694  -18.0723  -47.2609 C.2       0 UNK         0.5000 
      3 O           3.4070  -17.4171  -46.3848 O.2       0 UNK        -0.5000 
      4 N           4.5359  -17.5032  -48.3333 N.am      1 UNK        -0.5000 
      5 CA          4.5832  -16.0575  -48.5743 C.3       1 UNK         0.1400 
      6 C6          5.1614  -15.7152  -49.9706 C.3       23 UNK        -0.0398 
      7 S7          4.4679  -14.1605  -50.6335 S.3       23 UNK        -0.2404 
      8 C8          3.7085  -14.7032  -52.1998 C.3       23 UNK        -0.0205 
      9 C9          2.3899  -15.4355  -51.9897 C.ar      23 UNK        -0.0193 
     10 C10         1.1869  -14.7221  -51.9375 C.ar      23 UNK        -0.1150 
     11 C11        -0.0295  -15.3947  -51.7820 C.ar      23 UNK        -0.0193 
     12 C12        -0.0341  -16.7857  -51.6512 C.ar      23 UNK        -0.1150 
     13 C13         1.1568  -17.5101  -51.7147 C.ar      23 UNK        -0.0193 
     14 C14         2.3648  -16.8302  -51.8915 C.ar      23 UNK        -0.1150 
     15 C15         1.1367  -19.0277  -51.6211 C.3       23 UNK        -0.0205 
     16 S16         1.8846  -19.6122  -50.0731 S.3       23 UNK        -0.2404 
     17 C17         0.6454  -19.1036  -48.8342 C.3       23 UNK        -0.0398 
     18 CA          0.1036  -20.3223  -48.0495 C.3       11 UNK         0.1400 
     19 N          -0.1525  -20.0082  -46.6454 N.am      11 UNK        -0.5000 
     20 C          -0.4147  -20.9186  -45.6984 C.2       10 UNK         0.5000 
     21 O          -0.4180  -22.1336  -45.8958 O.2       10 UNK        -0.5000 
     22 CA         -0.7946  -20.3700  -44.3142 C.3       10 UNK         0.1400 
     23 CB          0.4589  -20.0459  -43.4862 C.3       10 UNK        -0.1800 
     24 N          -1.6467  -19.1846  -44.4313 N.am      10 UNK        -0.5000 
     25 C          -2.9243  -19.2232  -44.8374 C.2       9 UNK         0.5000 
     26 O          -3.5288  -20.2690  -45.0762 O.2       9 UNK        -0.5000 
     27 CA         -3.6317  -17.8722  -45.0522 C.3       9 UNK         0.1400 
     28 CB         -4.2241  -17.3587  -43.7315 C.3       9 UNK        -0.1800 
     29 N          -2.7427  -16.8584  -45.6246 N.am      9 UNK        -0.5000 
     30 C          -2.3190  -16.8685  -46.8980 C.2       8 UNK         0.5000 
     31 O          -2.6686  -17.7126  -47.7223 O.2       8 UNK        -0.5000 
     32 CA         -1.2959  -15.7972  -47.3279 C.3       8 UNK         0.1400 
     33 CB         -2.0111  -14.5650  -47.8977 C.3       8 UNK        -0.1800 
     34 N          -0.3904  -15.3621  -46.2656 N.am      8 UNK        -0.5000 
     35 C           0.3867  -16.1599  -45.5228 C.2       7 UNK         0.5000 
     36 O           0.4247  -17.3828  -45.6538 O.2       7 UNK        -0.5000 
     37 CA          1.2093  -15.4907  -44.4047 C.3       7 UNK         0.1400 
     38 CB          1.3753  -13.9656  -44.5736 C.3       7 UNK        -0.1800 
     39 N           0.6918  -15.7828  -43.0663 N.am      7 UNK        -0.5000 
     40 C          -0.5767  -15.6868  -42.6386 C.2       6 UNK         0.5000 
     41 O          -1.5319  -15.3728  -43.3501 O.2       6 UNK        -0.5000 
     42 CA         -0.8097  -15.9690  -41.1465 C.3       6 UNK         0.1400 
     43 CB         -0.6085  -17.4570  -40.8230 C.3       6 UNK        -0.1800 
     44 N           0.0663  -15.1566  -40.3035 N.am      6 UNK        -0.5000 
     45 C          -0.0842  -13.8382  -40.1063 C.2       5 UNK         0.5000 
     46 O          -1.0058  -13.1768  -40.5857 O.2       5 UNK        -0.5000 
     47 CA          0.9536  -13.1352  -39.2095 C.3       5 UNK         0.1400 
     48 CB          0.4037  -12.9649  -37.7848 C.3       5 UNK        -0.1800 
     49 N           2.2319  -13.8444  -39.1408 N.am      5 UNK        -0.5000 
     50 C           3.1407  -13.8710  -40.1238 C.2       4 UNK         0.5000 
     51 O           3.0121  -13.2539  -41.1833 O.2       4 UNK        -0.5000 
     52 CA          4.4140  -14.7107  -39.8794 C.3       4 UNK         0.1400 
     53 CB          4.2797  -15.7402  -38.7339 C.3       4 UNK        -0.1800 
     54 N           4.8867  -15.3700  -41.0988 N.am      4 UNK        -0.5000 
     55 C           4.2203  -16.2493  -41.8571 C.2       3 UNK         0.5000 
     56 O           3.0646  -16.6209  -41.6333 O.2       3 UNK        -0.5000 
     57 CA          4.9823  -16.7783  -43.0891 C.3       3 UNK         0.1400 
     58 CB          4.4910  -18.1752  -43.5039 C.3       3 UNK        -0.1800 
     59 N           4.8729  -15.8593  -44.2253 N.am      3 UNK        -0.5000 
     60 C           5.4740  -14.6613  -44.3061 C.2       2 UNK         0.5000 
     61 O           6.2716  -14.2549  -43.4583 O.2       2 UNK        -0.5000 
     62 CA          5.1155  -13.7553  -45.5084 C.3       2 UNK         0.1400 
     63 CB          6.2429  -12.7652  -45.8708 C.3       2 UNK        -0.1800 
     64 N           4.6516  -14.4819  -46.6964 N.am      2 UNK        -0.5000 
     65 C           5.3563  -15.3454  -47.4412 C.2       1 UNK         0.5000 
     66 O           6.5410  -15.6265  -47.2467 O.2       1 UNK        -0.5000 
     67 C          -1.1244  -20.9625  -48.7305 C.2       11 UNK         0.5000 
     68 O          -0.9623  -21.9414  -49.4554 O.2       11 UNK        -0.5000 
     69 N          -2.3315  -20.4504  -48.4401 N.am      12 UNK        -0.5000 
     70 CA         -3.6051  -21.0315  -48.8711 C.3       12 UNK         0.1400 
     71 CB         -4.7767  -20.1249  -48.4650 C.3       12 UNK        -0.1800 
     72 C          -3.8246  -22.4466  -48.3150 C.2       12 UNK         0.5000 
     73 O          -4.2110  -23.3359  -49.0717 O.2       12 UNK        -0.5000 
     74 N          -3.5529  -22.6394  -47.0161 N.am      13 UNK        -0.5000 
     75 CA         -3.6329  -23.9381  -46.3453 C.3       13 UNK         0.1400 
     76 CB         -3.3837  -23.7666  -44.8394 C.3       13 UNK        -0.1800 
     77 C          -2.6748  -24.9772  -46.9573 C.2       13 UNK         0.5000 
     78 O          -3.0950  -26.1051  -47.2206 O.2       13 UNK        -0.5000 
     79 N          -1.4282  -24.5573  -47.2198 N.am      14 UNK        -0.5000 
     80 CA         -0.4052  -25.3471  -47.9066 C.3       14 UNK         0.1400 
     81 CB          0.9385  -24.6044  -47.8519 C.3       14 UNK        -0.1800 
     82 C          -0.7863  -25.6871  -49.3603 C.2       14 UNK         0.5000 
     83 O          -0.5903  -26.8253  -49.7894 O.2       14 UNK        -0.5000 
     84 N          -1.3662  -24.7174  -50.0800 N.am      15 UNK        -0.5000 
     85 CA         -1.8844  -24.8448  -51.4436 C.3       15 UNK         0.1400 
     86 CB         -1.9469  -23.4499  -52.0876 C.3       15 UNK        -0.1800 
     87 C          -3.2429  -25.5770  -51.4953 C.2       15 UNK         0.5000 
     88 O          -4.2172  -25.0421  -52.0302 O.2       15 UNK        -0.5000 
     89 N          -3.2675  -26.7962  -50.9379 N.am      16 UNK        -0.5000 
     90 CA         -4.3562  -27.7777  -50.9513 C.3       16 UNK         0.1400 
     91 CB         -4.4399  -28.4408  -52.3410 C.3       16 UNK        -0.1800 
     92 C          -5.7110  -27.2266  -50.4565 C.2       16 UNK         0.5000 
     93 O          -6.7487  -27.5185  -51.0537 O.2       16 UNK        -0.5000 
     94 N          -5.6645  -26.4444  -49.3673 N.am      17 UNK        -0.5000 
     95 CA         -6.7945  -25.7714  -48.7189 C.3       17 UNK         0.1400 
     96 CB         -7.7554  -26.7968  -48.0806 C.3       17 UNK        -0.1800 
     97 C          -7.5006  -24.7735  -49.6609 C.2       17 UNK         0.5000 
     98 O          -8.6956  -24.9042  -49.9336 O.2       17 UNK        -0.5000 
     99 N          -6.7229  -23.7868  -50.1235 N.am      18 UNK        -0.5000 
    100 CA        -7.1040  -22.6617  -50.9770 C.3       18 UNK         0.1400 
    101 CB        -8.1336  -21.7559  -50.2672 C.3       18 UNK        -0.1800 
    102 C         -7.5563  -23.1023  -52.3816 C.2       18 UNK         0.5000 
    103 O         -8.5985  -22.6542  -52.8663 O.2       18 UNK        -0.5000 
    104 N         -6.7528  -23.9533  -53.0355 N.am      19 UNK        -0.5000 
    105 CA        -6.9590  -24.4001  -54.4159 C.3       19 UNK         0.1400 
    106 CB        -6.1843  -25.7079  -54.6462 C.3       19 UNK        -0.1800 
    107 C         -6.5754  -23.2931  -55.4214 C.2       19 UNK         0.5000 
    108 O         -5.5503  -23.3913  -56.0975 O.2       19 UNK        -0.5000 
    109 N         -7.3960  -22.2331  -55.4510 N.am      20 UNK        -0.5000 
    110 CA        -7.2838  -20.9996  -56.2434 C.3       20 UNK         0.1400 
    111 CB        -7.2473  -21.3036  -57.7562 C.3       20 UNK        -0.1800 
    112 C         -6.1387  -20.0565  -55.8091 C.2       20 UNK         0.5000 
    113 O         -5.9256  -19.0287  -56.4549 O.2       20 UNK        -0.5000 
    114 N         -5.4383  -20.3929  -54.7191 N.am      21 UNK        -0.5000 
    115 CA        -4.3981  -19.5720  -54.1046 C.3       21 UNK         0.1400 
    116 CB        -3.5003  -20.4777  -53.2481 C.3       21 UNK        -0.1800 
    117 C         -5.0089  -18.4574  -53.2377 C.2       21 UNK         0.5000 
    118 O         -6.0526  -18.6675  -52.6144 O.2       21 UNK        -0.5000 
    119 N         -4.3199  -17.3122  -53.1805 N.am      22 UNK        -0.5000 
    120 CA        -4.6447  -16.1748  -52.3013 C.3       22 UNK         0.1400 
    121 C         -4.3454  -16.4137  -50.7932 C.2       22 UNK         0.5000 
    122 N         -3.5130  -17.3819  -50.4303 N.am      22 UNK        -0.7600 
    123 O         -4.8778  -15.7044  -49.9448 O.2       22 UNK        -0.5000 
    124 C124       -4.0086  -14.8440  -52.7994 C.3       23 UNK        -0.0398 
    125 S125       -2.2620  -14.9809  -53.3278 S.3       23 UNK        -0.2404 
    126 C126       -1.3493  -14.6405  -51.7881 C.3       23 UNK        -0.0205 
    127 H127        4.3642  -20.0481  -48.0809 H         1 UNK         0.0600 
    128 H128        3.0515  -19.9883  -46.9024 H         1 UNK         0.0600 
    129 H129        4.7284  -19.8790  -46.3601 H         1 UNK         0.0600 
    130 H130        5.0058  -18.0841  -49.0118 H         1 UNK         0.3000 
    131 H131        3.5424  -15.7253  -48.5501 H         1 UNK         0.0600 
    132 H132        6.2504  -15.6413  -49.9528 H         1 UNK         0.0800 
    133 H133        4.9458  -16.5188  -50.6730 H         1 UNK         0.0800 
    134 H134        3.5384  -13.8246  -52.8239 H         1 UNK         0.0800 
    135 H135        4.4104  -15.3291  -52.7532 H         1 UNK         0.0800 
    136 H136        1.1977  -13.6458  -52.0374 H         1 UNK         0.1150 
    137 H137       -0.9728  -17.3054  -51.5328 H         1 UNK         0.1150 
    138 H138        3.2833  -17.3953  -51.9565 H         1 UNK         0.1150 
    139 H139        0.1211  -19.4184  -51.7048 H         1 UNK         0.0800 
    140 H140        1.6947  -19.4437  -52.4611 H         1 UNK         0.0800 
    141 H141       -0.1594  -18.5266  -49.2926 H         1 UNK         0.0800 
    142 H142        1.1491  -18.4097  -48.1604 H         1 UNK         0.0800 
    143 H143        0.8827  -21.0880  -48.0305 H         1 UNK         0.0600 
    144 H144       -0.1036  -19.0299  -46.3711 H         1 UNK         0.3000 
    145 H145       -1.3526  -21.1483  -43.7892 H         1 UNK         0.0600 
    146 H146        0.1953  -19.7699  -42.4665 H         1 UNK         0.0600 
    147 H147        1.1171  -20.9133  -43.4228 H         1 UNK         0.0600 
    148 H148        1.0386  -19.2296  -43.9170 H         1 UNK         0.0600 
    149 H149       -1.1873  -18.2876  -44.3535 H         1 UNK         0.3000 
    150 H150       -4.4564  -18.0340  -45.7496 H         1 UNK         0.0600 
    151 H151       -4.9540  -18.0648  -43.3336 H         1 UNK         0.0600 
    152 H152       -4.7356  -16.4062  -43.8714 H         1 UNK         0.0600 
    153 H153       -3.4573  -17.2194  -42.9692 H         1 UNK         0.0600 
    154 H154       -2.3765  -16.1580  -44.9863 H         1 UNK         0.3000 
    155 H155       -0.6845  -16.2338  -48.1202 H         1 UNK         0.0600 
    156 H156       -2.5762  -14.0370  -47.1287 H         1 UNK         0.0600 
    157 H157       -1.3016  -13.8642  -48.3382 H         1 UNK         0.0600 
    158 H158       -2.7143  -14.8471  -48.6797 H         1 UNK         0.0600 
    159 H159       -0.3977  -14.3761  -46.0504 H         1 UNK         0.3000 
    160 H160        2.1974  -15.9429  -44.4549 H         1 UNK         0.0600 
    161 H161        0.4342  -13.4323  -44.4341 H         1 UNK         0.0600 
    162 H162        1.7625  -13.7132  -45.5612 H         1 UNK         0.0600 
    163 H163        2.0815  -13.5736  -43.8415 H         1 UNK         0.0600 
    164 H164        1.3994  -16.0809  -42.3992 H         1 UNK         0.3000 
    165 H165       -1.8464  -15.7140  -40.9156 H         1 UNK         0.0600 
    166 H166       -0.8510  -17.6686  -39.7815 H         1 UNK         0.0600 
    167 H167       -1.2587  -18.0794  -41.4392 H         1 UNK         0.0600 
    168 H168        0.4202  -17.7753  -40.9973 H         1 UNK         0.0600 
    169 H169        0.8667  -15.6169  -39.8958 H         1 UNK         0.3000 
    170 H170        1.1298  -12.1415  -39.6271 H         1 UNK         0.0600 
    171 H171        0.2152  -13.9274  -37.3077 H         1 UNK         0.0600 
    172 H172        1.0996  -12.4083  -37.1568 H         1 UNK         0.0600 
    173 H173       -0.5371  -12.4130  -37.7925 H         1 UNK         0.0600 
    174 H174        2.4148  -14.3671  -38.2965 H         1 UNK         0.3000 
    175 H175        5.1925  -14.0011  -39.5975 H         1 UNK         0.0600 
    176 H176        5.1925  -16.3265  -38.6293 H         1 UNK         0.0600 
    177 H177        3.4591  -16.4377  -38.9052 H         1 UNK         0.0600 
    178 H178        4.1094  -15.2509  -37.7744 H         1 UNK         0.0600 
    179 H179        5.7756  -15.0403  -41.4553 H         1 UNK         0.3000 
    180 H180        6.0365  -16.8718  -42.8197 H         1 UNK         0.0600 
    181 H181        5.0920  -18.5742  -44.3201 H         1 UNK         0.0600 
    182 H182        3.4488  -18.1622  -43.8253 H         1 UNK         0.0600 
    183 H183        4.5664  -18.8777  -42.6732 H         1 UNK         0.0600 
    184 H184        4.2726  -16.1627  -44.9847 H         1 UNK         0.3000 
    185 H185        4.2655  -13.1585  -45.1762 H         1 UNK         0.0600 
    186 H186        6.4652  -12.1019  -45.0342 H         1 UNK         0.0600 
    187 H187        7.1679  -13.2798  -46.1315 H         1 UNK         0.0600 
    188 H188        5.9595  -12.1355  -46.7141 H         1 UNK         0.0600 
    189 H189        3.6821  -14.3362  -46.9385 H         1 UNK         0.3000 
    190 H190       -2.3885  -19.6016  -47.8859 H         1 UNK         0.3000 
    191 H191       -3.5890  -21.0987  -49.9604 H         1 UNK         0.0600 
    192 H192       -4.7109  -19.1449  -48.9299 H         1 UNK         0.0600 
    193 H193       -5.7270  -20.5574  -48.7756 H         1 UNK         0.0600 
    194 H194       -4.8231  -19.9779  -47.3865 H         1 UNK         0.0600 
    195 H195       -3.2808  -21.8454  -46.4471 H         1 UNK         0.3000 
    196 H196       -4.6505  -24.3105  -46.4731 H         1 UNK         0.0600 
    197 H197       -3.4891  -24.7181  -44.3171 H         1 UNK         0.0600 
    198 H198       -4.0990  -23.0720  -44.3985 H         1 UNK         0.0600 
    199 H199       -2.3826  -23.3896  -44.6328 H         1 UNK         0.0600 
    200 H200       -1.1611  -23.6202  -46.9313 H         1 UNK         0.3000 
    201 H201       -0.2947  -26.2884  -47.3644 H         1 UNK         0.0600 
    202 H202        1.2446  -24.4189  -46.8222 H         1 UNK         0.0600 
    203 H203        0.8892  -23.6428  -48.3631 H         1 UNK         0.0600 
    204 H204        1.7275  -25.1888  -48.3267 H         1 UNK         0.0600 
    205 H205       -1.4561  -23.7953  -49.6625 H         1 UNK         0.3000 
    206 H206       -1.1797  -25.4418  -52.0258 H         1 UNK         0.0600 
    207 H207       -0.9680  -22.9702  -52.0906 H         1 UNK         0.0600 
    208 H208       -2.2824  -23.5109  -53.1234 H         1 UNK         0.0600 
    209 H209       -2.6375  -22.7983  -51.5522 H         1 UNK         0.0600 
    210 H210       -2.4071  -27.1019  -50.4931 H         1 UNK         0.3000 
    211 H211       -4.0750  -28.5530  -50.2372 H         1 UNK         0.0600 
    212 H212       -4.6863  -27.7176  -53.1172 H         1 UNK         0.0600 
    213 H213       -5.1995  -29.2231  -52.3631 H         1 UNK         0.0600 
    214 H214       -3.4917  -28.9060  -52.6107 H         1 UNK         0.0600 
    215 H215       -4.7537  -26.2461  -48.9721 H         1 UNK         0.3000 
    216 H216       -6.3719  -25.1783  -47.9074 H         1 UNK         0.0600 
    217 H217       -8.5392  -26.2928  -47.5138 H         1 UNK         0.0600 
    218 H218       -7.2272  -27.4542  -47.3901 H         1 UNK         0.0600 
    219 H219       -8.2454  -27.4205  -48.8287 H         1 UNK         0.0600 
    220 H220       -5.7431  -23.7897  -49.8394 H         1 UNK         0.3000 
    221 H221       -6.1962  -22.0734  -51.1193 H         1 UNK         0.0600 
    222 H222       -9.1095  -22.2358  -50.1862 H         1 UNK         0.0600 
    223 H223       -7.8103  -21.4952  -49.2603 H         1 UNK         0.0600 
    224 H224       -8.2730  -20.8241  -50.8169 H         1 UNK         0.0600 
    225 H225       -5.9051  -24.2873  -52.5808 H         1 UNK         0.3000 
    226 H226       -8.0187  -24.6224  -54.5591 H         1 UNK         0.0600 
    227 H227       -6.5202  -26.4831  -53.9573 H         1 UNK         0.0600 
    228 H228       -6.3409  -26.0820  -55.6586 H         1 UNK         0.0600 
    229 H229       -5.1110  -25.5739  -54.5077 H         1 UNK         0.0600 
    230 H230       -8.1588  -22.2427  -54.7793 H         1 UNK         0.3000 
    231 H231       -8.2045  -20.4474  -56.0484 H         1 UNK         0.0600 
    232 H232       -6.3133  -21.7812  -58.0538 H         1 UNK         0.0600 
    233 H233       -7.3418  -20.3878  -58.3409 H         1 UNK         0.0600 
    234 H234       -8.0690  -21.9581  -58.0478 H         1 UNK         0.0600 
    235 H235       -5.6966  -21.2376  -54.2335 H         1 UNK         0.3000 
    236 H236       -3.7888  -19.1211  -54.8913 H         1 UNK         0.0600 
    237 H237       -3.0377  -21.2546  -53.8569 H         1 UNK         0.0600 
    238 H238       -2.6942  -19.9101  -52.7814 H         1 UNK         0.0600 
    239 H239       -4.0645  -20.9656  -52.4521 H         1 UNK         0.0600 
    240 H240       -3.4712  -17.2095  -53.7191 H         1 UNK         0.3000 
    241 H241       -5.7269  -16.0377  -52.3523 H         1 UNK         0.0600 
    242 H242       -3.1054  -17.9886  -51.1186 H         1 UNK         0.3800 
    243 H243       -3.3159  -17.5219  -49.4430 H         1 UNK         0.3800 
    244 H244       -4.5692  -14.4982  -53.6688 H         1 UNK         0.0800 
    245 H245       -4.1098  -14.0458  -52.0613 H         1 UNK         0.0800 
    246 H246       -1.1907  -13.5655  -51.6906 H         1 UNK         0.0800 
    247 H247       -1.9313  -14.9472  -50.9209 H         1 UNK         0.0800 
@<TRIPOS>BOND
     1    1    2 1    
     2    1  127 1    
     3    1  128 1    
     4    1  129 1    
     5    2    3 2    
     6    2    4 am   BACKBONE|DICT|INTERRES
     7    4    5 1    
     8    4  130 1    
     9    5    6 1    
    10    5   65 1    
    11    5  131 1    
    12    6    7 1    
    13    6  132 1    
    14    6  133 1    
    15    7    8 1    
    16    8    9 1    
    17    8  134 1    
    18    8  135 1    
    19    9   10 ar   
    20    9   14 ar   
    21   10   11 ar   
    22   10  136 1    
    23   11   12 ar   
    24   11  126 1    
    25   12   13 ar   
    26   12  137 1    
    27   13   14 ar   
    28   13   15 1    
    29   14  138 1    
    30   15   16 1    
    31   15  139 1    
    32   15  140 1    
    33   16   17 1    
    34   17   18 1    
    35   17  141 1    
    36   17  142 1    
    37   18   19 1    
    38   18   67 1    
    39   18  143 1    
    40   19   20 am   BACKBONE|DICT|INTERRES
    41   19  144 1    
    42   20   21 2    
    43   20   22 1    
    44   22   23 1    
    45   22   24 1    
    46   22  145 1    
    47   23  146 1    
    48   23  147 1    
    49   23  148 1    
    50   24   25 am   BACKBONE|DICT|INTERRES
    51   24  149 1    
    52   25   26 2    
    53   25   27 1    
    54   27   28 1    
    55   27   29 1    
    56   27  150 1    
    57   28  151 1    
    58   28  152 1    
    59   28  153 1    
    60   29   30 am   BACKBONE|DICT|INTERRES
    61   29  154 1    
    62   30   31 2    
    63   30   32 1    
    64   32   33 1    
    65   32   34 1    
    66   32  155 1    
    67   33  156 1    
    68   33  157 1    
    69   33  158 1    
    70   34   35 am   BACKBONE|DICT|INTERRES
    71   34  159 1    
    72   35   36 2    
    73   35   37 1    
    74   37   38 1    
    75   37   39 1    
    76   37  160 1    
    77   38  161 1    
    78   38  162 1    
    79   38  163 1    
    80   39   40 am   BACKBONE|DICT|INTERRES
    81   39  164 1    
    82   40   41 2    
    83   40   42 1    
    84   42   43 1    
    85   42   44 1    
    86   42  165 1    
    87   43  166 1    
    88   43  167 1    
    89   43  168 1    
    90   44   45 am   BACKBONE|DICT|INTERRES
    91   44  169 1    
    92   45   46 2    
    93   45   47 1    
    94   47   48 1    
    95   47   49 1    
    96   47  170 1    
    97   48  171 1    
    98   48  172 1    
    99   48  173 1    
   100   49   50 am   BACKBONE|DICT|INTERRES
   101   49  174 1    
   102   50   51 2    
   103   50   52 1    
   104   52   53 1    
   105   52   54 1    
   106   52  175 1    
   107   53  176 1    
   108   53  177 1    
   109   53  178 1    
   110   54   55 am   BACKBONE|DICT|INTERRES
   111   54  179 1    
   112   55   56 2    
   113   55   57 1    
   114   57   58 1    
   115   57   59 1    
   116   57  180 1    
   117   58  181 1    
   118   58  182 1    
   119   58  183 1    
   120   59   60 am   BACKBONE|DICT|INTERRES
   121   59  184 1    
   122   60   61 2    
   123   60   62 1    
   124   62   63 1    
   125   62   64 1    
   126   62  185 1    
   127   63  186 1    
   128   63  187 1    
   129   63  188 1    
   130   64   65 am   BACKBONE|DICT|INTERRES
   131   64  189 1    
   132   65   66 2    
   133   67   68 2    
   134   67   69 am   BACKBONE|DICT|INTERRES
   135   69   70 1    
   136   69  190 1    
   137   70   71 1    
   138   70   72 1    
   139   70  191 1    
   140   71  192 1    
   141   71  193 1    
   142   71  194 1    
   143   72   73 2    
   144   72   74 am   BACKBONE|DICT|INTERRES
   145   74   75 1    
   146   74  195 1    
   147   75   76 1    
   148   75   77 1    
   149   75  196 1    
   150   76  197 1    
   151   76  198 1    
   152   76  199 1    
   153   77   78 2    
   154   77   79 am   BACKBONE|DICT|INTERRES
   155   79   80 1    
   156   79  200 1    
   157   80   81 1    
   158   80   82 1    
   159   80  201 1    
   160   81  202 1    
   161   81  203 1    
   162   81  204 1    
   163   82   83 2    
   164   82   84 am   BACKBONE|DICT|INTERRES
   165   84   85 1    
   166   84  205 1    
   167   85   86 1    
   168   85   87 1    
   169   85  206 1    
   170   86  207 1    
   171   86  208 1    
   172   86  209 1    
   173   87   88 2    
   174   87   89 am   BACKBONE|DICT|INTERRES
   175   89   90 1    
   176   89  210 1    
   177   90   91 1    
   178   90   92 1    
   179   90  211 1    
   180   91  212 1    
   181   91  213 1    
   182   91  214 1    
   183   92   93 2    
   184   92   94 am   BACKBONE|DICT|INTERRES
   185   94   95 1    
   186   94  215 1    
   187   95   96 1    
   188   95   97 1    
   189   95  216 1    
   190   96  217 1    
   191   96  218 1    
   192   96  219 1    
   193   97   98 2    
   194   97   99 am   BACKBONE|DICT|INTERRES
   195   99  100 1    
   196   99  220 1    
   197  100  101 1    
   198  100  102 1    
   199  100  221 1    
   200  101  222 1    
   201  101  223 1    
   202  101  224 1    
   203  102  103 2    
   204  102  104 am   BACKBONE|DICT|INTERRES
   205  104  105 1    
   206  104  225 1    
   207  105  106 1    
   208  105  107 1    
   209  105  226 1    
   210  106  227 1    
   211  106  228 1    
   212  106  229 1    
   213  107  108 2    
   214  107  109 am   BACKBONE|DICT|INTERRES
   215  109  110 1    
   216  109  230 1    
   217  110  111 1    
   218  110  112 1    
   219  110  231 1    
   220  111  232 1    
   221  111  233 1    
   222  111  234 1    
   223  112  113 2    
   224  112  114 am   BACKBONE|DICT|INTERRES
   225  114  115 1    
   226  114  235 1    
   227  115  116 1    
   228  115  117 1    
   229  115  236 1    
   230  116  237 1    
   231  116  238 1    
   232  116  239 1    
   233  117  118 2    
   234  117  119 am   BACKBONE|DICT|INTERRES
   235  119  120 1    
   236  119  240 1    
   237  120  121 1    
   238  120  124 1    
   239  120  241 1    
   240  121  122 am   BACKBONE|DICT|INTERRES
   241  121  123 2    
   242  122  242 1    
   243  122  243 1    
   244  124  125 1    
   245  124  244 1    
   246  124  245 1    
   247  125  126 1    
   248  126  246 1    
   249  126  247 1    
@<TRIPOS>SUBSTRUCTURE
     1 UNK         1 GROUP             0       ****    0 ROOT    
