@<TRIPOS>MOLECULE
3R540
247   249    1
SMALL
USER_CHARGES


@<TRIPOS>ATOM
      1 CA          5.6032  -21.1707  -48.2858 C.3       0 UNK        -0.1800 
      2 C           4.2038  -20.7152  -47.9014 C.2       0 UNK         0.5000 
      3 O           3.6605  -21.1746  -46.8972 O.2       0 UNK        -0.5000 
      4 N           3.6057  -19.8201  -48.6990 N.am      1 UNK        -0.5000 
      5 CA          2.2968  -19.2182  -48.4196 C.3       1 UNK         0.1400 
      6 C6          1.4739  -18.9406  -49.7009 C.3       23 UNK        -0.0398 
      7 S7          2.1639  -17.7000  -50.8506 S.3       23 UNK        -0.2404 
      8 C8          1.2793  -16.1697  -50.3877 C.3       23 UNK        -0.0205 
      9 C9         -0.2298  -16.2410  -50.5977 C.ar      23 UNK        -0.0193 
     10 C10        -0.7787  -16.0523  -51.8713 C.ar      23 UNK        -0.1150 
     11 C11        -2.1666  -16.0414  -52.0528 C.ar      23 UNK        -0.0193 
     12 C12        -3.0040  -16.2459  -50.9538 C.ar      23 UNK        -0.1150 
     13 C13        -2.4696  -16.4462  -49.6792 C.ar      23 UNK        -0.0193 
     14 C14        -1.0832  -16.4334  -49.5055 C.ar      23 UNK        -0.1150 
     15 C15        -3.3948  -16.6448  -48.4904 C.3       23 UNK        -0.0205 
     16 S16        -3.7761  -18.4063  -48.2419 S.3       23 UNK        -0.2404 
     17 C17        -3.0485  -18.7387  -46.6038 C.3       23 UNK        -0.0398 
     18 CA         -1.5912  -19.2655  -46.7042 C.3       11 UNK         0.1400 
     19 N          -0.7123  -18.6477  -45.7065 N.am      11 UNK        -0.5000 
     20 C          -0.7675  -18.7816  -44.3730 C.2       10 UNK         0.5000 
     21 O          -1.5663  -19.5061  -43.7817 O.2       10 UNK        -0.5000 
     22 CA          0.2653  -17.9651  -43.5886 C.3       10 UNK         0.1400 
     23 CB          1.6524  -18.6102  -43.7376 C.3       10 UNK        -0.1800 
     24 N           0.2035  -16.5872  -44.0655 N.am      10 UNK        -0.5000 
     25 C           0.9747  -15.5345  -43.7800 C.2       9 UNK         0.5000 
     26 O           2.0700  -15.5903  -43.2220 O.2       9 UNK        -0.5000 
     27 CA          0.4096  -14.1572  -44.1796 C.3       9 UNK         0.1400 
     28 CB          0.6720  -13.8563  -45.6690 C.3       9 UNK        -0.1800 
     29 N          -1.0064  -13.9870  -43.8098 N.am      9 UNK        -0.5000 
     30 C          -2.0844  -14.5960  -44.3269 C.2       8 UNK         0.5000 
     31 O          -2.0410  -15.3433  -45.3049 O.2       8 UNK        -0.5000 
     32 CA         -3.4094  -14.3978  -43.5610 C.3       8 UNK         0.1400 
     33 CB         -4.5489  -15.2812  -44.1127 C.3       8 UNK        -0.1800 
     34 N          -3.2743  -14.5973  -42.1090 N.am      8 UNK        -0.5000 
     35 C          -2.7956  -15.6820  -41.4774 C.2       7 UNK         0.5000 
     36 O          -2.3443  -16.6766  -42.0449 O.2       7 UNK        -0.5000 
     37 CA         -2.8910  -15.6762  -39.9429 C.3       7 UNK         0.1400 
     38 CB         -4.0793  -16.5327  -39.4782 C.3       7 UNK        -0.1800 
     39 N          -1.6694  -16.1831  -39.3168 N.am      7 UNK        -0.5000 
     40 C          -0.5625  -15.4534  -39.1308 C.2       6 UNK         0.5000 
     41 O          -0.4323  -14.2974  -39.5365 O.2       6 UNK        -0.5000 
     42 CA          0.5711  -16.1032  -38.3148 C.3       6 UNK         0.1400 
     43 CB          0.2969  -15.9572  -36.8094 C.3       6 UNK        -0.1800 
     44 N           0.7859  -17.5189  -38.6277 N.am      6 UNK        -0.5000 
     45 C           1.4776  -17.9384  -39.6931 C.2       5 UNK         0.5000 
     46 O           1.9451  -17.1753  -40.5410 O.2       5 UNK        -0.5000 
     47 CA          1.7191  -19.4520  -39.8246 C.3       5 UNK         0.1400 
     48 CB          0.4380  -20.2059  -40.2264 C.3       5 UNK        -0.1800 
     49 N           2.7537  -19.6426  -40.8340 N.am      5 UNK        -0.5000 
     50 C           3.5536  -20.6999  -41.0024 C.2       4 UNK         0.5000 
     51 O           3.4858  -21.7199  -40.3157 O.2       4 UNK        -0.5000 
     52 CA          4.6139  -20.6061  -42.1251 C.3       4 UNK         0.1400 
     53 CB          4.2413  -21.5126  -43.3099 C.3       4 UNK        -0.1800 
     54 N           4.8330  -19.2435  -42.6263 N.am      4 UNK        -0.5000 
     55 C           5.4711  -18.2724  -41.9600 C.2       3 UNK         0.5000 
     56 O           5.9787  -18.4458  -40.8513 O.2       3 UNK        -0.5000 
     57 CA          5.5311  -16.8649  -42.5927 C.3       3 UNK         0.1400 
     58 CB          6.9855  -16.4245  -42.8550 C.3       3 UNK        -0.1800 
     59 N           4.6884  -16.6511  -43.7793 N.am      3 UNK        -0.5000 
     60 C           4.8506  -17.1208  -45.0232 C.2       2 UNK         0.5000 
     61 O           5.7187  -17.9307  -45.3542 O.2       2 UNK        -0.5000 
     62 CA          3.8751  -16.5816  -46.0799 C.3       2 UNK         0.1400 
     63 CB          4.4547  -15.3487  -46.7893 C.3       2 UNK        -0.1800 
     64 N           3.6076  -17.6226  -47.0631 N.am      2 UNK        -0.5000 
     65 C           2.3928  -17.9947  -47.4827 C.2       1 UNK         0.5000 
     66 O           1.3552  -17.4337  -47.1316 O.2       1 UNK        -0.5000 
     67 C          -1.4920  -20.8123  -46.7537 C.2       11 UNK         0.5000 
     68 O          -2.3770  -21.4672  -47.3093 O.2       11 UNK        -0.5000 
     69 N          -0.4130  -21.3651  -46.1764 N.am      12 UNK        -0.5000 
     70 CA         -0.1923  -22.7947  -45.9674 C.3       12 UNK         0.1400 
     71 CB          0.9772  -22.9948  -44.9891 C.3       12 UNK        -0.1800 
     72 C           0.0283  -23.5552  -47.2832 C.2       12 UNK         0.5000 
     73 O          -0.7901  -24.4046  -47.6347 O.2       12 UNK        -0.5000 
     74 N           1.0980  -23.2071  -48.0152 N.am      13 UNK        -0.5000 
     75 CA          1.4375  -23.8232  -49.3062 C.3       13 UNK         0.1400 
     76 CB          2.8535  -23.4042  -49.7228 C.3       13 UNK        -0.1800 
     77 C           0.4331  -23.4897  -50.4264 C.2       13 UNK         0.5000 
     78 O           0.3192  -24.2480  -51.3892 O.2       13 UNK        -0.5000 
     79 N          -0.2892  -22.3730  -50.2654 N.am      14 UNK        -0.5000 
     80 CA         -1.3841  -21.9545  -51.1379 C.3       14 UNK         0.1400 
     81 CB         -1.5973  -20.4418  -50.9725 C.3       14 UNK        -0.1800 
     82 C          -2.6941  -22.7236  -50.8785 C.2       14 UNK         0.5000 
     83 O          -3.6014  -22.6383  -51.7078 O.2       14 UNK        -0.5000 
     84 N          -2.7716  -23.4408  -49.7455 N.am      15 UNK        -0.5000 
     85 CA         -3.8986  -24.2334  -49.2480 C.3       15 UNK         0.1400 
     86 CB         -4.1070  -25.4865  -50.1192 C.3       15 UNK        -0.1800 
     87 C          -5.1766  -23.3891  -49.1047 C.2       15 UNK         0.5000 
     88 O          -6.2015  -23.7094  -49.7082 O.2       15 UNK        -0.5000 
     89 N          -5.0676  -22.2818  -48.3557 N.am      16 UNK        -0.5000 
     90 CA         -6.1131  -21.2657  -48.1683 C.3       16 UNK         0.1400 
     91 CB         -7.3130  -21.8398  -47.3854 C.3       16 UNK        -0.1800 
     92 C          -6.5211  -20.5921  -49.4994 C.2       16 UNK         0.5000 
     93 O          -7.6946  -20.2813  -49.7082 O.2       16 UNK        -0.5000 
     94 N          -5.5225  -20.4081  -50.3763 N.am      17 UNK        -0.5000 
     95 CA         -5.5693  -19.8152  -51.7165 C.3       17 UNK         0.1400 
     96 CB         -6.1843  -18.4038  -51.6760 C.3       17 UNK        -0.1800 
     97 C          -6.2206  -20.7097  -52.7911 C.2       17 UNK         0.5000 
     98 O          -6.3245  -20.2760  -53.9408 O.2       17 UNK        -0.5000 
     99 N          -6.6284  -21.9345  -52.4280 N.am      18 UNK        -0.5000 
    100 CA        -7.3162  -22.8725  -53.3126 C.3       18 UNK         0.1400 
    101 CB        -8.1387  -23.8611  -52.4731 C.3       18 UNK        -0.1800 
    102 C         -6.3589  -23.6290  -54.2479 C.2       18 UNK         0.5000 
    103 O         -6.6965  -23.8215  -55.4161 O.2       18 UNK        -0.5000 
    104 N         -5.1864  -24.0375  -53.7398 N.am      19 UNK        -0.5000 
    105 CA        -4.1752  -24.7603  -54.5205 C.3       19 UNK         0.1400 
    106 CB        -3.2705  -25.5901  -53.5976 C.3       19 UNK        -0.1800 
    107 C         -3.3376  -23.8072  -55.3849 C.2       19 UNK         0.5000 
    108 O         -2.9523  -24.1723  -56.4960 O.2       19 UNK        -0.5000 
    109 N         -3.1034  -22.5905  -54.8746 N.am      20 UNK        -0.5000 
    110 CA        -2.4818  -21.4955  -55.6217 C.3       20 UNK         0.1400 
    111 CB        -1.9793  -20.4357  -54.6334 C.3       20 UNK        -0.1800 
    112 C         -3.4295  -20.8682  -56.6650 C.2       20 UNK         0.5000 
    113 O         -2.9486  -20.2309  -57.6025 O.2       20 UNK        -0.5000 
    114 N         -4.7451  -21.0693  -56.4836 N.am      21 UNK        -0.5000 
    115 CA        -5.8534  -20.5726  -57.3044 C.3       21 UNK         0.1400 
    116 CB        -5.8517  -21.2514  -58.6896 C.3       21 UNK        -0.1800 
    117 C         -5.8730  -19.0326  -57.3752 C.2       21 UNK         0.5000 
    118 O         -5.9681  -18.4575  -58.4617 O.2       21 UNK        -0.5000 
    119 N         -5.7511  -18.4014  -56.2029 N.am      22 UNK        -0.5000 
    120 CA        -5.6079  -16.9474  -56.0311 C.3       22 UNK         0.1400 
    121 C         -6.6361  -16.3224  -55.0454 C.2       22 UNK         0.5000 
    122 N         -7.6340  -17.0615  -54.5748 N.am      22 UNK        -0.7600 
    123 O         -6.5508  -15.1396  -54.7266 O.2       22 UNK        -0.5000 
    124 C124       -4.1348  -16.5528  -55.7400 C.3       23 UNK        -0.0398 
    125 S125       -3.4517  -17.2513  -54.1940 S.3       23 UNK        -0.2404 
    126 C126       -2.7730  -15.7542  -53.4183 C.3       23 UNK        -0.0205 
    127 H127        6.3170  -20.8654  -47.5207 H         1 UNK         0.0600 
    128 H128        5.6362  -22.2567  -48.3696 H         1 UNK         0.0600 
    129 H129        5.9200  -20.7460  -49.2385 H         1 UNK         0.0600 
    130 H130        4.0823  -19.4734  -49.5206 H         1 UNK         0.3000 
    131 H131        1.7090  -19.9471  -47.8581 H         1 UNK         0.0600 
    132 H132        1.3889  -19.8717  -50.2615 H         1 UNK         0.0800 
    133 H133        0.4515  -18.6725  -49.4410 H         1 UNK         0.0800 
    134 H134        1.6800  -15.3499  -50.9855 H         1 UNK         0.0800 
    135 H135        1.5068  -15.9130  -49.3527 H         1 UNK         0.0800 
    136 H136       -0.1239  -15.8868  -52.7153 H         1 UNK         0.1150 
    137 H137       -4.0755  -16.2345  -51.0922 H         1 UNK         0.1150 
    138 H138       -0.6709  -16.5612  -48.5147 H         1 UNK         0.1150 
    139 H139       -2.9453  -16.2090  -47.5987 H         1 UNK         0.0800 
    140 H140       -4.3284  -16.1036  -48.6499 H         1 UNK         0.0800 
    141 H141       -3.0923  -17.8186  -46.0198 H         1 UNK         0.0800 
    142 H142       -3.6895  -19.4384  -46.0647 H         1 UNK         0.0800 
    143 H143       -1.1751  -18.9304  -47.6543 H         1 UNK         0.0600 
    144 H144        0.0043  -18.0337  -46.0927 H         1 UNK         0.3000 
    145 H145       -0.0191  -17.9618  -42.5361 H         1 UNK         0.0600 
    146 H146        2.3851  -18.1089  -43.1124 H         1 UNK         0.0600 
    147 H147        1.6180  -19.6533  -43.4240 H         1 UNK         0.0600 
    148 H148        2.0128  -18.5911  -44.7621 H         1 UNK         0.0600 
    149 H149       -0.6586  -16.3675  -44.5609 H         1 UNK         0.3000 
    150 H150        0.9546  -13.4130  -43.5967 H         1 UNK         0.0600 
    151 H151        1.7429  -13.8326  -45.8734 H         1 UNK         0.0600 
    152 H152        0.2640  -12.8870  -45.9549 H         1 UNK         0.0600 
    153 H153        0.2394  -14.6116  -46.3263 H         1 UNK         0.0600 
    154 H154       -1.1559  -13.4366  -42.9754 H         1 UNK         0.3000 
    155 H155       -3.6965  -13.3561  -43.7106 H         1 UNK         0.0600 
    156 H156       -5.4844  -15.0926  -43.5863 H         1 UNK         0.0600 
    157 H157       -4.3192  -16.3432  -44.0174 H         1 UNK         0.0600 
    158 H158       -4.7255  -15.0790  -45.1699 H         1 UNK         0.0600 
    159 H159       -3.6147  -13.8336  -41.5412 H         1 UNK         0.3000 
    160 H160       -3.0604  -14.6525  -39.6014 H         1 UNK         0.0600 
    161 H161       -3.9639  -17.5763  -39.7743 H         1 UNK         0.0600 
    162 H162       -5.0136  -16.1711  -39.9096 H         1 UNK         0.0600 
    163 H163       -4.1889  -16.5011  -38.3940 H         1 UNK         0.0600 
    164 H164       -1.6830  -17.1412  -39.0017 H         1 UNK         0.3000 
    165 H165        1.4889  -15.5530  -38.5354 H         1 UNK         0.0600 
    166 H166       -0.5975  -16.5026  -36.5059 H         1 UNK         0.0600 
    167 H167        1.1340  -16.3294  -36.2185 H         1 UNK         0.0600 
    168 H168        0.1504  -14.9106  -36.5389 H         1 UNK         0.0600 
    169 H169        0.4336  -18.1935  -37.9638 H         1 UNK         0.3000 
    170 H170        2.0826  -19.8255  -38.8652 H         1 UNK         0.0600 
    171 H171       -0.3557  -20.0540  -39.4945 H         1 UNK         0.0600 
    172 H172        0.0596  -19.8774  -41.1938 H         1 UNK         0.0600 
    173 H173        0.6161  -21.2795  -40.2890 H         1 UNK         0.0600 
    174 H174        2.9165  -18.8121  -41.3901 H         1 UNK         0.3000 
    175 H175        5.5546  -20.9705  -41.7070 H         1 UNK         0.0600 
    176 H176        3.3276  -21.1837  -43.8032 H         1 UNK         0.0600 
    177 H177        5.0333  -21.5274  -44.0591 H         1 UNK         0.0600 
    178 H178        4.0852  -22.5419  -42.9844 H         1 UNK         0.0600 
    179 H179        4.4935  -19.0371  -43.5541 H         1 UNK         0.3000 
    180 H180        5.1234  -16.1924  -41.8363 H         1 UNK         0.0600 
    181 H181        7.5687  -16.4360  -41.9334 H         1 UNK         0.0600 
    182 H182        7.4892  -17.0822  -43.5636 H         1 UNK         0.0600 
    183 H183        7.0258  -15.4094  -43.2499 H         1 UNK         0.0600 
    184 H184        3.8664  -16.0765  -43.5993 H         1 UNK         0.3000 
    185 H185        2.9514  -16.2921  -45.5838 H         1 UNK         0.0600 
    186 H186        5.3894  -15.5812  -47.3011 H         1 UNK         0.0600 
    187 H187        3.7556  -14.9576  -47.5288 H         1 UNK         0.0600 
    188 H188        4.6577  -14.5479  -46.0772 H         1 UNK         0.0600 
    189 H189        4.4103  -18.1747  -47.3329 H         1 UNK         0.3000 
    190 H190        0.2521  -20.7446  -45.7418 H         1 UNK         0.3000 
    191 H191       -1.0904  -23.2038  -45.4994 H         1 UNK         0.0600 
    192 H192        1.1611  -24.0552  -44.8119 H         1 UNK         0.0600 
    193 H193        0.7635  -22.5380  -44.0224 H         1 UNK         0.0600 
    194 H194        1.9039  -22.5602  -45.3638 H         1 UNK         0.0600 
    195 H195        1.7457  -22.5229  -47.6477 H         1 UNK         0.3000 
    196 H196        1.4311  -24.9071  -49.1720 H         1 UNK         0.0600 
    197 H197        3.1680  -23.9395  -50.6197 H         1 UNK         0.0600 
    198 H198        3.5794  -23.6289  -48.9415 H         1 UNK         0.0600 
    199 H199        2.9062  -22.3392  -49.9475 H         1 UNK         0.0600 
    200 H200       -0.1389  -21.8307  -49.4296 H         1 UNK         0.3000 
    201 H201       -1.1002  -22.1535  -52.1722 H         1 UNK         0.0600 
    202 H202       -0.7225  -19.8823  -51.2999 H         1 UNK         0.0600 
    203 H203       -1.8129  -20.1692  -49.9394 H         1 UNK         0.0600 
    204 H204       -2.4256  -20.0901  -51.5821 H         1 UNK         0.0600 
    205 H205       -1.9684  -23.4372  -49.1286 H         1 UNK         0.3000 
    206 H206       -3.6245  -24.5657  -48.2457 H         1 UNK         0.0600 
    207 H207       -3.1743  -26.0320  -50.2629 H         1 UNK         0.0600 
    208 H208       -4.8177  -26.1688  -49.6519 H         1 UNK         0.0600 
    209 H209       -4.5052  -25.2285  -51.0990 H         1 UNK         0.0600 
    210 H210       -4.1645  -22.0725  -47.9362 H         1 UNK         0.3000 
    211 H211       -5.6733  -20.4850  -47.5486 H         1 UNK         0.0600 
    212 H212       -7.8631  -22.5808  -47.9659 H         1 UNK         0.0600 
    213 H213       -8.0158  -21.0503  -47.1174 H         1 UNK         0.0600 
    214 H214       -6.9887  -22.3124  -46.4584 H         1 UNK         0.0600 
    215 H215       -4.6118  -20.7402  -50.0947 H         1 UNK         0.3000 
    216 H216       -4.5334  -19.6964  -52.0262 H         1 UNK         0.0600 
    217 H217       -7.2716  -18.4344  -51.6020 H         1 UNK         0.0600 
    218 H218       -5.9321  -17.8505  -52.5784 H         1 UNK         0.0600 
    219 H219       -5.8059  -17.8294  -50.8310 H         1 UNK         0.0600 
    220 H220       -6.4729  -22.2374  -51.4746 H         1 UNK         0.3000 
    221 H221       -8.0136  -22.3079  -53.9355 H         1 UNK         0.0600 
    222 H222       -7.5009  -24.5065  -51.8686 H         1 UNK         0.0600 
    223 H223       -8.8206  -23.3390  -51.8017 H         1 UNK         0.0600 
    224 H224       -8.7412  -24.5066  -53.1133 H         1 UNK         0.0600 
    225 H225       -4.9322  -23.7654  -52.7961 H         1 UNK         0.3000 
    226 H226       -4.6808  -25.4560  -55.1939 H         1 UNK         0.0600 
    227 H227       -3.8452  -26.3404  -53.0553 H         1 UNK         0.0600 
    228 H228       -2.5139  -26.1239  -54.1740 H         1 UNK         0.0600 
    229 H229       -2.7452  -24.9692  -52.8724 H         1 UNK         0.0600 
    230 H230       -3.4321  -22.3906  -53.9383 H         1 UNK         0.3000 
    231 H231       -1.6181  -21.8860  -56.1641 H         1 UNK         0.0600 
    232 H232       -2.7729  -20.1117  -53.9606 H         1 UNK         0.0600 
    233 H233       -1.1556  -20.8167  -54.0324 H         1 UNK         0.0600 
    234 H234       -1.6073  -19.5535  -55.1560 H         1 UNK         0.0600 
    235 H235       -5.0248  -21.5804  -55.6592 H         1 UNK         0.3000 
    236 H236       -6.7708  -20.8692  -56.7936 H         1 UNK         0.0600 
    237 H237       -5.8611  -22.3372  -58.5937 H         1 UNK         0.0600 
    238 H238       -6.7350  -20.9687  -59.2634 H         1 UNK         0.0600 
    239 H239       -4.9766  -20.9742  -59.2779 H         1 UNK         0.0600 
    240 H240       -5.7096  -18.9566  -55.3538 H         1 UNK         0.3000 
    241 H241       -5.8640  -16.4665  -56.9765 H         1 UNK         0.0600 
    242 H242       -7.7200  -18.0326  -54.8304 H         1 UNK         0.3800 
    243 H243       -8.3057  -16.6450  -53.9501 H         1 UNK         0.3800 
    244 H244       -4.0346  -15.4664  -55.7332 H         1 UNK         0.0800 
    245 H245       -3.5031  -16.8950  -56.5608 H         1 UNK         0.0800 
    246 H246       -3.5674  -15.0138  -53.3101 H         1 UNK         0.0800 
    247 H247       -2.0267  -15.3137  -54.0813 H         1 UNK         0.0800 
@<TRIPOS>BOND
     1    1    2 1    
     2    1  127 1    
     3    1  128 1    
     4    1  129 1    
     5    2    3 2    
     6    2    4 am   BACKBONE|DICT|INTERRES
     7    4    5 1    
     8    4  130 1    
     9    5    6 1    
    10    5   65 1    
    11    5  131 1    
    12    6    7 1    
    13    6  132 1    
    14    6  133 1    
    15    7    8 1    
    16    8    9 1    
    17    8  134 1    
    18    8  135 1    
    19    9   10 ar   
    20    9   14 ar   
    21   10   11 ar   
    22   10  136 1    
    23   11   12 ar   
    24   11  126 1    
    25   12   13 ar   
    26   12  137 1    
    27   13   14 ar   
    28   13   15 1    
    29   14  138 1    
    30   15   16 1    
    31   15  139 1    
    32   15  140 1    
    33   16   17 1    
    34   17   18 1    
    35   17  141 1    
    36   17  142 1    
    37   18   19 1    
    38   18   67 1    
    39   18  143 1    
    40   19   20 am   BACKBONE|DICT|INTERRES
    41   19  144 1    
    42   20   21 2    
    43   20   22 1    
    44   22   23 1    
    45   22   24 1    
    46   22  145 1    
    47   23  146 1    
    48   23  147 1    
    49   23  148 1    
    50   24   25 am   BACKBONE|DICT|INTERRES
    51   24  149 1    
    52   25   26 2    
    53   25   27 1    
    54   27   28 1    
    55   27   29 1    
    56   27  150 1    
    57   28  151 1    
    58   28  152 1    
    59   28  153 1    
    60   29   30 am   BACKBONE|DICT|INTERRES
    61   29  154 1    
    62   30   31 2    
    63   30   32 1    
    64   32   33 1    
    65   32   34 1    
    66   32  155 1    
    67   33  156 1    
    68   33  157 1    
    69   33  158 1    
    70   34   35 am   BACKBONE|DICT|INTERRES
    71   34  159 1    
    72   35   36 2    
    73   35   37 1    
    74   37   38 1    
    75   37   39 1    
    76   37  160 1    
    77   38  161 1    
    78   38  162 1    
    79   38  163 1    
    80   39   40 am   BACKBONE|DICT|INTERRES
    81   39  164 1    
    82   40   41 2    
    83   40   42 1    
    84   42   43 1    
    85   42   44 1    
    86   42  165 1    
    87   43  166 1    
    88   43  167 1    
    89   43  168 1    
    90   44   45 am   BACKBONE|DICT|INTERRES
    91   44  169 1    
    92   45   46 2    
    93   45   47 1    
    94   47   48 1    
    95   47   49 1    
    96   47  170 1    
    97   48  171 1    
    98   48  172 1    
    99   48  173 1    
   100   49   50 am   BACKBONE|DICT|INTERRES
   101   49  174 1    
   102   50   51 2    
   103   50   52 1    
   104   52   53 1    
   105   52   54 1    
   106   52  175 1    
   107   53  176 1    
   108   53  177 1    
   109   53  178 1    
   110   54   55 am   BACKBONE|DICT|INTERRES
   111   54  179 1    
   112   55   56 2    
   113   55   57 1    
   114   57   58 1    
   115   57   59 1    
   116   57  180 1    
   117   58  181 1    
   118   58  182 1    
   119   58  183 1    
   120   59   60 am   BACKBONE|DICT|INTERRES
   121   59  184 1    
   122   60   61 2    
   123   60   62 1    
   124   62   63 1    
   125   62   64 1    
   126   62  185 1    
   127   63  186 1    
   128   63  187 1    
   129   63  188 1    
   130   64   65 am   BACKBONE|DICT|INTERRES
   131   64  189 1    
   132   65   66 2    
   133   67   68 2    
   134   67   69 am   BACKBONE|DICT|INTERRES
   135   69   70 1    
   136   69  190 1    
   137   70   71 1    
   138   70   72 1    
   139   70  191 1    
   140   71  192 1    
   141   71  193 1    
   142   71  194 1    
   143   72   73 2    
   144   72   74 am   BACKBONE|DICT|INTERRES
   145   74   75 1    
   146   74  195 1    
   147   75   76 1    
   148   75   77 1    
   149   75  196 1    
   150   76  197 1    
   151   76  198 1    
   152   76  199 1    
   153   77   78 2    
   154   77   79 am   BACKBONE|DICT|INTERRES
   155   79   80 1    
   156   79  200 1    
   157   80   81 1    
   158   80   82 1    
   159   80  201 1    
   160   81  202 1    
   161   81  203 1    
   162   81  204 1    
   163   82   83 2    
   164   82   84 am   BACKBONE|DICT|INTERRES
   165   84   85 1    
   166   84  205 1    
   167   85   86 1    
   168   85   87 1    
   169   85  206 1    
   170   86  207 1    
   171   86  208 1    
   172   86  209 1    
   173   87   88 2    
   174   87   89 am   BACKBONE|DICT|INTERRES
   175   89   90 1    
   176   89  210 1    
   177   90   91 1    
   178   90   92 1    
   179   90  211 1    
   180   91  212 1    
   181   91  213 1    
   182   91  214 1    
   183   92   93 2    
   184   92   94 am   BACKBONE|DICT|INTERRES
   185   94   95 1    
   186   94  215 1    
   187   95   96 1    
   188   95   97 1    
   189   95  216 1    
   190   96  217 1    
   191   96  218 1    
   192   96  219 1    
   193   97   98 2    
   194   97   99 am   BACKBONE|DICT|INTERRES
   195   99  100 1    
   196   99  220 1    
   197  100  101 1    
   198  100  102 1    
   199  100  221 1    
   200  101  222 1    
   201  101  223 1    
   202  101  224 1    
   203  102  103 2    
   204  102  104 am   BACKBONE|DICT|INTERRES
   205  104  105 1    
   206  104  225 1    
   207  105  106 1    
   208  105  107 1    
   209  105  226 1    
   210  106  227 1    
   211  106  228 1    
   212  106  229 1    
   213  107  108 2    
   214  107  109 am   BACKBONE|DICT|INTERRES
   215  109  110 1    
   216  109  230 1    
   217  110  111 1    
   218  110  112 1    
   219  110  231 1    
   220  111  232 1    
   221  111  233 1    
   222  111  234 1    
   223  112  113 2    
   224  112  114 am   BACKBONE|DICT|INTERRES
   225  114  115 1    
   226  114  235 1    
   227  115  116 1    
   228  115  117 1    
   229  115  236 1    
   230  116  237 1    
   231  116  238 1    
   232  116  239 1    
   233  117  118 2    
   234  117  119 am   BACKBONE|DICT|INTERRES
   235  119  120 1    
   236  119  240 1    
   237  120  121 1    
   238  120  124 1    
   239  120  241 1    
   240  121  122 am   BACKBONE|DICT|INTERRES
   241  121  123 2    
   242  122  242 1    
   243  122  243 1    
   244  124  125 1    
   245  124  244 1    
   246  124  245 1    
   247  125  126 1    
   248  126  246 1    
   249  126  247 1    
@<TRIPOS>SUBSTRUCTURE
     1 UNK         1 GROUP             0       ****    0 ROOT    
