@<TRIPOS>MOLECULE
3R540
247   249    1
SMALL
USER_CHARGES


@<TRIPOS>ATOM
      1 CA         -2.4111  -12.7002  -50.5309 C.3       0 UNK        -0.1800 
      2 C          -1.2481  -12.4517  -49.5807 C.2       0 UNK         0.5000 
      3 O          -1.0705  -11.3294  -49.1056 O.2       0 UNK        -0.5000 
      4 N          -0.4582  -13.4947  -49.2942 N.am      1 UNK        -0.5000 
      5 CA          0.6920  -13.4525  -48.3845 C.3       1 UNK         0.1400 
      6 C6          1.7080  -14.5933  -48.6501 C.3       23 UNK        -0.0398 
      7 S7          0.9971  -16.2716  -48.5565 S.3       23 UNK        -0.2404 
      8 C8          1.1467  -16.8378  -50.2764 C.3       23 UNK        -0.0205 
      9 C9          0.3656  -18.1248  -50.4770 C.ar      23 UNK        -0.0193 
     10 C10        -0.9973  -18.0658  -50.7751 C.ar      23 UNK        -0.1150 
     11 C11        -1.7394  -19.2380  -50.9296 C.ar      23 UNK        -0.0193 
     12 C12        -1.1065  -20.4743  -50.7911 C.ar      23 UNK        -0.1150 
     13 C13         0.2594  -20.5530  -50.5061 C.ar      23 UNK        -0.0193 
     14 C14         0.9926  -19.3692  -50.3551 C.ar      23 UNK        -0.1150 
     15 C15         0.9208  -21.9249  -50.3974 C.3       23 UNK        -0.0205 
     16 S16         2.1052  -22.0918  -49.0185 S.3       23 UNK        -0.2404 
     17 C17         1.0790  -21.7044  -47.5615 C.3       23 UNK        -0.0398 
     18 CA          0.5772  -22.9645  -46.8123 C.3       11 UNK         0.1400 
     19 N           0.4111  -22.7028  -45.3788 N.am      11 UNK        -0.5000 
     20 C           0.0894  -23.6136  -44.4498 C.2       10 UNK         0.5000 
     21 O          -0.0667  -24.8077  -44.6884 O.2       10 UNK        -0.5000 
     22 CA         -0.1640  -23.0954  -43.0240 C.3       10 UNK         0.1400 
     23 CB          1.1527  -22.8950  -42.2583 C.3       10 UNK        -0.1800 
     24 N          -0.9365  -21.8541  -43.0295 N.am      10 UNK        -0.5000 
     25 C          -2.2168  -21.7682  -43.4179 C.2       9 UNK         0.5000 
     26 O          -2.8971  -22.7379  -43.7520 O.2       9 UNK        -0.5000 
     27 CA         -2.8208  -20.3561  -43.4906 C.3       9 UNK         0.1400 
     28 CB         -3.3409  -19.9139  -42.1152 C.3       9 UNK        -0.1800 
     29 N          -1.8611  -19.3717  -43.9899 N.am      9 UNK        -0.5000 
     30 C          -1.4100  -19.3333  -45.2532 C.2       8 UNK         0.5000 
     31 O          -1.7617  -20.1220  -46.1300 O.2       8 UNK        -0.5000 
     32 CA         -0.3555  -18.2583  -45.5754 C.3       8 UNK         0.1400 
     33 CB         -1.0515  -16.9110  -45.7943 C.3       8 UNK        -0.1800 
     34 N           0.6430  -18.0910  -44.5189 N.am      8 UNK        -0.5000 
     35 C           1.4030  -19.0635  -43.9974 C.2       7 UNK         0.5000 
     36 O           1.4323  -20.2102  -44.4405 O.2       7 UNK        -0.5000 
     37 CA          2.2275  -18.7257  -42.7379 C.3       7 UNK         0.1400 
     38 CB          3.7096  -18.5528  -43.1015 C.3       7 UNK        -0.1800 
     39 N           1.7784  -17.5331  -42.0130 N.am      7 UNK        -0.5000 
     40 C           0.5534  -17.3057  -41.5146 C.2       6 UNK         0.5000 
     41 O          -0.3686  -18.1205  -41.5784 O.2       6 UNK        -0.5000 
     42 CA          0.3013  -15.9237  -40.8737 C.3       6 UNK         0.1400 
     43 CB          0.1292  -16.0616  -39.3533 C.3       6 UNK        -0.1800 
     44 N           1.3477  -14.9286  -41.1440 N.am      6 UNK        -0.5000 
     45 C           1.6263  -14.4006  -42.3437 C.2       5 UNK         0.5000 
     46 O           1.0475  -14.7203  -43.3822 O.2       5 UNK        -0.5000 
     47 CA          2.8017  -13.4176  -42.3919 C.3       5 UNK         0.1400 
     48 CB          4.1242  -14.1803  -42.5991 C.3       5 UNK        -0.1800 
     49 N           2.6130  -12.4450  -43.4661 N.am      5 UNK        -0.5000 
     50 C           3.2175  -11.2497  -43.5134 C.2       4 UNK         0.5000 
     51 O           3.9834  -10.8392  -42.6400 O.2       4 UNK        -0.5000 
     52 CA          2.9206  -10.3515  -44.7244 C.3       4 UNK         0.1400 
     53 CB          3.7306  -10.8015  -45.9514 C.3       4 UNK        -0.1800 
     54 N           1.4965  -10.3464  -45.0500 N.am      4 UNK        -0.5000 
     55 C           0.6124   -9.4542  -44.5814 C.2       3 UNK         0.5000 
     56 O           0.9153   -8.5226  -43.8346 O.2       3 UNK        -0.5000 
     57 CA         -0.8577   -9.6090  -45.0234 C.3       3 UNK         0.1400 
     58 CB         -1.1676   -8.6642  -46.1946 C.3       3 UNK        -0.1800 
     59 N          -1.2014  -10.9732  -45.4193 N.am      3 UNK        -0.5000 
     60 C          -1.3282  -12.0051  -44.5739 C.2       2 UNK         0.5000 
     61 O          -1.2558  -11.8981  -43.3494 O.2       2 UNK        -0.5000 
     62 CA         -1.5532  -13.3926  -45.2069 C.3       2 UNK         0.1400 
     63 CB         -3.0536  -13.7166  -45.2347 C.3       2 UNK        -0.1800 
     64 N          -0.9912  -13.5414  -46.5571 N.am      2 UNK        -0.5000 
     65 C           0.2956  -13.3441  -46.8936 C.2       1 UNK         0.5000 
     66 O           1.1616  -13.0270  -46.0777 O.2       1 UNK        -0.5000 
     67 C          -0.7147  -23.5219  -47.4482 C.2       11 UNK         0.5000 
     68 O          -0.6657  -24.5240  -48.1675 O.2       11 UNK        -0.5000 
     69 N          -1.8505  -22.8823  -47.1312 N.am      12 UNK        -0.5000 
     70 CA         -3.1910  -23.2908  -47.5466 C.3       12 UNK         0.1400 
     71 CB         -4.2093  -22.2248  -47.1172 C.3       12 UNK        -0.1800 
     72 C          -3.5895  -24.6757  -47.0061 C.2       12 UNK         0.5000 
     73 O          -4.1344  -25.4852  -47.7561 O.2       12 UNK        -0.5000 
     74 N          -3.2930  -24.9300  -45.7242 N.am      13 UNK        -0.5000 
     75 CA         -3.5396  -26.2094  -45.0599 C.3       13 UNK         0.1400 
     76 CB         -3.3617  -26.0407  -43.5433 C.3       13 UNK        -0.1800 
     77 C          -2.6430  -27.3442  -45.5889 C.2       13 UNK         0.5000 
     78 O          -3.1193  -28.4704  -45.7369 O.2       13 UNK        -0.5000 
     79 N          -1.3671  -27.0323  -45.8552 N.am      14 UNK        -0.5000 
     80 CA         -0.3581  -27.9772  -46.3293 C.3       14 UNK         0.1400 
     81 CB          1.0372  -27.3387  -46.2445 C.3       14 UNK        -0.1800 
     82 C          -0.6234  -28.4909  -47.7524 C.2       14 UNK         0.5000 
     83 O          -0.4705  -29.6907  -47.9893 O.2       14 UNK        -0.5000 
     84 N          -1.0055  -27.5919  -48.6704 N.am      15 UNK        -0.5000 
     85 CA         -1.2385  -27.9400  -50.0734 C.3       15 UNK         0.1400 
     86 CB          0.1027  -28.1604  -50.8031 C.3       15 UNK        -0.1800 
     87 C          -2.0724  -26.9059  -50.8389 C.2       15 UNK         0.5000 
     88 O          -2.8180  -27.3012  -51.7357 O.2       15 UNK        -0.5000 
     89 N          -1.8830  -25.6099  -50.5481 N.am      16 UNK        -0.5000 
     90 CA         -2.3938  -24.4318  -51.2708 C.3       16 UNK         0.1400 
     91 CB         -3.9338  -24.3979  -51.3168 C.3       16 UNK        -0.1800 
     92 C          -1.7992  -24.2354  -52.6835 C.2       16 UNK         0.5000 
     93 O          -1.5159  -23.0991  -53.0615 O.2       16 UNK        -0.5000 
     94 N          -1.5969  -25.3358  -53.4201 N.am      17 UNK        -0.5000 
     95 CA         -1.0909  -25.4219  -54.7903 C.3       17 UNK         0.1400 
     96 CB          0.3741  -24.9332  -54.8675 C.3       17 UNK        -0.1800 
     97 C          -2.0499  -24.7410  -55.7902 C.2       17 UNK         0.5000 
     98 O          -3.2656  -24.9086  -55.6715 O.2       17 UNK        -0.5000 
     99 N          -1.5002  -24.0120  -56.7691 N.am      18 UNK        -0.5000 
    100 CA        -2.2571  -23.2844  -57.7906 C.3       18 UNK         0.1400 
    101 CB        -1.3368  -23.0342  -58.9962 C.3       18 UNK        -0.1800 
    102 C         -2.8523  -21.9552  -57.2820 C.2       18 UNK         0.5000 
    103 O         -3.7185  -21.3899  -57.9518 O.2       18 UNK        -0.5000 
    104 N         -2.3681  -21.4636  -56.1341 N.am      19 UNK        -0.5000 
    105 CA        -2.8214  -20.2281  -55.5018 C.3       19 UNK         0.1400 
    106 CB        -1.7365  -19.7509  -54.5236 C.3       19 UNK        -0.1800 
    107 C         -4.1731  -20.4068  -54.7846 C.2       19 UNK         0.5000 
    108 O         -4.5349  -21.5177  -54.3904 O.2       19 UNK        -0.5000 
    109 N         -4.8761  -19.2880  -54.5971 N.am      20 UNK        -0.5000 
    110 CA        -6.1386  -19.1693  -53.8760 C.3       20 UNK         0.1400 
    111 CB        -7.3092  -19.5371  -54.8054 C.3       20 UNK        -0.1800 
    112 C         -6.2573  -17.7253  -53.3653 C.2       20 UNK         0.5000 
    113 O         -5.5125  -16.8584  -53.8330 O.2       20 UNK        -0.5000 
    114 N         -7.1828  -17.4981  -52.4200 N.am      21 UNK        -0.5000 
    115 CA        -7.4276  -16.2272  -51.7196 C.3       21 UNK         0.1400 
    116 CB        -8.0115  -15.1708  -52.6813 C.3       21 UNK        -0.1800 
    117 C         -6.1642  -15.7449  -50.9759 C.2       21 UNK         0.5000 
    118 O         -5.6640  -14.6469  -51.2256 O.2       21 UNK        -0.5000 
    119 N         -5.6427  -16.6332  -50.1211 N.am      22 UNK        -0.5000 
    120 CA        -4.3136  -16.5476  -49.4951 C.3       22 UNK         0.1400 
    121 C         -4.0911  -15.3633  -48.5134 C.2       22 UNK         0.5000 
    122 N         -5.1327  -14.7135  -48.0104 N.am      22 UNK        -0.7600 
    123 O         -2.9502  -15.0255  -48.2147 O.2       22 UNK        -0.5000 
    124 C124       -3.9026  -17.8876  -48.8245 C.3       23 UNK        -0.0398 
    125 S125       -4.2751  -19.3856  -49.8071 S.3       23 UNK        -0.2404 
    126 C126       -3.2185  -19.1757  -51.2707 C.3       23 UNK        -0.0205 
    127 H127       -3.3570  -12.5145  -50.0217 H         1 UNK         0.0600 
    128 H128       -2.4223  -13.7270  -50.8977 H         1 UNK         0.0600 
    129 H129       -2.3463  -12.0322  -51.3896 H         1 UNK         0.0600 
    130 H130       -0.6934  -14.4097  -49.6512 H         1 UNK         0.3000 
    131 H131        1.2251  -12.5234  -48.5988 H         1 UNK         0.0600 
    132 H132        2.5403  -14.5356  -47.9462 H         1 UNK         0.0800 
    133 H133        2.1566  -14.4504  -49.6338 H         1 UNK         0.0800 
    134 H134        2.1993  -16.9865  -50.5217 H         1 UNK         0.0800 
    135 H135        0.7728  -16.0688  -50.9542 H         1 UNK         0.0800 
    136 H136       -1.4784  -17.1044  -50.8785 H         1 UNK         0.1150 
    137 H137       -1.6850  -21.3755  -50.9224 H         1 UNK         0.1150 
    138 H138        2.0494  -19.4148  -50.1339 H         1 UNK         0.1150 
    139 H139        0.1678  -22.7067  -50.2960 H         1 UNK         0.0800 
    140 H140        1.4437  -22.1280  -51.3327 H         1 UNK         0.0800 
    141 H141        0.2608  -21.0319  -47.8244 H         1 UNK         0.0800 
    142 H142        1.7249  -21.1196  -46.9059 H         1 UNK         0.0800 
    143 H143        1.3398  -23.7424  -46.8897 H         1 UNK         0.0600 
    144 H144        0.5765  -21.7473  -45.0724 H         1 UNK         0.3000 
    145 H145       -0.7474  -23.8513  -42.4940 H         1 UNK         0.0600 
    146 H146        0.9687  -22.5540  -41.2394 H         1 UNK         0.0600 
    147 H147        1.8033  -22.1680  -42.7433 H         1 UNK         0.0600 
    148 H148        1.7065  -23.8322  -42.1919 H         1 UNK         0.0600 
    149 H149       -0.4411  -21.0034  -42.8074 H         1 UNK         0.3000 
    150 H150       -3.6663  -20.3887  -44.1810 H         1 UNK         0.0600 
    151 H151       -4.0861  -20.6149  -41.7369 H         1 UNK         0.0600 
    152 H152       -3.8143  -18.9334  -42.1692 H         1 UNK         0.0600 
    153 H153       -2.5386  -19.8583  -41.3785 H         1 UNK         0.0600 
    154 H154       -1.4750  -18.7277  -43.3087 H         1 UNK         0.3000 
    155 H155        0.1648  -18.5459  -46.4911 H         1 UNK         0.0600 
    156 H156       -1.7101  -16.9440  -46.6617 H         1 UNK         0.0600 
    157 H157       -0.3203  -16.1243  -45.9669 H         1 UNK         0.0600 
    158 H158       -1.6512  -16.6183  -44.9318 H         1 UNK         0.0600 
    159 H159        0.7023  -17.1719  -44.1017 H         1 UNK         0.3000 
    160 H160        2.1358  -19.5748  -42.0580 H         1 UNK         0.0600 
    161 H161        3.8644  -17.6938  -43.7558 H         1 UNK         0.0600 
    162 H162        4.0912  -19.4337  -43.6197 H         1 UNK         0.0600 
    163 H163        4.3218  -18.4121  -42.2105 H         1 UNK         0.0600 
    164 H164        2.4583  -16.7949  -41.9133 H         1 UNK         0.3000 
    165 H165       -0.6345  -15.5456  -41.2908 H         1 UNK         0.0600 
    166 H166       -0.1360  -15.1074  -38.8976 H         1 UNK         0.0600 
    167 H167       -0.6673  -16.7666  -39.1110 H         1 UNK         0.0600 
    168 H168        1.0418  -16.4210  -38.8763 H         1 UNK         0.0600 
    169 H169        1.8887  -14.6301  -40.3448 H         1 UNK         0.3000 
    170 H170        2.8360  -12.8877  -41.4375 H         1 UNK         0.0600 
    171 H171        4.1362  -14.7054  -43.5552 H         1 UNK         0.0600 
    172 H172        4.9809  -13.5067  -42.5779 H         1 UNK         0.0600 
    173 H173        4.2801  -14.9214  -41.8142 H         1 UNK         0.0600 
    174 H174        1.9889  -12.7356  -44.2148 H         1 UNK         0.3000 
    175 H175        3.2424   -9.3378  -44.4760 H         1 UNK         0.0600 
    176 H176        3.4985  -11.8258  -46.2435 H         1 UNK         0.0600 
    177 H177        3.5372  -10.1568  -46.8089 H         1 UNK         0.0600 
    178 H178        4.8008  -10.7570  -45.7461 H         1 UNK         0.0600 
    179 H179        1.1636  -11.1340  -45.5955 H         1 UNK         0.3000 
    180 H180       -1.4886   -9.3255  -44.1784 H         1 UNK         0.0600 
    181 H181       -2.2218   -8.7084  -46.4688 H         1 UNK         0.0600 
    182 H182       -0.5804   -8.9149  -47.0792 H         1 UNK         0.0600 
    183 H183       -0.9436   -7.6291  -45.9331 H         1 UNK         0.0600 
    184 H184       -1.2783  -11.1538  -46.4112 H         1 UNK         0.3000 
    185 H185       -1.0689  -14.1263  -44.5652 H         1 UNK         0.0600 
    186 H186       -3.5905  -13.0591  -45.9188 H         1 UNK         0.0600 
    187 H187       -3.2298  -14.7465  -45.5433 H         1 UNK         0.0600 
    188 H188       -3.4995  -13.5991  -44.2462 H         1 UNK         0.0600 
    189 H189       -1.6332  -13.8610  -47.2774 H         1 UNK         0.3000 
    190 H190       -1.7941  -22.0334  -46.5754 H         1 UNK         0.3000 
    191 H191       -3.1961  -23.3379  -48.6347 H         1 UNK         0.0600 
    192 H192       -4.2707  -22.1364  -46.0326 H         1 UNK         0.0600 
    193 H193       -5.2068  -22.4673  -47.4854 H         1 UNK         0.0600 
    194 H194       -3.9444  -21.2455  -47.5139 H         1 UNK         0.0600 
    195 H195       -2.8935  -24.1905  -45.1550 H         1 UNK         0.3000 
    196 H196       -4.5776  -26.4919  -45.2480 H         1 UNK         0.0600 
    197 H197       -4.0509  -25.2951  -43.1465 H         1 UNK         0.0600 
    198 H198       -2.3486  -25.7275  -43.2893 H         1 UNK         0.0600 
    199 H199       -3.5580  -26.9770  -43.0196 H         1 UNK         0.0600 
    200 H200       -1.0351  -26.0974  -45.6312 H         1 UNK         0.3000 
    201 H201       -0.3714  -28.8402  -45.6602 H         1 UNK         0.0600 
    202 H202        1.2967  -27.0961  -45.2141 H         1 UNK         0.0600 
    203 H203        1.0962  -26.4209  -46.8309 H         1 UNK         0.0600 
    204 H204        1.8038  -28.0185  -46.6185 H         1 UNK         0.0600 
    205 H205       -1.1324  -26.6253  -48.3935 H         1 UNK         0.3000 
    206 H206       -1.8060  -28.8730  -50.1048 H         1 UNK         0.0600 
    207 H207        0.7403  -27.2776  -50.7409 H         1 UNK         0.0600 
    208 H208        0.6555  -29.0017  -50.3857 H         1 UNK         0.0600 
    209 H209       -0.0553  -28.3770  -51.8606 H         1 UNK         0.0600 
    210 H210       -1.2429  -25.3767  -49.7947 H         1 UNK         0.3000 
    211 H211       -2.0689  -23.5791  -50.6771 H         1 UNK         0.0600 
    212 H212       -4.3395  -25.1648  -51.9767 H         1 UNK         0.0600 
    213 H213       -4.2850  -23.4349  -51.6902 H         1 UNK         0.0600 
    214 H214       -4.3697  -24.5444  -50.3296 H         1 UNK         0.0600 
    215 H215       -1.9466  -26.2043  -53.0264 H         1 UNK         0.3000 
    216 H216       -1.0958  -26.4824  -55.0452 H         1 UNK         0.0600 
    217 H217        0.8169  -25.1589  -55.8381 H         1 UNK         0.0600 
    218 H218        0.9890  -25.4305  -54.1171 H         1 UNK         0.0600 
    219 H219        0.4599  -23.8586  -54.7025 H         1 UNK         0.0600 
    220 H220       -0.4946  -23.9259  -56.8043 H         1 UNK         0.3000 
    221 H221       -3.0892  -23.9085  -58.1235 H         1 UNK         0.0600 
    222 H222       -0.4808  -22.4138  -58.7273 H         1 UNK         0.0600 
    223 H223       -0.9584  -23.9711  -59.4054 H         1 UNK         0.0600 
    224 H224       -1.8721  -22.5245  -59.7984 H         1 UNK         0.0600 
    225 H225       -1.7183  -22.0263  -55.6043 H         1 UNK         0.3000 
    226 H226       -2.9415  -19.4672  -56.2763 H         1 UNK         0.0600 
    227 H227       -0.7874  -19.5889  -55.0345 H         1 UNK         0.0600 
    228 H228       -2.0149  -18.8066  -54.0545 H         1 UNK         0.0600 
    229 H229       -1.5665  -20.4765  -53.7281 H         1 UNK         0.0600 
    230 H230       -4.4992  -18.3937  -54.8890 H         1 UNK         0.3000 
    231 H231       -6.1262  -19.8374  -53.0120 H         1 UNK         0.0600 
    232 H232       -8.2652  -19.4554  -54.2873 H         1 UNK         0.0600 
    233 H233       -7.2228  -20.5633  -55.1630 H         1 UNK         0.0600 
    234 H234       -7.3494  -18.8820  -55.6766 H         1 UNK         0.0600 
    235 H235       -7.7454  -18.2774  -52.1077 H         1 UNK         0.3000 
    236 H236       -8.1814  -16.4272  -50.9565 H         1 UNK         0.0600 
    237 H237       -7.3031  -14.8903  -53.4613 H         1 UNK         0.0600 
    238 H238       -8.9155  -15.5380  -53.1670 H         1 UNK         0.0600 
    239 H239       -8.2787  -14.2611  -52.1424 H         1 UNK         0.0600 
    240 H240       -6.1192  -17.5139  -49.9929 H         1 UNK         0.3000 
    241 H241       -3.6164  -16.3651  -50.3132 H         1 UNK         0.0600 
    242 H242       -4.9812  -13.9407  -47.3848 H         1 UNK         0.3800 
    243 H243       -6.0703  -14.9747  -48.2684 H         1 UNK         0.3800 
    244 H244       -4.4188  -18.0011  -47.8695 H         1 UNK         0.0800 
    245 H245       -2.8380  -17.8860  -48.5856 H         1 UNK         0.0800 
    246 H246       -3.4626  -18.2431  -51.7809 H         1 UNK         0.0800 
    247 H247       -3.4558  -19.9751  -51.9725 H         1 UNK         0.0800 
@<TRIPOS>BOND
     1    1    2 1    
     2    1  127 1    
     3    1  128 1    
     4    1  129 1    
     5    2    3 2    
     6    2    4 am   BACKBONE|DICT|INTERRES
     7    4    5 1    
     8    4  130 1    
     9    5    6 1    
    10    5   65 1    
    11    5  131 1    
    12    6    7 1    
    13    6  132 1    
    14    6  133 1    
    15    7    8 1    
    16    8    9 1    
    17    8  134 1    
    18    8  135 1    
    19    9   10 ar   
    20    9   14 ar   
    21   10   11 ar   
    22   10  136 1    
    23   11   12 ar   
    24   11  126 1    
    25   12   13 ar   
    26   12  137 1    
    27   13   14 ar   
    28   13   15 1    
    29   14  138 1    
    30   15   16 1    
    31   15  139 1    
    32   15  140 1    
    33   16   17 1    
    34   17   18 1    
    35   17  141 1    
    36   17  142 1    
    37   18   19 1    
    38   18   67 1    
    39   18  143 1    
    40   19   20 am   BACKBONE|DICT|INTERRES
    41   19  144 1    
    42   20   21 2    
    43   20   22 1    
    44   22   23 1    
    45   22   24 1    
    46   22  145 1    
    47   23  146 1    
    48   23  147 1    
    49   23  148 1    
    50   24   25 am   BACKBONE|DICT|INTERRES
    51   24  149 1    
    52   25   26 2    
    53   25   27 1    
    54   27   28 1    
    55   27   29 1    
    56   27  150 1    
    57   28  151 1    
    58   28  152 1    
    59   28  153 1    
    60   29   30 am   BACKBONE|DICT|INTERRES
    61   29  154 1    
    62   30   31 2    
    63   30   32 1    
    64   32   33 1    
    65   32   34 1    
    66   32  155 1    
    67   33  156 1    
    68   33  157 1    
    69   33  158 1    
    70   34   35 am   BACKBONE|DICT|INTERRES
    71   34  159 1    
    72   35   36 2    
    73   35   37 1    
    74   37   38 1    
    75   37   39 1    
    76   37  160 1    
    77   38  161 1    
    78   38  162 1    
    79   38  163 1    
    80   39   40 am   BACKBONE|DICT|INTERRES
    81   39  164 1    
    82   40   41 2    
    83   40   42 1    
    84   42   43 1    
    85   42   44 1    
    86   42  165 1    
    87   43  166 1    
    88   43  167 1    
    89   43  168 1    
    90   44   45 am   BACKBONE|DICT|INTERRES
    91   44  169 1    
    92   45   46 2    
    93   45   47 1    
    94   47   48 1    
    95   47   49 1    
    96   47  170 1    
    97   48  171 1    
    98   48  172 1    
    99   48  173 1    
   100   49   50 am   BACKBONE|DICT|INTERRES
   101   49  174 1    
   102   50   51 2    
   103   50   52 1    
   104   52   53 1    
   105   52   54 1    
   106   52  175 1    
   107   53  176 1    
   108   53  177 1    
   109   53  178 1    
   110   54   55 am   BACKBONE|DICT|INTERRES
   111   54  179 1    
   112   55   56 2    
   113   55   57 1    
   114   57   58 1    
   115   57   59 1    
   116   57  180 1    
   117   58  181 1    
   118   58  182 1    
   119   58  183 1    
   120   59   60 am   BACKBONE|DICT|INTERRES
   121   59  184 1    
   122   60   61 2    
   123   60   62 1    
   124   62   63 1    
   125   62   64 1    
   126   62  185 1    
   127   63  186 1    
   128   63  187 1    
   129   63  188 1    
   130   64   65 am   BACKBONE|DICT|INTERRES
   131   64  189 1    
   132   65   66 2    
   133   67   68 2    
   134   67   69 am   BACKBONE|DICT|INTERRES
   135   69   70 1    
   136   69  190 1    
   137   70   71 1    
   138   70   72 1    
   139   70  191 1    
   140   71  192 1    
   141   71  193 1    
   142   71  194 1    
   143   72   73 2    
   144   72   74 am   BACKBONE|DICT|INTERRES
   145   74   75 1    
   146   74  195 1    
   147   75   76 1    
   148   75   77 1    
   149   75  196 1    
   150   76  197 1    
   151   76  198 1    
   152   76  199 1    
   153   77   78 2    
   154   77   79 am   BACKBONE|DICT|INTERRES
   155   79   80 1    
   156   79  200 1    
   157   80   81 1    
   158   80   82 1    
   159   80  201 1    
   160   81  202 1    
   161   81  203 1    
   162   81  204 1    
   163   82   83 2    
   164   82   84 am   BACKBONE|DICT|INTERRES
   165   84   85 1    
   166   84  205 1    
   167   85   86 1    
   168   85   87 1    
   169   85  206 1    
   170   86  207 1    
   171   86  208 1    
   172   86  209 1    
   173   87   88 2    
   174   87   89 am   BACKBONE|DICT|INTERRES
   175   89   90 1    
   176   89  210 1    
   177   90   91 1    
   178   90   92 1    
   179   90  211 1    
   180   91  212 1    
   181   91  213 1    
   182   91  214 1    
   183   92   93 2    
   184   92   94 am   BACKBONE|DICT|INTERRES
   185   94   95 1    
   186   94  215 1    
   187   95   96 1    
   188   95   97 1    
   189   95  216 1    
   190   96  217 1    
   191   96  218 1    
   192   96  219 1    
   193   97   98 2    
   194   97   99 am   BACKBONE|DICT|INTERRES
   195   99  100 1    
   196   99  220 1    
   197  100  101 1    
   198  100  102 1    
   199  100  221 1    
   200  101  222 1    
   201  101  223 1    
   202  101  224 1    
   203  102  103 2    
   204  102  104 am   BACKBONE|DICT|INTERRES
   205  104  105 1    
   206  104  225 1    
   207  105  106 1    
   208  105  107 1    
   209  105  226 1    
   210  106  227 1    
   211  106  228 1    
   212  106  229 1    
   213  107  108 2    
   214  107  109 am   BACKBONE|DICT|INTERRES
   215  109  110 1    
   216  109  230 1    
   217  110  111 1    
   218  110  112 1    
   219  110  231 1    
   220  111  232 1    
   221  111  233 1    
   222  111  234 1    
   223  112  113 2    
   224  112  114 am   BACKBONE|DICT|INTERRES
   225  114  115 1    
   226  114  235 1    
   227  115  116 1    
   228  115  117 1    
   229  115  236 1    
   230  116  237 1    
   231  116  238 1    
   232  116  239 1    
   233  117  118 2    
   234  117  119 am   BACKBONE|DICT|INTERRES
   235  119  120 1    
   236  119  240 1    
   237  120  121 1    
   238  120  124 1    
   239  120  241 1    
   240  121  122 am   BACKBONE|DICT|INTERRES
   241  121  123 2    
   242  122  242 1    
   243  122  243 1    
   244  124  125 1    
   245  124  244 1    
   246  124  245 1    
   247  125  126 1    
   248  126  246 1    
   249  126  247 1    
@<TRIPOS>SUBSTRUCTURE
     1 UNK         1 GROUP             0       ****    0 ROOT    
