@<TRIPOS>MOLECULE
3R540
247   249    1
SMALL
USER_CHARGES


@<TRIPOS>ATOM
      1 CA          1.3640  -11.4692  -47.1418 C.3       0 UNK        -0.1800 
      2 C           2.7183  -12.1348  -46.9461 C.2       0 UNK         0.5000 
      3 O           3.7252  -11.4397  -46.8136 O.2       0 UNK        -0.5000 
      4 N           2.7457  -13.4746  -46.9209 N.am      1 UNK        -0.5000 
      5 CA          3.9602  -14.3026  -46.8847 C.3       1 UNK         0.1400 
      6 C6          3.6275  -15.7983  -47.1159 C.3       23 UNK        -0.0398 
      7 S7          5.0619  -16.7499  -47.7164 S.3       23 UNK        -0.2404 
      8 C8          4.7817  -16.7446  -49.5184 C.3       23 UNK        -0.0205 
      9 C9          3.7268  -17.7536  -49.9537 C.ar      23 UNK        -0.0193 
     10 C10         2.6167  -17.3494  -50.7030 C.ar      23 UNK        -0.1150 
     11 C11         1.6813  -18.2897  -51.1488 C.ar      23 UNK        -0.0193 
     12 C12         1.8433  -19.6365  -50.8067 C.ar      23 UNK        -0.1150 
     13 C13         2.9459  -20.0533  -50.0541 C.ar      23 UNK        -0.0193 
     14 C14         3.8909  -19.1073  -49.6487 C.ar      23 UNK        -0.1150 
     15 C15         3.1272  -21.5278  -49.7079 C.3       23 UNK        -0.0205 
     16 S16         3.5007  -21.8260  -47.9433 S.3       23 UNK        -0.2404 
     17 C17         2.0378  -21.1073  -47.1210 C.3       23 UNK        -0.0398 
     18 CA          0.9858  -22.1548  -46.6874 C.3       11 UNK         0.1400 
     19 N          -0.0144  -21.5669  -45.7931 N.am      11 UNK        -0.5000 
     20 C          -0.9649  -22.2551  -45.1458 C.2       10 UNK         0.5000 
     21 O          -1.0570  -23.4820  -45.1702 O.2       10 UNK        -0.5000 
     22 CA         -2.0175  -21.4339  -44.3795 C.3       10 UNK         0.1400 
     23 CB         -1.4869  -21.0277  -42.9970 C.3       10 UNK        -0.1800 
     24 N          -2.4562  -20.2454  -45.1151 N.am      10 UNK        -0.5000 
     25 C          -3.1029  -20.2785  -46.2899 C.2       9 UNK         0.5000 
     26 O          -3.4396  -21.3197  -46.8497 O.2       9 UNK        -0.5000 
     27 CA         -3.3774  -18.9329  -46.9857 C.3       9 UNK         0.1400 
     28 CB         -4.6161  -18.2490  -46.3900 C.3       9 UNK        -0.1800 
     29 N          -2.2354  -18.0209  -46.9305 N.am      9 UNK        -0.5000 
     30 C          -1.0297  -18.2729  -47.4602 C.2       8 UNK         0.5000 
     31 O          -0.7532  -19.3067  -48.0674 O.2       8 UNK        -0.5000 
     32 CA          0.0697  -17.2277  -47.1922 C.3       8 UNK         0.1400 
     33 CB         -0.1093  -15.9691  -48.0580 C.3       8 UNK        -0.1800 
     34 N           0.0957  -16.8383  -45.7833 N.am      8 UNK        -0.5000 
     35 C           0.4337  -17.6559  -44.7770 C.2       7 UNK         0.5000 
     36 O           0.8151  -18.8158  -44.9319 O.2       7 UNK        -0.5000 
     37 CA          0.2784  -17.0864  -43.3573 C.3       7 UNK         0.1400 
     38 CB          1.5108  -16.2588  -42.9708 C.3       7 UNK        -0.1800 
     39 N          -0.9216  -16.2598  -43.2218 N.am      7 UNK        -0.5000 
     40 C          -2.1728  -16.7418  -43.2475 C.2       6 UNK         0.5000 
     41 O          -2.4416  -17.9363  -43.3608 O.2       6 UNK        -0.5000 
     42 CA         -3.3170  -15.7139  -43.1839 C.3       6 UNK         0.1400 
     43 CB         -3.6535  -15.3711  -41.7252 C.3       6 UNK        -0.1800 
     44 N          -3.0203  -14.4809  -43.9139 N.am      6 UNK        -0.5000 
     45 C          -2.7792  -14.4063  -45.2307 C.2       5 UNK         0.5000 
     46 O          -2.8071  -15.3776  -45.9848 O.2       5 UNK        -0.5000 
     47 CA         -2.4028  -13.0244  -45.7936 C.3       5 UNK         0.1400 
     48 CB         -3.6355  -12.3346  -46.3951 C.3       5 UNK        -0.1800 
     49 N          -1.7933  -12.1412  -44.7953 N.am      5 UNK        -0.5000 
     50 C          -0.5824  -12.3274  -44.2569 C.2       4 UNK         0.5000 
     51 O           0.1616  -13.2729  -44.5389 O.2       4 UNK        -0.5000 
     52 CA         -0.1314  -11.2942  -43.2201 C.3       4 UNK         0.1400 
     53 CB         -0.3486  -11.8217  -41.7923 C.3       4 UNK        -0.1800 
     54 N           1.2822  -11.0363  -43.4442 N.am      4 UNK        -0.5000 
     55 C           1.9293   -9.8904  -43.2047 C.2       3 UNK         0.5000 
     56 O           1.3924   -8.8986  -42.7086 O.2       3 UNK        -0.5000 
     57 CA          3.4181   -9.8394  -43.6181 C.3       3 UNK         0.1400 
     58 CB          4.2602   -8.9094  -42.7195 C.3       3 UNK        -0.1800 
     59 N           4.0352  -11.1672  -43.7453 N.am      3 UNK        -0.5000 
     60 C           4.2564  -12.0615  -42.7677 C.2       2 UNK         0.5000 
     61 O           4.0200  -11.8492  -41.5778 O.2       2 UNK        -0.5000 
     62 CA          4.7844  -13.4379  -43.2141 C.3       2 UNK         0.1400 
     63 CB          4.5376  -14.5361  -42.1646 C.3       2 UNK        -0.1800 
     64 N           4.1570  -13.8252  -44.4808 N.am      2 UNK        -0.5000 
     65 C           4.8180  -14.0833  -45.6161 C.2       1 UNK         0.5000 
     66 O           6.0467  -14.1028  -45.7017 O.2       1 UNK        -0.5000 
     67 C           0.3196  -22.8437  -47.8969 C.2       11 UNK         0.5000 
     68 O           0.6350  -23.9964  -48.1919 O.2       11 UNK        -0.5000 
     69 N          -0.6190  -22.1443  -48.5480 N.am      12 UNK        -0.5000 
     70 CA         -1.4094  -22.6618  -49.6628 C.3       12 UNK         0.1400 
     71 CB         -2.2408  -21.5249  -50.2644 C.3       12 UNK        -0.1800 
     72 C          -2.2899  -23.8636  -49.2725 C.2       12 UNK         0.5000 
     73 O          -2.3426  -24.8360  -50.0240 O.2       12 UNK        -0.5000 
     74 N          -2.9159  -23.8077  -48.0884 N.am      13 UNK        -0.5000 
     75 CA         -3.6848  -24.9069  -47.5028 C.3       13 UNK         0.1400 
     76 CB         -4.3854  -24.4340  -46.2196 C.3       13 UNK        -0.1800 
     77 C          -2.8198  -26.1490  -47.2203 C.2       13 UNK         0.5000 
     78 O          -3.2323  -27.2593  -47.5553 O.2       13 UNK        -0.5000 
     79 N          -1.6200  -25.9424  -46.6569 N.am      14 UNK        -0.5000 
     80 CA         -0.6247  -26.9900  -46.4074 C.3       14 UNK         0.1400 
     81 CB          0.5204  -26.4206  -45.5563 C.3       14 UNK        -0.1800 
     82 C          -0.0821  -27.6269  -47.7024 C.2       14 UNK         0.5000 
     83 O           0.1726  -28.8313  -47.7281 O.2       14 UNK        -0.5000 
     84 N           0.0398  -26.8185  -48.7635 N.am      15 UNK        -0.5000 
     85 CA          0.3915  -27.2443  -50.1202 C.3       15 UNK         0.1400 
     86 CB          0.9100  -26.0244  -50.9001 C.3       15 UNK        -0.1800 
     87 C          -0.7703  -27.9258  -50.8789 C.2       15 UNK         0.5000 
     88 O          -0.5504  -28.4128  -51.9887 O.2       15 UNK        -0.5000 
     89 N          -1.9729  -27.9454  -50.2830 N.am      16 UNK        -0.5000 
     90 CA         -3.2318  -28.4862  -50.8064 C.3       16 UNK         0.1400 
     91 CB         -3.1340  -30.0097  -51.0329 C.3       16 UNK        -0.1800 
     92 C          -3.7681  -27.7199  -52.0347 C.2       16 UNK         0.5000 
     93 O          -4.4517  -28.3056  -52.8773 O.2       16 UNK        -0.5000 
     94 N          -3.4684  -26.4182  -52.1045 N.am      17 UNK        -0.5000 
     95 CA         -4.0065  -25.4810  -53.0852 C.3       17 UNK         0.1400 
     96 CB         -2.9170  -24.4459  -53.4135 C.3       17 UNK        -0.1800 
     97 C          -5.2688  -24.7940  -52.5300 C.2       17 UNK         0.5000 
     98 O          -5.5920  -24.9381  -51.3472 O.2       17 UNK        -0.5000 
     99 N          -5.9589  -24.0403  -53.3958 N.am      18 UNK        -0.5000 
    100 CA        -7.0996  -23.1954  -53.0426 C.3       18 UNK         0.1400 
    101 CB        -7.8089  -22.7442  -54.3306 C.3       18 UNK        -0.1800 
    102 C         -6.6254  -21.9916  -52.2099 C.2       18 UNK         0.5000 
    103 O         -6.1371  -21.0135  -52.7794 O.2       18 UNK        -0.5000 
    104 N         -6.7312  -22.1051  -50.8803 N.am      19 UNK        -0.5000 
    105 CA        -6.1680  -21.1777  -49.8948 C.3       19 UNK         0.1400 
    106 CB        -6.4656  -21.7047  -48.4851 C.3       19 UNK        -0.1800 
    107 C         -6.6305  -19.7171  -50.0388 C.2       19 UNK         0.5000 
    108 O         -5.8364  -18.8077  -49.8027 O.2       19 UNK        -0.5000 
    109 N         -7.8835  -19.5199  -50.4703 N.am      20 UNK        -0.5000 
    110 CA        -8.4794  -18.2078  -50.7359 C.3       20 UNK         0.1400 
    111 CB        -9.9924  -18.3808  -50.9384 C.3       20 UNK        -0.1800 
    112 C         -7.8557  -17.4774  -51.9433 C.2       20 UNK         0.5000 
    113 O         -7.8778  -16.2468  -51.9806 O.2       20 UNK        -0.5000 
    114 N         -7.3091  -18.2417  -52.8977 N.am      21 UNK        -0.5000 
    115 CA        -6.6145  -17.7424  -54.0862 C.3       21 UNK         0.1400 
    116 CB        -7.0722  -18.5783  -55.2933 C.3       21 UNK        -0.1800 
    117 C         -5.0812  -17.8131  -53.9351 C.2       21 UNK         0.5000 
    118 O         -4.3659  -17.3696  -54.8344 O.2       21 UNK        -0.5000 
    119 N         -4.6041  -18.3854  -52.8218 N.am      22 UNK        -0.5000 
    120 CA        -3.2072  -18.7640  -52.5678 C.3       22 UNK         0.1400 
    121 C         -2.6959  -19.9078  -53.5005 C.2       22 UNK         0.5000 
    122 N         -3.5578  -20.8191  -53.9343 N.am      22 UNK        -0.7600 
    123 O         -1.5186  -19.9863  -53.8364 O.2       22 UNK        -0.5000 
    124 C124       -2.2535  -17.5371  -52.4729 C.3       23 UNK        -0.0398 
    125 S125       -1.0345  -17.7272  -51.1292 S.3       23 UNK        -0.2404 
    126 C126        0.5267  -17.8681  -52.0476 C.3       23 UNK        -0.0205 
    127 H127        1.1637  -10.7697  -46.3313 H         1 UNK         0.0600 
    128 H128        0.5550  -12.1986  -47.1749 H         1 UNK         0.0600 
    129 H129        1.3556  -10.9127  -48.0788 H         1 UNK         0.0600 
    130 H130        1.8730  -13.9755  -46.9923 H         1 UNK         0.3000 
    131 H131        4.5664  -13.9654  -47.7286 H         1 UNK         0.0600 
    132 H132        3.2438  -16.2642  -46.2064 H         1 UNK         0.0800 
    133 H133        2.8347  -15.8975  -47.8571 H         1 UNK         0.0800 
    134 H134        5.7202  -16.9919  -50.0162 H         1 UNK         0.0800 
    135 H135        4.5208  -15.7359  -49.8425 H         1 UNK         0.0800 
    136 H136        2.4948  -16.3080  -50.9657 H         1 UNK         0.1150 
    137 H137        1.1144  -20.3605  -51.1438 H         1 UNK         0.1150 
    138 H138        4.7567  -19.4245  -49.0844 H         1 UNK         0.1150 
    139 H139        2.2414  -22.1008  -49.9852 H         1 UNK         0.0800 
    140 H140        3.9463  -21.9255  -50.3082 H         1 UNK         0.0800 
    141 H141        1.5907  -20.3373  -47.7486 H         1 UNK         0.0800 
    142 H142        2.4077  -20.5823  -46.2395 H         1 UNK         0.0800 
    143 H143        1.5010  -22.9296  -46.1155 H         1 UNK         0.0600 
    144 H144        0.0124  -20.5582  -45.6887 H         1 UNK         0.3000 
    145 H145       -2.8906  -22.0724  -44.2311 H         1 UNK         0.0600 
    146 H146       -2.2605  -20.5352  -42.4078 H         1 UNK         0.0600 
    147 H147       -1.1563  -21.9007  -42.4330 H         1 UNK         0.0600 
    148 H148       -0.6398  -20.3458  -43.0748 H         1 UNK         0.0600 
    149 H149       -2.2683  -19.3471  -44.6796 H         1 UNK         0.3000 
    150 H150       -3.5800  -19.1396  -48.0386 H         1 UNK         0.0600 
    151 H151       -5.4893  -18.8992  -46.4533 H         1 UNK         0.0600 
    152 H152       -4.8551  -17.3320  -46.9290 H         1 UNK         0.0600 
    153 H153       -4.4698  -17.9932  -45.3405 H         1 UNK         0.0600 
    154 H154       -2.3894  -17.1260  -46.4720 H         1 UNK         0.3000 
    155 H155        1.0351  -17.6773  -47.4355 H         1 UNK         0.0600 
    156 H156       -1.1437  -15.6250  -48.0770 H         1 UNK         0.0600 
    157 H157        0.5045  -15.1433  -47.7029 H         1 UNK         0.0600 
    158 H158        0.1897  -16.1655  -49.0862 H         1 UNK         0.0600 
    159 H159       -0.2552  -15.9193  -45.5560 H         1 UNK         0.3000 
    160 H160        0.1989  -17.9268  -42.6645 H         1 UNK         0.0600 
    161 H161        1.6337  -15.3900  -43.6177 H         1 UNK         0.0600 
    162 H162        2.4213  -16.8549  -43.0444 H         1 UNK         0.0600 
    163 H163        1.4355  -15.9045  -41.9427 H         1 UNK         0.0600 
    164 H164       -0.7843  -15.2610  -43.1630 H         1 UNK         0.3000 
    165 H165       -4.1978  -16.1690  -43.6411 H         1 UNK         0.0600 
    166 H166       -4.5174  -14.7091  -41.6647 H         1 UNK         0.0600 
    167 H167       -3.8956  -16.2715  -41.1588 H         1 UNK         0.0600 
    168 H168       -2.8185  -14.8813  -41.2225 H         1 UNK         0.0600 
    169 H169       -2.9829  -13.6301  -43.3731 H         1 UNK         0.3000 
    170 H170       -1.6785  -13.1866  -46.5945 H         1 UNK         0.0600 
    171 H171       -4.0980  -12.9596  -47.1604 H         1 UNK         0.0600 
    172 H172       -4.3927  -12.1288  -45.6375 H         1 UNK         0.0600 
    173 H173       -3.3671  -11.3899  -46.8684 H         1 UNK         0.0600 
    174 H174       -2.3398  -11.3396  -44.5136 H         1 UNK         0.3000 
    175 H175       -0.7009  -10.3732  -43.3624 H         1 UNK         0.0600 
    176 H176        0.2107  -12.7414  -41.6143 H         1 UNK         0.0600 
    177 H177       -0.0297  -11.0897  -41.0501 H         1 UNK         0.0600 
    178 H178       -1.4022  -12.0342  -41.6078 H         1 UNK         0.0600 
    179 H179        1.7790  -11.8001  -43.8787 H         1 UNK         0.3000 
    180 H180        3.4286   -9.4137  -44.6225 H         1 UNK         0.0600 
    181 H181        4.2241   -9.2112  -41.6726 H         1 UNK         0.0600 
    182 H182        3.8976   -7.8822  -42.7728 H         1 UNK         0.0600 
    183 H183        5.3046   -8.8990  -43.0311 H         1 UNK         0.0600 
    184 H184        4.2546  -11.4412  -44.6968 H         1 UNK         0.3000 
    185 H185        5.8637  -13.3271  -43.3352 H         1 UNK         0.0600 
    186 H186        5.1095  -14.3418  -41.2566 H         1 UNK         0.0600 
    187 H187        3.4872  -14.5906  -41.8810 H         1 UNK         0.0600 
    188 H188        4.8404  -15.5155  -42.5354 H         1 UNK         0.0600 
    189 H189        3.1476  -13.8092  -44.5076 H         1 UNK         0.3000 
    190 H190       -0.7971  -21.1818  -48.2685 H         1 UNK         0.3000 
    191 H191       -0.7128  -23.0057  -50.4299 H         1 UNK         0.0600 
    192 H192       -2.8553  -21.0364  -49.5095 H         1 UNK         0.0600 
    193 H193       -2.9002  -21.8877  -51.0536 H         1 UNK         0.0600 
    194 H194       -1.5899  -20.7672  -50.7003 H         1 UNK         0.0600 
    195 H195       -2.8797  -22.9422  -47.5546 H         1 UNK         0.3000 
    196 H196       -4.4530  -25.1912  -48.2253 H         1 UNK         0.0600 
    197 H197       -5.0023  -25.2284  -45.7980 H         1 UNK         0.0600 
    198 H198       -5.0382  -23.5833  -46.4101 H         1 UNK         0.0600 
    199 H199       -3.6688  -24.1358  -45.4548 H         1 UNK         0.0600 
    200 H200       -1.3690  -25.0006  -46.3690 H         1 UNK         0.3000 
    201 H201       -1.1122  -27.7799  -45.8324 H         1 UNK         0.0600 
    202 H202        0.1510  -26.0392  -44.6043 H         1 UNK         0.0600 
    203 H203        1.0350  -25.6054  -46.0650 H         1 UNK         0.0600 
    204 H204        1.2615  -27.1892  -45.3338 H         1 UNK         0.0600 
    205 H205       -0.1195  -25.8246  -48.6309 H         1 UNK         0.3000 
    206 H206        1.2031  -27.9713  -50.0525 H         1 UNK         0.0600 
    207 H207        1.7482  -25.5533  -50.3862 H         1 UNK         0.0600 
    208 H208        1.2581  -26.3120  -51.8928 H         1 UNK         0.0600 
    209 H209        0.1328  -25.2719  -51.0319 H         1 UNK         0.0600 
    210 H210       -2.0511  -27.4977  -49.3782 H         1 UNK         0.3000 
    211 H211       -3.9694  -28.3253  -50.0193 H         1 UNK         0.0600 
    212 H212       -2.4755  -30.2561  -51.8660 H         1 UNK         0.0600 
    213 H213       -4.1132  -30.4348  -51.2559 H         1 UNK         0.0600 
    214 H214       -2.7571  -30.5165  -50.1445 H         1 UNK         0.0600 
    215 H215       -2.9711  -25.9917  -51.3249 H         1 UNK         0.3000 
    216 H216       -4.2733  -26.0104  -54.0021 H         1 UNK         0.0600 
    217 H217       -3.2318  -23.7861  -54.2217 H         1 UNK         0.0600 
    218 H218       -1.9962  -24.9325  -53.7360 H         1 UNK         0.0600 
    219 H219       -2.6786  -23.8211  -52.5528 H         1 UNK         0.0600 
    220 H220       -5.6257  -23.9596  -54.3452 H         1 UNK         0.3000 
    221 H221       -7.8077  -23.7801  -52.4516 H         1 UNK         0.0600 
    222 H222       -7.1373  -22.2005  -54.9963 H         1 UNK         0.0600 
    223 H223       -8.2047  -23.5979  -54.8809 H         1 UNK         0.0600 
    224 H224       -8.6488  -22.0862  -54.1038 H         1 UNK         0.0600 
    225 H225       -7.0967  -22.9715  -50.5104 H         1 UNK         0.3000 
    226 H226       -5.0879  -21.1839  -50.0359 H         1 UNK         0.0600 
    227 H227       -6.0376  -22.6968  -48.3444 H         1 UNK         0.0600 
    228 H228       -6.0350  -21.0546  -47.7229 H         1 UNK         0.0600 
    229 H229       -7.5376  -21.7695  -48.2960 H         1 UNK         0.0600 
    230 H230       -8.4624  -20.3280  -50.6472 H         1 UNK         0.3000 
    231 H231       -8.3212  -17.5807  -49.8559 H         1 UNK         0.0600 
    232 H232      -10.4762  -17.4184  -51.1113 H         1 UNK         0.0600 
    233 H233      -10.4604  -18.8243  -50.0594 H         1 UNK         0.0600 
    234 H234      -10.2134  -19.0180  -51.7957 H         1 UNK         0.0600 
    235 H235       -7.2956  -19.2472  -52.7729 H         1 UNK         0.3000 
    236 H236       -6.8781  -16.6995  -54.2729 H         1 UNK         0.0600 
    237 H237       -8.1530  -18.5234  -55.4240 H         1 UNK         0.0600 
    238 H238       -6.6156  -18.2189  -56.2163 H         1 UNK         0.0600 
    239 H239       -6.8008  -19.6287  -55.1804 H         1 UNK         0.0600 
    240 H240       -5.2721  -18.7100  -52.1373 H         1 UNK         0.3000 
    241 H241       -3.2554  -19.2198  -51.5793 H         1 UNK         0.0600 
    242 H242       -4.5284  -20.8002  -53.6303 H         1 UNK         0.3800 
    243 H243       -3.2334  -21.5420  -54.5537 H         1 UNK         0.3800 
    244 H244       -1.7608  -17.3325  -53.4248 H         1 UNK         0.0800 
    245 H245       -2.8223  -16.6360  -52.2403 H         1 UNK         0.0800 
    246 H246        0.4191  -18.5980  -52.8497 H         1 UNK         0.0800 
    247 H247        0.7451  -16.9141  -52.5295 H         1 UNK         0.0800 
@<TRIPOS>BOND
     1    1    2 1    
     2    1  127 1    
     3    1  128 1    
     4    1  129 1    
     5    2    3 2    
     6    2    4 am   BACKBONE|DICT|INTERRES
     7    4    5 1    
     8    4  130 1    
     9    5    6 1    
    10    5   65 1    
    11    5  131 1    
    12    6    7 1    
    13    6  132 1    
    14    6  133 1    
    15    7    8 1    
    16    8    9 1    
    17    8  134 1    
    18    8  135 1    
    19    9   10 ar   
    20    9   14 ar   
    21   10   11 ar   
    22   10  136 1    
    23   11   12 ar   
    24   11  126 1    
    25   12   13 ar   
    26   12  137 1    
    27   13   14 ar   
    28   13   15 1    
    29   14  138 1    
    30   15   16 1    
    31   15  139 1    
    32   15  140 1    
    33   16   17 1    
    34   17   18 1    
    35   17  141 1    
    36   17  142 1    
    37   18   19 1    
    38   18   67 1    
    39   18  143 1    
    40   19   20 am   BACKBONE|DICT|INTERRES
    41   19  144 1    
    42   20   21 2    
    43   20   22 1    
    44   22   23 1    
    45   22   24 1    
    46   22  145 1    
    47   23  146 1    
    48   23  147 1    
    49   23  148 1    
    50   24   25 am   BACKBONE|DICT|INTERRES
    51   24  149 1    
    52   25   26 2    
    53   25   27 1    
    54   27   28 1    
    55   27   29 1    
    56   27  150 1    
    57   28  151 1    
    58   28  152 1    
    59   28  153 1    
    60   29   30 am   BACKBONE|DICT|INTERRES
    61   29  154 1    
    62   30   31 2    
    63   30   32 1    
    64   32   33 1    
    65   32   34 1    
    66   32  155 1    
    67   33  156 1    
    68   33  157 1    
    69   33  158 1    
    70   34   35 am   BACKBONE|DICT|INTERRES
    71   34  159 1    
    72   35   36 2    
    73   35   37 1    
    74   37   38 1    
    75   37   39 1    
    76   37  160 1    
    77   38  161 1    
    78   38  162 1    
    79   38  163 1    
    80   39   40 am   BACKBONE|DICT|INTERRES
    81   39  164 1    
    82   40   41 2    
    83   40   42 1    
    84   42   43 1    
    85   42   44 1    
    86   42  165 1    
    87   43  166 1    
    88   43  167 1    
    89   43  168 1    
    90   44   45 am   BACKBONE|DICT|INTERRES
    91   44  169 1    
    92   45   46 2    
    93   45   47 1    
    94   47   48 1    
    95   47   49 1    
    96   47  170 1    
    97   48  171 1    
    98   48  172 1    
    99   48  173 1    
   100   49   50 am   BACKBONE|DICT|INTERRES
   101   49  174 1    
   102   50   51 2    
   103   50   52 1    
   104   52   53 1    
   105   52   54 1    
   106   52  175 1    
   107   53  176 1    
   108   53  177 1    
   109   53  178 1    
   110   54   55 am   BACKBONE|DICT|INTERRES
   111   54  179 1    
   112   55   56 2    
   113   55   57 1    
   114   57   58 1    
   115   57   59 1    
   116   57  180 1    
   117   58  181 1    
   118   58  182 1    
   119   58  183 1    
   120   59   60 am   BACKBONE|DICT|INTERRES
   121   59  184 1    
   122   60   61 2    
   123   60   62 1    
   124   62   63 1    
   125   62   64 1    
   126   62  185 1    
   127   63  186 1    
   128   63  187 1    
   129   63  188 1    
   130   64   65 am   BACKBONE|DICT|INTERRES
   131   64  189 1    
   132   65   66 2    
   133   67   68 2    
   134   67   69 am   BACKBONE|DICT|INTERRES
   135   69   70 1    
   136   69  190 1    
   137   70   71 1    
   138   70   72 1    
   139   70  191 1    
   140   71  192 1    
   141   71  193 1    
   142   71  194 1    
   143   72   73 2    
   144   72   74 am   BACKBONE|DICT|INTERRES
   145   74   75 1    
   146   74  195 1    
   147   75   76 1    
   148   75   77 1    
   149   75  196 1    
   150   76  197 1    
   151   76  198 1    
   152   76  199 1    
   153   77   78 2    
   154   77   79 am   BACKBONE|DICT|INTERRES
   155   79   80 1    
   156   79  200 1    
   157   80   81 1    
   158   80   82 1    
   159   80  201 1    
   160   81  202 1    
   161   81  203 1    
   162   81  204 1    
   163   82   83 2    
   164   82   84 am   BACKBONE|DICT|INTERRES
   165   84   85 1    
   166   84  205 1    
   167   85   86 1    
   168   85   87 1    
   169   85  206 1    
   170   86  207 1    
   171   86  208 1    
   172   86  209 1    
   173   87   88 2    
   174   87   89 am   BACKBONE|DICT|INTERRES
   175   89   90 1    
   176   89  210 1    
   177   90   91 1    
   178   90   92 1    
   179   90  211 1    
   180   91  212 1    
   181   91  213 1    
   182   91  214 1    
   183   92   93 2    
   184   92   94 am   BACKBONE|DICT|INTERRES
   185   94   95 1    
   186   94  215 1    
   187   95   96 1    
   188   95   97 1    
   189   95  216 1    
   190   96  217 1    
   191   96  218 1    
   192   96  219 1    
   193   97   98 2    
   194   97   99 am   BACKBONE|DICT|INTERRES
   195   99  100 1    
   196   99  220 1    
   197  100  101 1    
   198  100  102 1    
   199  100  221 1    
   200  101  222 1    
   201  101  223 1    
   202  101  224 1    
   203  102  103 2    
   204  102  104 am   BACKBONE|DICT|INTERRES
   205  104  105 1    
   206  104  225 1    
   207  105  106 1    
   208  105  107 1    
   209  105  226 1    
   210  106  227 1    
   211  106  228 1    
   212  106  229 1    
   213  107  108 2    
   214  107  109 am   BACKBONE|DICT|INTERRES
   215  109  110 1    
   216  109  230 1    
   217  110  111 1    
   218  110  112 1    
   219  110  231 1    
   220  111  232 1    
   221  111  233 1    
   222  111  234 1    
   223  112  113 2    
   224  112  114 am   BACKBONE|DICT|INTERRES
   225  114  115 1    
   226  114  235 1    
   227  115  116 1    
   228  115  117 1    
   229  115  236 1    
   230  116  237 1    
   231  116  238 1    
   232  116  239 1    
   233  117  118 2    
   234  117  119 am   BACKBONE|DICT|INTERRES
   235  119  120 1    
   236  119  240 1    
   237  120  121 1    
   238  120  124 1    
   239  120  241 1    
   240  121  122 am   BACKBONE|DICT|INTERRES
   241  121  123 2    
   242  122  242 1    
   243  122  243 1    
   244  124  125 1    
   245  124  244 1    
   246  124  245 1    
   247  125  126 1    
   248  126  246 1    
   249  126  247 1    
@<TRIPOS>SUBSTRUCTURE
     1 UNK         1 GROUP             0       ****    0 ROOT    
