@<TRIPOS>MOLECULE
3R540
247   249    1
SMALL
USER_CHARGES


@<TRIPOS>ATOM
      1 CA         -3.7157  -10.9571  -45.6729 C.3       0 UNK        -0.1800 
      2 C          -2.6783  -12.0303  -45.3802 C.2       0 UNK         0.5000 
      3 O          -1.8663  -11.8670  -44.4701 O.2       0 UNK        -0.5000 
      4 N          -2.7088  -13.1392  -46.1307 N.am      1 UNK        -0.5000 
      5 CA         -1.7594  -14.2584  -46.0253 C.3       1 UNK         0.1400 
      6 C6         -1.9343  -15.2894  -47.1684 C.3       23 UNK        -0.0398 
      7 S7         -1.7365  -14.4962  -48.8010 S.3       23 UNK        -0.2404 
      8 C8         -0.3009  -15.3666  -49.5160 C.3       23 UNK        -0.0205 
      9 C9         -0.6923  -16.5823  -50.3508 C.ar      23 UNK        -0.0193 
     10 C10        -1.6973  -16.4842  -51.3195 C.ar      23 UNK        -0.1150 
     11 C11        -2.0353  -17.5734  -52.1272 C.ar      23 UNK        -0.0193 
     12 C12        -1.3521  -18.7828  -51.9483 C.ar      23 UNK        -0.1150 
     13 C13        -0.3162  -18.8864  -51.0151 C.ar      23 UNK        -0.0193 
     14 C14         0.0011  -17.7877  -50.2103 C.ar      23 UNK        -0.1150 
     15 C15         0.4969  -20.1689  -50.9271 C.3       23 UNK        -0.0205 
     16 S16        -0.2955  -21.4169  -49.8749 S.3       23 UNK        -0.2404 
     17 C17         0.1525  -20.8199  -48.2153 C.3       23 UNK        -0.0398 
     18 CA         -0.5090  -21.6711  -47.1083 C.3       11 UNK         0.1400 
     19 N           0.2600  -21.6602  -45.8641 N.am      11 UNK        -0.5000 
     20 C           0.0559  -22.5020  -44.8411 C.2       10 UNK         0.5000 
     21 O          -0.7715  -23.4124  -44.8613 O.2       10 UNK        -0.5000 
     22 CA          0.8764  -22.2517  -43.5619 C.3       10 UNK         0.1400 
     23 CB          2.2886  -22.8408  -43.6886 C.3       10 UNK        -0.1800 
     24 N           0.9626  -20.8298  -43.2279 N.am      10 UNK        -0.5000 
     25 C          -0.0937  -20.0601  -42.9286 C.2       9 UNK         0.5000 
     26 O          -1.2459  -20.4826  -42.8355 O.2       9 UNK        -0.5000 
     27 CA          0.1762  -18.5588  -42.7526 C.3       9 UNK         0.1400 
     28 CB          0.6510  -18.2616  -41.3228 C.3       9 UNK        -0.1800 
     29 N           1.1461  -18.0578  -43.7267 N.am      9 UNK        -0.5000 
     30 C           0.9152  -17.9740  -45.0456 C.2       8 UNK         0.5000 
     31 O          -0.1402  -18.3106  -45.5834 O.2       8 UNK        -0.5000 
     32 CA          2.0859  -17.4978  -45.9228 C.3       8 UNK         0.1400 
     33 CB          2.2436  -15.9739  -45.8622 C.3       8 UNK        -0.1800 
     34 N           3.3458  -18.1392  -45.5503 N.am      8 UNK        -0.5000 
     35 C           3.5842  -19.4491  -45.7036 C.2       7 UNK         0.5000 
     36 O           2.7795  -20.2325  -46.2052 O.2       7 UNK        -0.5000 
     37 CA          4.9247  -19.9903  -45.1792 C.3       7 UNK         0.1400 
     38 CB          5.9889  -19.9493  -46.2856 C.3       7 UNK        -0.1800 
     39 N           5.4328  -19.2927  -43.9980 N.am      7 UNK        -0.5000 
     40 C           4.8022  -19.1765  -42.8210 C.2       6 UNK         0.5000 
     41 O           3.6638  -19.5993  -42.6104 O.2       6 UNK        -0.5000 
     42 CA          5.5795  -18.4927  -41.6774 C.3       6 UNK         0.1400 
     43 CB          7.0783  -18.2682  -41.9830 C.3       6 UNK        -0.1800 
     44 N           4.9801  -17.2339  -41.2266 N.am      6 UNK        -0.5000 
     45 C           4.6791  -16.1534  -41.9617 C.2       5 UNK         0.5000 
     46 O           4.7144  -16.1110  -43.1946 O.2       5 UNK        -0.5000 
     47 CA          4.3786  -14.8831  -41.1427 C.3       5 UNK         0.1400 
     48 CB          5.6917  -14.2424  -40.6627 C.3       5 UNK        -0.1800 
     49 N           3.6200  -13.8723  -41.8779 N.am      5 UNK        -0.5000 
     50 C           2.3048  -13.9362  -42.1053 C.2       4 UNK         0.5000 
     51 O           1.6106  -14.9059  -41.7994 O.2       4 UNK        -0.5000 
     52 CA          1.6650  -12.6931  -42.7578 C.3       4 UNK         0.1400 
     53 CB          1.7707  -12.7472  -44.2883 C.3       4 UNK        -0.1800 
     54 N           0.2583  -12.5418  -42.3880 N.am      4 UNK        -0.5000 
     55 C          -0.1913  -12.2595  -41.1574 C.2       3 UNK         0.5000 
     56 O           0.5426  -11.9777  -40.2087 O.2       3 UNK        -0.5000 
     57 CA         -1.7155  -12.3026  -40.9456 C.3       3 UNK         0.1400 
     58 CB         -2.3360  -10.9135  -41.1640 C.3       3 UNK        -0.1800 
     59 N          -2.3625  -13.2688  -41.8353 N.am      3 UNK        -0.5000 
     60 C          -2.5159  -14.5711  -41.5535 C.2       2 UNK         0.5000 
     61 O          -2.1855  -15.0804  -40.4821 O.2       2 UNK        -0.5000 
     62 CA         -3.1632  -15.4596  -42.6366 C.3       2 UNK         0.1400 
     63 CB         -4.6676  -15.6191  -42.3684 C.3       2 UNK        -0.1800 
     64 N          -2.9753  -14.9544  -43.9978 N.am      2 UNK        -0.5000 
     65 C          -1.8007  -14.9447  -44.6442 C.2       1 UNK         0.5000 
     66 O          -0.7651  -15.4010  -44.1708 O.2       1 UNK        -0.5000 
     67 C          -1.9792  -21.2671  -46.8783 C.2       11 UNK         0.5000 
     68 O          -2.8732  -21.9248  -47.4077 O.2       11 UNK        -0.5000 
     69 N          -2.2180  -20.2318  -46.0601 N.am      12 UNK        -0.5000 
     70 CA         -3.5563  -19.7825  -45.6688 C.3       12 UNK         0.1400 
     71 CB         -3.4544  -18.4854  -44.8549 C.3       12 UNK        -0.1800 
     72 C          -4.3448  -20.8601  -44.9002 C.2       12 UNK         0.5000 
     73 O          -5.5205  -21.0754  -45.1958 O.2       12 UNK        -0.5000 
     74 N          -3.6697  -21.5666  -43.9819 N.am      13 UNK        -0.5000 
     75 CA         -4.2036  -22.7234  -43.2560 C.3       13 UNK         0.1400 
     76 CB         -3.2158  -23.1320  -42.1532 C.3       13 UNK        -0.1800 
     77 C          -4.5254  -23.9226  -44.1724 C.2       13 UNK         0.5000 
     78 O          -5.4581  -24.6731  -43.8855 O.2       13 UNK        -0.5000 
     79 N          -3.7811  -24.0531  -45.2782 N.am      14 UNK        -0.5000 
     80 CA         -4.0007  -25.0251  -46.3508 C.3       14 UNK         0.1400 
     81 CB         -2.6447  -25.3690  -46.9930 C.3       14 UNK        -0.1800 
     82 C          -5.0137  -24.5379  -47.4118 C.2       14 UNK         0.5000 
     83 O          -5.1144  -25.1603  -48.4698 O.2       14 UNK        -0.5000 
     84 N          -5.7284  -23.4342  -47.1382 N.am      15 UNK        -0.5000 
     85 CA         -6.7428  -22.7955  -47.9853 C.3       15 UNK         0.1400 
     86 CB         -7.9824  -23.7030  -48.1302 C.3       15 UNK        -0.1800 
     87 C          -6.1793  -22.3145  -49.3391 C.2       15 UNK         0.5000 
     88 O          -6.8277  -22.4754  -50.3736 O.2       15 UNK        -0.5000 
     89 N          -4.9633  -21.7524  -49.2927 N.am      16 UNK        -0.5000 
     90 CA         -4.1340  -21.2787  -50.4056 C.3       16 UNK         0.1400 
     91 CB         -4.8579  -20.2180  -51.2601 C.3       16 UNK        -0.1800 
     92 C          -3.5059  -22.4108  -51.2447 C.2       16 UNK         0.5000 
     93 O          -2.9086  -22.1206  -52.2816 O.2       16 UNK        -0.5000 
     94 N          -3.6050  -23.6631  -50.7646 N.am      17 UNK        -0.5000 
     95 CA         -3.0351  -24.8887  -51.3306 C.3       17 UNK         0.1400 
     96 CB         -1.5047  -24.9050  -51.1206 C.3       17 UNK        -0.1800 
     97 C          -3.4766  -25.0924  -52.7941 C.2       17 UNK         0.5000 
     98 O          -4.6578  -25.3488  -53.0379 O.2       17 UNK        -0.5000 
     99 N          -2.5488  -24.9248  -53.7456 N.am      18 UNK        -0.5000 
    100 CA        -2.8165  -24.8245  -55.1799 C.3       18 UNK         0.1400 
    101 CB        -1.5203  -25.1328  -55.9506 C.3       18 UNK        -0.1800 
    102 C         -3.3847  -23.4299  -55.5158 C.2       18 UNK         0.5000 
    103 O         -2.7212  -22.6305  -56.1788 O.2       18 UNK        -0.5000 
    104 N         -4.5996  -23.1578  -55.0223 N.am      19 UNK        -0.5000 
    105 CA        -5.2705  -21.8534  -55.0176 C.3       19 UNK         0.1400 
    106 CB        -6.5896  -21.9919  -54.2429 C.3       19 UNK        -0.1800 
    107 C         -5.5289  -21.2425  -56.4095 C.2       19 UNK         0.5000 
    108 O         -5.7255  -20.0320  -56.5152 O.2       19 UNK        -0.5000 
    109 N         -5.5207  -22.0819  -57.4525 N.am      20 UNK        -0.5000 
    110 CA        -5.6092  -21.6703  -58.8526 C.3       20 UNK         0.1400 
    111 CB        -5.9833  -22.8951  -59.7020 C.3       20 UNK        -0.1800 
    112 C         -4.3101  -21.0267  -59.3817 C.2       20 UNK         0.5000 
    113 O         -4.3665  -20.3160  -60.3865 O.2       20 UNK        -0.5000 
    114 N         -3.1740  -21.2955  -58.7232 N.am      21 UNK        -0.5000 
    115 CA        -1.8469  -20.8243  -59.1137 C.3       21 UNK         0.1400 
    116 CB        -0.9298  -22.0386  -59.3364 C.3       21 UNK        -0.1800 
    117 C         -1.2468  -19.8815  -58.0594 C.2       21 UNK         0.5000 
    118 O         -0.7325  -18.8244  -58.4268 O.2       21 UNK        -0.5000 
    119 N         -1.3074  -20.2801  -56.7798 N.am      22 UNK        -0.5000 
    120 CA        -0.7132  -19.5810  -55.6225 C.3       22 UNK         0.1400 
    121 C          0.8444  -19.4642  -55.6613 C.2       22 UNK         0.5000 
    122 N          1.5483  -20.3082  -56.4068 N.am      22 UNK        -0.7600 
    123 O          1.4347  -18.6258  -54.9860 O.2       22 UNK        -0.5000 
    124 C124       -1.4285  -18.2351  -55.3044 C.3       23 UNK        -0.0398 
    125 S125       -3.0917  -18.5258  -54.6093 S.3       23 UNK        -0.2404 
    126 C126       -3.1302  -17.3829  -53.1812 C.3       23 UNK        -0.0205 
    127 H127       -4.3780  -11.2455  -46.4895 H         1 UNK         0.0600 
    128 H128       -3.2217  -10.0251  -45.9472 H         1 UNK         0.0600 
    129 H129       -4.3246  -10.7738  -44.7877 H         1 UNK         0.0600 
    130 H130       -3.3870  -13.2138  -46.8757 H         1 UNK         0.3000 
    131 H131       -0.7603  -13.8292  -46.1245 H         1 UNK         0.0600 
    132 H132       -2.9237  -15.7478  -47.1271 H         1 UNK         0.0800 
    133 H133       -1.2167  -16.1060  -47.0679 H         1 UNK         0.0800 
    134 H134        0.4006  -15.6371  -48.7253 H         1 UNK         0.0800 
    135 H135        0.2304  -14.6707  -50.1663 H         1 UNK         0.0800 
    136 H136       -2.2148  -15.5446  -51.4536 H         1 UNK         0.1150 
    137 H137       -1.6002  -19.6434  -52.5524 H         1 UNK         0.1150 
    138 H138        0.8067  -17.8641  -49.4938 H         1 UNK         0.1150 
    139 H139        0.6181  -20.5866  -51.9279 H         1 UNK         0.0800 
    140 H140        1.5048  -19.9635  -50.5631 H         1 UNK         0.0800 
    141 H141       -0.0908  -19.7616  -48.1078 H         1 UNK         0.0800 
    142 H142        1.2377  -20.8926  -48.1473 H         1 UNK         0.0800 
    143 H143       -0.5128  -22.7104  -47.4447 H         1 UNK         0.0600 
    144 H144        1.0001  -20.9687  -45.7934 H         1 UNK         0.3000 
    145 H145        0.3699  -22.7558  -42.7363 H         1 UNK         0.0600 
    146 H146        2.8707  -22.6726  -42.7823 H         1 UNK         0.0600 
    147 H147        2.2457  -23.9179  -43.8544 H         1 UNK         0.0600 
    148 H148        2.8343  -22.4039  -44.5241 H         1 UNK         0.0600 
    149 H149        1.8836  -20.4035  -43.2378 H         1 UNK         0.3000 
    150 H150       -0.7647  -18.0293  -42.9129 H         1 UNK         0.0600 
    151 H151       -0.0347  -18.6856  -40.5881 H         1 UNK         0.0600 
    152 H152        0.6896  -17.1900  -41.1373 H         1 UNK         0.0600 
    153 H153        1.6402  -18.6746  -41.1258 H         1 UNK         0.0600 
    154 H154        2.0560  -17.8014  -43.3721 H         1 UNK         0.3000 
    155 H155        1.8593  -17.7712  -46.9558 H         1 UNK         0.0600 
    156 H156        2.4753  -15.6375  -44.8511 H         1 UNK         0.0600 
    157 H157        1.3242  -15.4782  -46.1745 H         1 UNK         0.0600 
    158 H158        3.0400  -15.6301  -46.5221 H         1 UNK         0.0600 
    159 H159        4.0374  -17.5656  -45.0849 H         1 UNK         0.3000 
    160 H160        4.7687  -21.0331  -44.8979 H         1 UNK         0.0600 
    161 H161        6.2190  -18.9259  -46.5847 H         1 UNK         0.0600 
    162 H162        5.6491  -20.4828  -47.1745 H         1 UNK         0.0600 
    163 H163        6.9160  -20.4215  -45.9602 H         1 UNK         0.0600 
    164 H164        6.3573  -18.8953  -44.0783 H         1 UNK         0.3000 
    165 H165        5.5205  -19.1789  -40.8314 H         1 UNK         0.0600 
    166 H166        7.2313  -17.5547  -42.7937 H         1 UNK         0.0600 
    167 H167        7.5977  -17.8807  -41.1064 H         1 UNK         0.0600 
    168 H168        7.5730  -19.2014  -42.2560 H         1 UNK         0.0600 
    169 H169        4.8744  -17.1588  -40.2247 H         1 UNK         0.3000 
    170 H170        3.7979  -15.1730  -40.2639 H         1 UNK         0.0600 
    171 H171        6.3130  -13.9241  -41.5009 H         1 UNK         0.0600 
    172 H172        5.5004  -13.3709  -40.0362 H         1 UNK         0.0600 
    173 H173        6.2798  -14.9425  -40.0678 H         1 UNK         0.0600 
    174 H174        4.1391  -13.0683  -42.1986 H         1 UNK         0.3000 
    175 H175        2.2008  -11.8087  -42.4067 H         1 UNK         0.0600 
    176 H176        2.8034  -12.8856  -44.6106 H         1 UNK         0.0600 
    177 H177        1.4068  -11.8245  -44.7409 H         1 UNK         0.0600 
    178 H178        1.1842  -13.5687  -44.6951 H         1 UNK         0.0600 
    179 H179       -0.4219  -12.7361  -43.1112 H         1 UNK         0.3000 
    180 H180       -1.8984  -12.5879  -39.9074 H         1 UNK         0.0600 
    181 H181       -3.4116  -10.9300  -40.9879 H         1 UNK         0.0600 
    182 H182       -2.1672  -10.5467  -42.1766 H         1 UNK         0.0600 
    183 H183       -1.9054  -10.1840  -40.4771 H         1 UNK         0.0600 
    184 H184       -2.6085  -12.9322  -42.7574 H         1 UNK         0.3000 
    185 H185       -2.6987  -16.4456  -42.5714 H         1 UNK         0.0600 
    186 H186       -5.1295  -16.2966  -43.0861 H         1 UNK         0.0600 
    187 H187       -4.8449  -16.0315  -41.3743 H         1 UNK         0.0600 
    188 H188       -5.1896  -14.6631  -42.4249 H         1 UNK         0.0600 
    189 H189       -3.7786  -14.5398  -44.4472 H         1 UNK         0.3000 
    190 H190       -1.4328  -19.6943  -45.7012 H         1 UNK         0.3000 
    191 H191       -4.1071  -19.5612  -46.5854 H         1 UNK         0.0600 
    192 H192       -4.4452  -18.0985  -44.6158 H         1 UNK         0.0600 
    193 H193       -2.9279  -17.7120  -45.4128 H         1 UNK         0.0600 
    194 H194       -2.9253  -18.6379  -43.9148 H         1 UNK         0.0600 
    195 H195       -2.7173  -21.2896  -43.7565 H         1 UNK         0.3000 
    196 H196       -5.1364  -22.4150  -42.7797 H         1 UNK         0.0600 
    197 H197       -2.2521  -23.4301  -42.5664 H         1 UNK         0.0600 
    198 H198       -3.0409  -22.3114  -41.4572 H         1 UNK         0.0600 
    199 H199       -3.6004  -23.9732  -41.5751 H         1 UNK         0.0600 
    200 H200       -3.0177  -23.4035  -45.4208 H         1 UNK         0.3000 
    201 H201       -4.4072  -25.9420  -45.9198 H         1 UNK         0.0600 
    202 H202       -2.7468  -26.1721  -47.7239 H         1 UNK         0.0600 
    203 H203       -2.2137  -24.5119  -47.5097 H         1 UNK         0.0600 
    204 H204       -1.9266  -25.7037  -46.2442 H         1 UNK         0.0600 
    205 H205       -5.5389  -22.9531  -46.2672 H         1 UNK         0.3000 
    206 H206       -7.0576  -21.8959  -47.4548 H         1 UNK         0.0600 
    207 H207       -8.3635  -24.0076  -47.1555 H         1 UNK         0.0600 
    208 H208       -8.7902  -23.1813  -48.6447 H         1 UNK         0.0600 
    209 H209       -7.7610  -24.6052  -48.7011 H         1 UNK         0.0600 
    210 H210       -4.4743  -21.7596  -48.4003 H         1 UNK         0.3000 
    211 H211       -3.2883  -20.7736  -49.9376 H         1 UNK         0.0600 
    212 H212       -4.1936  -19.8219  -52.0263 H         1 UNK         0.0600 
    213 H213       -5.1855  -19.3770  -50.6494 H         1 UNK         0.0600 
    214 H214       -5.7285  -20.6210  -51.7739 H         1 UNK         0.0600 
    215 H215       -4.1577  -23.8019  -49.9279 H         1 UNK         0.3000 
    216 H216       -3.4568  -25.7193  -50.7628 H         1 UNK         0.0600 
    217 H217       -1.0637  -25.8265  -51.5025 H         1 UNK         0.0600 
    218 H218       -1.2605  -24.8486  -50.0595 H         1 UNK         0.0600 
    219 H219       -1.0097  -24.0665  -51.6119 H         1 UNK         0.0600 
    220 H220       -1.6215  -24.6565  -53.4505 H         1 UNK         0.3000 
    221 H221       -3.5630  -25.5694  -55.4628 H         1 UNK         0.0600 
    222 H222       -1.1617  -26.1386  -55.7313 H         1 UNK         0.0600 
    223 H223       -0.7236  -24.4310  -55.7001 H         1 UNK         0.0600 
    224 H224       -1.6832  -25.0739  -57.0276 H         1 UNK         0.0600 
    225 H225       -5.0286  -23.8779  -54.4517 H         1 UNK         0.3000 
    226 H226       -4.6240  -21.1623  -54.4736 H         1 UNK         0.0600 
    227 H227       -6.4208  -22.3899  -53.2420 H         1 UNK         0.0600 
    228 H228       -7.0806  -21.0245  -54.1299 H         1 UNK         0.0600 
    229 H229       -7.2860  -22.6583  -54.7531 H         1 UNK         0.0600 
    230 H230       -5.3660  -23.0629  -57.2727 H         1 UNK         0.3000 
    231 H231       -6.4074  -20.9311  -58.9486 H         1 UNK         0.0600 
    232 H232       -5.2228  -23.6747  -59.6409 H         1 UNK         0.0600 
    233 H233       -6.0913  -22.6238  -60.7530 H         1 UNK         0.0600 
    234 H234       -6.9322  -23.3243  -59.3799 H         1 UNK         0.0600 
    235 H235       -3.2181  -21.8488  -57.8732 H         1 UNK         0.3000 
    236 H236       -1.8962  -20.2700  -60.0532 H         1 UNK         0.0600 
    237 H237       -1.3058  -22.6698  -60.1416 H         1 UNK         0.0600 
    238 H238        0.0770  -21.7237  -59.6139 H         1 UNK         0.0600 
    239 H239       -0.8484  -22.6559  -58.4406 H         1 UNK         0.0600 
    240 H240       -1.7651  -21.1631  -56.5624 H         1 UNK         0.3000 
    241 H241       -0.8866  -20.2457  -54.7755 H         1 UNK         0.0600 
    242 H242        1.0879  -21.0162  -56.9551 H         1 UNK         0.3800 
    243 H243        2.5535  -20.2360  -56.4209 H         1 UNK         0.3800 
    244 H244       -1.5166  -17.6123  -56.1946 H         1 UNK         0.0800 
    245 H245       -0.8569  -17.6427  -54.5899 H         1 UNK         0.0800 
    246 H246       -3.0828  -16.3657  -53.5732 H         1 UNK         0.0800 
    247 H247       -4.0999  -17.4745  -52.6912 H         1 UNK         0.0800 
@<TRIPOS>BOND
     1    1    2 1    
     2    1  127 1    
     3    1  128 1    
     4    1  129 1    
     5    2    3 2    
     6    2    4 am   BACKBONE|DICT|INTERRES
     7    4    5 1    
     8    4  130 1    
     9    5    6 1    
    10    5   65 1    
    11    5  131 1    
    12    6    7 1    
    13    6  132 1    
    14    6  133 1    
    15    7    8 1    
    16    8    9 1    
    17    8  134 1    
    18    8  135 1    
    19    9   10 ar   
    20    9   14 ar   
    21   10   11 ar   
    22   10  136 1    
    23   11   12 ar   
    24   11  126 1    
    25   12   13 ar   
    26   12  137 1    
    27   13   14 ar   
    28   13   15 1    
    29   14  138 1    
    30   15   16 1    
    31   15  139 1    
    32   15  140 1    
    33   16   17 1    
    34   17   18 1    
    35   17  141 1    
    36   17  142 1    
    37   18   19 1    
    38   18   67 1    
    39   18  143 1    
    40   19   20 am   BACKBONE|DICT|INTERRES
    41   19  144 1    
    42   20   21 2    
    43   20   22 1    
    44   22   23 1    
    45   22   24 1    
    46   22  145 1    
    47   23  146 1    
    48   23  147 1    
    49   23  148 1    
    50   24   25 am   BACKBONE|DICT|INTERRES
    51   24  149 1    
    52   25   26 2    
    53   25   27 1    
    54   27   28 1    
    55   27   29 1    
    56   27  150 1    
    57   28  151 1    
    58   28  152 1    
    59   28  153 1    
    60   29   30 am   BACKBONE|DICT|INTERRES
    61   29  154 1    
    62   30   31 2    
    63   30   32 1    
    64   32   33 1    
    65   32   34 1    
    66   32  155 1    
    67   33  156 1    
    68   33  157 1    
    69   33  158 1    
    70   34   35 am   BACKBONE|DICT|INTERRES
    71   34  159 1    
    72   35   36 2    
    73   35   37 1    
    74   37   38 1    
    75   37   39 1    
    76   37  160 1    
    77   38  161 1    
    78   38  162 1    
    79   38  163 1    
    80   39   40 am   BACKBONE|DICT|INTERRES
    81   39  164 1    
    82   40   41 2    
    83   40   42 1    
    84   42   43 1    
    85   42   44 1    
    86   42  165 1    
    87   43  166 1    
    88   43  167 1    
    89   43  168 1    
    90   44   45 am   BACKBONE|DICT|INTERRES
    91   44  169 1    
    92   45   46 2    
    93   45   47 1    
    94   47   48 1    
    95   47   49 1    
    96   47  170 1    
    97   48  171 1    
    98   48  172 1    
    99   48  173 1    
   100   49   50 am   BACKBONE|DICT|INTERRES
   101   49  174 1    
   102   50   51 2    
   103   50   52 1    
   104   52   53 1    
   105   52   54 1    
   106   52  175 1    
   107   53  176 1    
   108   53  177 1    
   109   53  178 1    
   110   54   55 am   BACKBONE|DICT|INTERRES
   111   54  179 1    
   112   55   56 2    
   113   55   57 1    
   114   57   58 1    
   115   57   59 1    
   116   57  180 1    
   117   58  181 1    
   118   58  182 1    
   119   58  183 1    
   120   59   60 am   BACKBONE|DICT|INTERRES
   121   59  184 1    
   122   60   61 2    
   123   60   62 1    
   124   62   63 1    
   125   62   64 1    
   126   62  185 1    
   127   63  186 1    
   128   63  187 1    
   129   63  188 1    
   130   64   65 am   BACKBONE|DICT|INTERRES
   131   64  189 1    
   132   65   66 2    
   133   67   68 2    
   134   67   69 am   BACKBONE|DICT|INTERRES
   135   69   70 1    
   136   69  190 1    
   137   70   71 1    
   138   70   72 1    
   139   70  191 1    
   140   71  192 1    
   141   71  193 1    
   142   71  194 1    
   143   72   73 2    
   144   72   74 am   BACKBONE|DICT|INTERRES
   145   74   75 1    
   146   74  195 1    
   147   75   76 1    
   148   75   77 1    
   149   75  196 1    
   150   76  197 1    
   151   76  198 1    
   152   76  199 1    
   153   77   78 2    
   154   77   79 am   BACKBONE|DICT|INTERRES
   155   79   80 1    
   156   79  200 1    
   157   80   81 1    
   158   80   82 1    
   159   80  201 1    
   160   81  202 1    
   161   81  203 1    
   162   81  204 1    
   163   82   83 2    
   164   82   84 am   BACKBONE|DICT|INTERRES
   165   84   85 1    
   166   84  205 1    
   167   85   86 1    
   168   85   87 1    
   169   85  206 1    
   170   86  207 1    
   171   86  208 1    
   172   86  209 1    
   173   87   88 2    
   174   87   89 am   BACKBONE|DICT|INTERRES
   175   89   90 1    
   176   89  210 1    
   177   90   91 1    
   178   90   92 1    
   179   90  211 1    
   180   91  212 1    
   181   91  213 1    
   182   91  214 1    
   183   92   93 2    
   184   92   94 am   BACKBONE|DICT|INTERRES
   185   94   95 1    
   186   94  215 1    
   187   95   96 1    
   188   95   97 1    
   189   95  216 1    
   190   96  217 1    
   191   96  218 1    
   192   96  219 1    
   193   97   98 2    
   194   97   99 am   BACKBONE|DICT|INTERRES
   195   99  100 1    
   196   99  220 1    
   197  100  101 1    
   198  100  102 1    
   199  100  221 1    
   200  101  222 1    
   201  101  223 1    
   202  101  224 1    
   203  102  103 2    
   204  102  104 am   BACKBONE|DICT|INTERRES
   205  104  105 1    
   206  104  225 1    
   207  105  106 1    
   208  105  107 1    
   209  105  226 1    
   210  106  227 1    
   211  106  228 1    
   212  106  229 1    
   213  107  108 2    
   214  107  109 am   BACKBONE|DICT|INTERRES
   215  109  110 1    
   216  109  230 1    
   217  110  111 1    
   218  110  112 1    
   219  110  231 1    
   220  111  232 1    
   221  111  233 1    
   222  111  234 1    
   223  112  113 2    
   224  112  114 am   BACKBONE|DICT|INTERRES
   225  114  115 1    
   226  114  235 1    
   227  115  116 1    
   228  115  117 1    
   229  115  236 1    
   230  116  237 1    
   231  116  238 1    
   232  116  239 1    
   233  117  118 2    
   234  117  119 am   BACKBONE|DICT|INTERRES
   235  119  120 1    
   236  119  240 1    
   237  120  121 1    
   238  120  124 1    
   239  120  241 1    
   240  121  122 am   BACKBONE|DICT|INTERRES
   241  121  123 2    
   242  122  242 1    
   243  122  243 1    
   244  124  125 1    
   245  124  244 1    
   246  124  245 1    
   247  125  126 1    
   248  126  246 1    
   249  126  247 1    
@<TRIPOS>SUBSTRUCTURE
     1 UNK         1 GROUP             0       ****    0 ROOT    
