@<TRIPOS>MOLECULE
3R540
247   249    1
SMALL
USER_CHARGES


@<TRIPOS>ATOM
      1 CA          5.2938  -18.4122  -46.6022 C.3       0 UNK        -0.1800 
      2 C           4.3405  -17.2297  -46.5318 C.2       0 UNK         0.5000 
      3 O           3.9300  -16.8371  -45.4405 O.2       0 UNK        -0.5000 
      4 N           4.0058  -16.6363  -47.6844 N.am      1 UNK        -0.5000 
      5 CA          3.1071  -15.4852  -47.8356 C.3       1 UNK         0.1400 
      6 C6          2.4004  -15.4947  -49.2190 C.3       23 UNK        -0.0398 
      7 S7          3.4445  -15.1856  -50.6934 S.3       23 UNK        -0.2404 
      8 C8          4.2458  -16.7850  -51.0600 C.3       23 UNK        -0.0205 
      9 C9          3.3072  -17.9862  -51.0715 C.ar      23 UNK        -0.0193 
     10 C10         2.1037  -17.9635  -51.7852 C.ar      23 UNK        -0.1150 
     11 C11         1.2521  -19.0778  -51.7942 C.ar      23 UNK        -0.0193 
     12 C12         1.6358  -20.2265  -51.0951 C.ar      23 UNK        -0.1150 
     13 C13         2.8493  -20.2728  -50.4036 C.ar      23 UNK        -0.0193 
     14 C14         3.6769  -19.1493  -50.3936 C.ar      23 UNK        -0.1150 
     15 C15         3.2848  -21.5489  -49.6989 C.3       23 UNK        -0.0205 
     16 S16         3.5311  -21.3322  -47.9057 S.3       23 UNK        -0.2404 
     17 C17         1.9223  -20.6825  -47.3401 C.3       23 UNK        -0.0398 
     18 CA          0.9387  -21.8033  -46.9266 C.3       11 UNK         0.1400 
     19 N           0.0098  -21.3762  -45.8795 N.am      11 UNK        -0.5000 
     20 C          -0.8219  -22.1956  -45.2203 C.2       10 UNK         0.5000 
     21 O          -0.8569  -23.4140  -45.3871 O.2       10 UNK        -0.5000 
     22 CA         -1.8184  -21.5415  -44.2487 C.3       10 UNK         0.1400 
     23 CB         -1.1516  -21.2432  -42.8981 C.3       10 UNK        -0.1800 
     24 N          -2.4066  -20.3194  -44.7961 N.am      10 UNK        -0.5000 
     25 C          -3.1800  -20.2788  -45.8915 C.2       9 UNK         0.5000 
     26 O          -3.5301  -21.2786  -46.5200 O.2       9 UNK        -0.5000 
     27 CA         -3.5986  -18.8866  -46.3895 C.3       9 UNK         0.1400 
     28 CB         -4.7797  -18.3522  -45.5657 C.3       9 UNK        -0.1800 
     29 N          -2.5019  -17.9209  -46.3554 N.am      9 UNK        -0.5000 
     30 C          -1.3844  -18.0055  -47.0900 C.2       8 UNK         0.5000 
     31 O          -1.1512  -18.9126  -47.8892 O.2       8 UNK        -0.5000 
     32 CA         -0.3160  -16.9240  -46.8450 C.3       8 UNK         0.1400 
     33 CB         -0.6956  -15.6022  -47.5273 C.3       8 UNK        -0.1800 
     34 N          -0.0766  -16.6783  -45.4239 N.am      8 UNK        -0.5000 
     35 C           0.3696  -17.5977  -44.5563 C.2       7 UNK         0.5000 
     36 O           0.6603  -18.7516  -44.8670 O.2       7 UNK        -0.5000 
     37 CA          0.4387  -17.1723  -43.0814 C.3       7 UNK         0.1400 
     38 CB          1.7046  -16.3478  -42.8047 C.3       7 UNK        -0.1800 
     39 N          -0.7480  -16.4143  -42.6847 N.am      7 UNK        -0.5000 
     40 C          -1.9774  -16.9408  -42.5811 C.2       6 UNK         0.5000 
     41 O          -2.2331  -18.1289  -42.7752 O.2       6 UNK        -0.5000 
     42 CA         -3.1196  -15.9646  -42.2470 C.3       6 UNK         0.1400 
     43 CB         -3.1843  -15.7001  -40.7354 C.3       6 UNK        -0.1800 
     44 N          -2.9948  -14.6923  -42.9593 N.am      6 UNK        -0.5000 
     45 C          -3.0845  -14.5597  -44.2904 C.2       5 UNK         0.5000 
     46 O          -3.3178  -15.4931  -45.0550 O.2       5 UNK        -0.5000 
     47 CA         -2.8230  -13.1586  -44.8689 C.3       5 UNK         0.1400 
     48 CB         -4.1229  -12.3425  -44.9185 C.3       5 UNK        -0.1800 
     49 N          -1.8060  -12.4109  -44.1268 N.am      5 UNK        -0.5000 
     50 C          -0.5202  -12.7710  -44.0271 C.2       4 UNK         0.5000 
     51 O          -0.0523  -13.7971  -44.5280 O.2       4 UNK        -0.5000 
     52 CA          0.3876  -11.8375  -43.2089 C.3       4 UNK         0.1400 
     53 CB          0.9552  -12.5614  -41.9783 C.3       4 UNK        -0.1800 
     54 N           1.4902  -11.3310  -44.0192 N.am      4 UNK        -0.5000 
     55 C           1.3728  -10.4832  -45.0470 C.2       3 UNK         0.5000 
     56 O           0.3019   -9.9828  -45.3936 O.2       3 UNK        -0.5000 
     57 CA          2.6532  -10.1260  -45.8283 C.3       3 UNK         0.1400 
     58 CB          3.3653   -8.9138  -45.1984 C.3       3 UNK        -0.1800 
     59 N           3.5860  -11.2410  -46.0446 N.am      3 UNK        -0.5000 
     60 C           4.3328  -11.9198  -45.1643 C.2       2 UNK         0.5000 
     61 O           4.2998  -11.7316  -43.9468 O.2       2 UNK        -0.5000 
     62 CA          5.2435  -13.0139  -45.7584 C.3       2 UNK         0.1400 
     63 CB          6.2422  -13.5744  -44.7300 C.3       2 UNK        -0.1800 
     64 N           4.4796  -14.1304  -46.3128 N.am      2 UNK        -0.5000 
     65 C           3.7756  -14.1402  -47.4514 C.2       1 UNK         0.5000 
     66 O           3.6553  -13.1469  -48.1709 O.2       1 UNK        -0.5000 
     67 C           0.1936  -22.3819  -48.1453 C.2       11 UNK         0.5000 
     68 O           0.5603  -23.4565  -48.6170 O.2       11 UNK        -0.5000 
     69 N          -0.8613  -21.6930  -48.6062 N.am      12 UNK        -0.5000 
     70 CA         -1.7295  -22.1430  -49.6960 C.3       12 UNK         0.1400 
     71 CB         -2.7657  -21.0571  -50.0195 C.3       12 UNK        -0.1800 
     72 C          -2.4103  -23.4906  -49.3929 C.2       12 UNK         0.5000 
     73 O          -2.3869  -24.3838  -50.2398 O.2       12 UNK        -0.5000 
     74 N          -2.9400  -23.6349  -48.1701 N.am      13 UNK        -0.5000 
     75 CA         -3.5210  -24.8779  -47.6643 C.3       13 UNK         0.1400 
     76 CB         -4.1860  -24.6188  -46.3045 C.3       13 UNK        -0.1800 
     77 C          -2.4954  -26.0257  -47.5750 C.2       13 UNK         0.5000 
     78 O          -2.7975  -27.1390  -48.0056 O.2       13 UNK        -0.5000 
     79 N          -1.2895  -25.7337  -47.0645 N.am      14 UNK        -0.5000 
     80 CA         -0.1666  -26.6744  -46.9797 C.3       14 UNK         0.1400 
     81 CB          0.9649  -26.0545  -46.1463 C.3       14 UNK        -0.1800 
     82 C           0.3570  -27.1237  -48.3583 C.2       14 UNK         0.5000 
     83 O           0.7496  -28.2805  -48.5128 O.2       14 UNK        -0.5000 
     84 N           0.3100  -26.2176  -49.3434 N.am      15 UNK        -0.5000 
     85 CA          0.6215  -26.4664  -50.7528 C.3       15 UNK         0.1400 
     86 CB          0.9212  -25.1217  -51.4374 C.3       15 UNK        -0.1800 
     87 C          -0.4848  -27.2368  -51.5088 C.2       15 UNK         0.5000 
     88 O          -0.3042  -27.5293  -52.6916 O.2       15 UNK        -0.5000 
     89 N          -1.5978  -27.5499  -50.8277 N.am      16 UNK        -0.5000 
     90 CA         -2.7805  -28.2675  -51.3124 C.3       16 UNK         0.1400 
     91 CB         -2.4229  -29.6891  -51.7961 C.3       16 UNK        -0.1800 
     92 C          -3.6164  -27.4688  -52.3335 C.2       16 UNK         0.5000 
     93 O          -4.3611  -28.0646  -53.1149 O.2       16 UNK        -0.5000 
     94 N          -3.5159  -26.1354  -52.2834 N.am      17 UNK        -0.5000 
     95 CA         -4.4297  -25.2085  -52.9436 C.3       17 UNK         0.1400 
     96 CB         -3.6398  -23.9595  -53.3771 C.3       17 UNK        -0.1800 
     97 C          -5.5683  -24.8389  -51.9735 C.2       17 UNK         0.5000 
     98 O          -5.5729  -25.2679  -50.8154 O.2       17 UNK        -0.5000 
     99 N          -6.5175  -24.0279  -52.4535 N.am      18 UNK        -0.5000 
    100 CA        -7.5243  -23.3852  -51.6105 C.3       18 UNK         0.1400 
    101 CB        -8.5884  -22.7332  -52.5068 C.3       18 UNK        -0.1800 
    102 C         -6.8654  -22.3251  -50.7109 C.2       18 UNK         0.5000 
    103 O         -5.9705  -21.6149  -51.1708 O.2       18 UNK        -0.5000 
    104 N         -7.3469  -22.1862  -49.4700 N.am      19 UNK        -0.5000 
    105 CA        -6.8390  -21.2116  -48.4953 C.3       19 UNK         0.1400 
    106 CB        -7.5007  -21.4746  -47.1344 C.3       19 UNK        -0.1800 
    107 C         -7.0299  -19.7394  -48.9228 C.2       19 UNK         0.5000 
    108 O         -6.3366  -18.8646  -48.4115 O.2       19 UNK        -0.5000 
    109 N         -7.9511  -19.4940  -49.8628 N.am      20 UNK        -0.5000 
    110 CA        -8.2077  -18.1898  -50.4691 C.3       20 UNK         0.1400 
    111 CB        -9.6684  -18.1642  -50.9495 C.3       20 UNK        -0.1800 
    112 C         -7.2515  -17.8461  -51.6325 C.2       20 UNK         0.5000 
    113 O         -7.3152  -16.7197  -52.1273 O.2       20 UNK        -0.5000 
    114 N         -6.4158  -18.7978  -52.0845 N.am      21 UNK        -0.5000 
    115 CA        -5.5442  -18.6362  -53.2553 C.3       21 UNK         0.1400 
    116 CB        -4.9464  -19.9936  -53.6572 C.3       21 UNK        -0.1800 
    117 C         -4.4272  -17.5924  -53.0666 C.2       21 UNK         0.5000 
    118 O         -4.0782  -16.9093  -54.0307 O.2       21 UNK        -0.5000 
    119 N         -3.9104  -17.4750  -51.8385 N.am      22 UNK        -0.5000 
    120 CA        -2.9331  -16.4623  -51.4190 C.3       22 UNK         0.1400 
    121 C         -3.3800  -15.8403  -50.0732 C.2       22 UNK         0.5000 
    122 N         -3.1447  -14.5513  -49.8691 N.am      22 UNK        -0.7600 
    123 O         -3.9112  -16.5192  -49.1998 O.2       22 UNK        -0.5000 
    124 C124       -1.4899  -17.0249  -51.3149 C.3       23 UNK        -0.0398 
    125 S125       -0.8020  -17.4852  -52.9406 S.3       23 UNK        -0.2404 
    126 C126       -0.0507  -19.1121  -52.5959 C.3       23 UNK        -0.0205 
    127 H127        6.2463  -18.1530  -46.1403 H         1 UNK         0.0600 
    128 H128        5.4846  -18.7206  -47.6298 H         1 UNK         0.0600 
    129 H129        4.8746  -19.2621  -46.0639 H         1 UNK         0.0600 
    130 H130        4.4023  -16.9800  -48.5455 H         1 UNK         0.3000 
    131 H131        2.3153  -15.6082  -47.0952 H         1 UNK         0.0600 
    132 H132        1.8649  -16.4351  -49.3501 H         1 UNK         0.0800 
    133 H133        1.6237  -14.7289  -49.2261 H         1 UNK         0.0800 
    134 H134        5.0601  -16.9346  -50.3504 H         1 UNK         0.0800 
    135 H135        4.7177  -16.7126  -52.0407 H         1 UNK         0.0800 
    136 H136        1.8427  -17.0729  -52.3377 H         1 UNK         0.1150 
    137 H137        0.9989  -21.0995  -51.1117 H         1 UNK         0.1150 
    138 H138        4.6189  -19.1932  -49.8659 H         1 UNK         0.1150 
    139 H139        2.5732  -22.3549  -49.8753 H         1 UNK         0.0800 
    140 H140        4.2255  -21.8840  -50.1376 H         1 UNK         0.0800 
    141 H141        1.4873  -19.9993  -48.0712 H         1 UNK         0.0800 
    142 H142        2.1570  -20.0629  -46.4752 H         1 UNK         0.0800 
    143 H143        1.5206  -22.6176  -46.4892 H         1 UNK         0.0600 
    144 H144        0.0119  -20.3872  -45.6447 H         1 UNK         0.3000 
    145 H145       -2.6290  -22.2526  -44.0767 H         1 UNK         0.0600 
    146 H146       -0.7138  -22.1462  -42.4708 H         1 UNK         0.0600 
    147 H147       -0.3550  -20.5053  -42.9949 H         1 UNK         0.0600 
    148 H148       -1.8753  -20.8609  -42.1782 H         1 UNK         0.0600 
    149 H149       -2.1981  -19.4552  -44.3062 H         1 UNK         0.3000 
    150 H150       -3.9150  -18.9868  -47.4290 H         1 UNK         0.0600 
    151 H151       -5.6077  -19.0612  -45.5628 H         1 UNK         0.0600 
    152 H152       -5.1556  -17.4189  -45.9854 H         1 UNK         0.0600 
    153 H153       -4.4991  -18.1664  -44.5286 H         1 UNK         0.0600 
    154 H154       -2.6411  -17.1049  -45.7653 H         1 UNK         0.3000 
    155 H155        0.6198  -17.2830  -47.2773 H         1 UNK         0.0600 
    156 H156       -1.6861  -15.2623  -47.2253 H         1 UNK         0.0600 
    157 H157        0.0110  -14.8072  -47.2900 H         1 UNK         0.0600 
    158 H158       -0.7074  -15.7178  -48.6096 H         1 UNK         0.0600 
    159 H159       -0.2666  -15.7419  -45.0814 H         1 UNK         0.3000 
    160 H160        0.4831  -18.0763  -42.4703 H         1 UNK         0.0600 
    161 H161        1.7655  -15.4683  -43.4460 H         1 UNK         0.0600 
    162 H162        2.5989  -16.9438  -42.9902 H         1 UNK         0.0600 
    163 H163        1.7451  -16.0156  -41.7674 H         1 UNK         0.0600 
    164 H164       -0.6326  -15.4197  -42.5627 H         1 UNK         0.3000 
    165 H165       -4.0576  -16.4331  -42.5525 H         1 UNK         0.0600 
    166 H166       -4.0386  -15.0724  -40.4814 H         1 UNK         0.0600 
    167 H167       -3.2921  -16.6334  -40.1810 H         1 UNK         0.0600 
    168 H168       -2.2832  -15.2045  -40.3721 H         1 UNK         0.0600 
    169 H169       -2.8032  -13.8715  -42.4045 H         1 UNK         0.3000 
    170 H170       -2.4621  -13.2863  -45.8915 H         1 UNK         0.0600 
    171 H171       -4.8925  -12.8691  -45.4847 H         1 UNK         0.0600 
    172 H172       -4.5203  -12.1548  -43.9202 H         1 UNK         0.0600 
    173 H173       -3.9658  -11.3795  -45.4048 H         1 UNK         0.0600 
    174 H174       -2.1065  -11.5464  -43.6999 H         1 UNK         0.3000 
    175 H175       -0.1981  -10.9846  -42.8596 H         1 UNK         0.0600 
    176 H176        1.6242  -13.3739  -42.2617 H         1 UNK         0.0600 
    177 H177        1.5185  -11.8751  -41.3458 H         1 UNK         0.0600 
    178 H178        0.1575  -12.9861  -41.3676 H         1 UNK         0.0600 
    179 H179        2.4212  -11.6764  -43.8051 H         1 UNK         0.3000 
    180 H180        2.3284   -9.8272  -46.8262 H         1 UNK         0.0600 
    181 H181        3.7074   -9.1220  -44.1844 H         1 UNK         0.0600 
    182 H182        2.6948   -8.0552  -45.1441 H         1 UNK         0.0600 
    183 H183        4.2302   -8.6132  -45.7899 H         1 UNK         0.0600 
    184 H184        3.6277  -11.5782  -47.0027 H         1 UNK         0.3000 
    185 H185        5.8200  -12.5552  -46.5644 H         1 UNK         0.0600 
    186 H186        6.8491  -12.7774  -44.2984 H         1 UNK         0.0600 
    187 H187        5.7335  -14.0833  -43.9101 H         1 UNK         0.0600 
    188 H188        6.9253  -14.2870  -45.1926 H         1 UNK         0.0600 
    189 H189        4.4703  -14.9855  -45.7648 H         1 UNK         0.3000 
    190 H190       -1.0808  -20.7904  -48.1915 H         1 UNK         0.3000 
    191 H191       -1.1018  -22.2821  -50.5781 H         1 UNK         0.0600 
    192 H192       -3.4524  -20.8886  -49.1904 H         1 UNK         0.0600 
    193 H193       -3.3609  -21.3425  -50.8859 H         1 UNK         0.0600 
    194 H194       -2.2880  -20.1063  -50.2506 H         1 UNK         0.0600 
    195 H195       -2.9447  -22.8371  -47.5405 H         1 UNK         0.3000 
    196 H196       -4.2990  -25.1855  -48.3657 H         1 UNK         0.0600 
    197 H197       -4.6514  -25.5262  -45.9180 H         1 UNK         0.0600 
    198 H198       -4.9660  -23.8615  -46.3871 H         1 UNK         0.0600 
    199 H199       -3.4658  -24.2754  -45.5617 H         1 UNK         0.0600 
    200 H200       -1.1280  -24.8030  -46.6884 H         1 UNK         0.3000 
    201 H201       -0.5212  -27.5654  -46.4576 H         1 UNK         0.0600 
    202 H202        0.6242  -25.8079  -45.1406 H         1 UNK         0.0600 
    203 H203        1.3477  -25.1419  -46.6032 H         1 UNK         0.0600 
    204 H204        1.8012  -26.7472  -46.0456 H         1 UNK         0.0600 
    205 H205        0.0488  -25.2643  -49.1059 H         1 UNK         0.3000 
    206 H206        1.5252  -27.0771  -50.8003 H         1 UNK         0.0600 
    207 H207        1.7398  -24.6007  -50.9407 H         1 UNK         0.0600 
    208 H208        1.2139  -25.2649  -52.4781 H         1 UNK         0.0600 
    209 H209        0.0522  -24.4637  -51.4288 H         1 UNK         0.0600 
    210 H210       -1.6611  -27.2359  -49.8668 H         1 UNK         0.3000 
    211 H211       -3.4253  -28.3812  -50.4401 H         1 UNK         0.0600 
    212 H212       -1.8566  -29.6725  -52.7275 H         1 UNK         0.0600 
    213 H213       -3.3231  -30.2780  -51.9751 H         1 UNK         0.0600 
    214 H214       -1.8317  -30.2221  -51.0515 H         1 UNK         0.0600 
    215 H215       -2.9442  -25.7208  -51.5521 H         1 UNK         0.3000 
    216 H216       -4.8657  -25.6720  -53.8308 H         1 UNK         0.0600 
    217 H217       -4.2555  -23.2916  -53.9801 H         1 UNK         0.0600 
    218 H218       -2.7731  -24.2307  -53.9802 H         1 UNK         0.0600 
    219 H219       -3.2844  -23.3857  -52.5213 H         1 UNK         0.0600 
    220 H220       -6.4422  -23.6890  -53.4010 H         1 UNK         0.3000 
    221 H221       -8.0023  -24.1439  -50.9872 H         1 UNK         0.0600 
    222 H222       -8.1600  -21.9578  -53.1438 H         1 UNK         0.0600 
    223 H223       -9.0666  -23.4707  -53.1516 H         1 UNK         0.0600 
    224 H224       -9.3734  -22.2692  -51.9083 H         1 UNK         0.0600 
    225 H225       -8.0921  -22.7918  -49.1569 H         1 UNK         0.3000 
    226 H226       -5.7651  -21.3786  -48.3867 H         1 UNK         0.0600 
    227 H227       -7.2940  -22.4862  -46.7847 H         1 UNK         0.0600 
    228 H228       -7.1215  -20.7890  -46.3762 H         1 UNK         0.0600 
    229 H229       -8.5828  -21.3471  -47.1817 H         1 UNK         0.0600 
    230 H230       -8.4799  -20.2729  -50.2250 H         1 UNK         0.3000 
    231 H231       -8.0870  -17.4136  -49.7104 H         1 UNK         0.0600 
    232 H232       -9.9276  -17.1915  -51.3696 H         1 UNK         0.0600 
    233 H233      -10.3579  -18.3530  -50.1264 H         1 UNK         0.0600 
    234 H234       -9.8514  -18.9139  -51.7205 H         1 UNK         0.0600 
    235 H235       -6.3910  -19.7042  -51.6282 H         1 UNK         0.3000 
    236 H236       -6.1707  -18.2943  -54.0819 H         1 UNK         0.0600 
    237 H237       -5.7264  -20.7321  -53.8429 H         1 UNK         0.0600 
    238 H238       -4.3580  -19.9050  -54.5713 H         1 UNK         0.0600 
    239 H239       -4.2870  -20.3870  -52.8838 H         1 UNK         0.0600 
    240 H240       -4.3053  -18.0234  -51.0865 H         1 UNK         0.3000 
    241 H241       -2.9278  -15.6512  -52.1501 H         1 UNK         0.0600 
    242 H242       -2.7147  -13.9692  -50.5710 H         1 UNK         0.3800 
    243 H243       -3.4356  -14.1407  -48.9967 H         1 UNK         0.3800 
    244 H244       -0.8168  -16.2764  -50.8949 H         1 UNK         0.0800 
    245 H245       -1.4578  -17.8775  -50.6347 H         1 UNK         0.0800 
    246 H246       -0.7879  -19.7394  -52.0937 H         1 UNK         0.0800 
    247 H247        0.1584  -19.5948  -53.5511 H         1 UNK         0.0800 
@<TRIPOS>BOND
     1    1    2 1    
     2    1  127 1    
     3    1  128 1    
     4    1  129 1    
     5    2    3 2    
     6    2    4 am   BACKBONE|DICT|INTERRES
     7    4    5 1    
     8    4  130 1    
     9    5    6 1    
    10    5   65 1    
    11    5  131 1    
    12    6    7 1    
    13    6  132 1    
    14    6  133 1    
    15    7    8 1    
    16    8    9 1    
    17    8  134 1    
    18    8  135 1    
    19    9   10 ar   
    20    9   14 ar   
    21   10   11 ar   
    22   10  136 1    
    23   11   12 ar   
    24   11  126 1    
    25   12   13 ar   
    26   12  137 1    
    27   13   14 ar   
    28   13   15 1    
    29   14  138 1    
    30   15   16 1    
    31   15  139 1    
    32   15  140 1    
    33   16   17 1    
    34   17   18 1    
    35   17  141 1    
    36   17  142 1    
    37   18   19 1    
    38   18   67 1    
    39   18  143 1    
    40   19   20 am   BACKBONE|DICT|INTERRES
    41   19  144 1    
    42   20   21 2    
    43   20   22 1    
    44   22   23 1    
    45   22   24 1    
    46   22  145 1    
    47   23  146 1    
    48   23  147 1    
    49   23  148 1    
    50   24   25 am   BACKBONE|DICT|INTERRES
    51   24  149 1    
    52   25   26 2    
    53   25   27 1    
    54   27   28 1    
    55   27   29 1    
    56   27  150 1    
    57   28  151 1    
    58   28  152 1    
    59   28  153 1    
    60   29   30 am   BACKBONE|DICT|INTERRES
    61   29  154 1    
    62   30   31 2    
    63   30   32 1    
    64   32   33 1    
    65   32   34 1    
    66   32  155 1    
    67   33  156 1    
    68   33  157 1    
    69   33  158 1    
    70   34   35 am   BACKBONE|DICT|INTERRES
    71   34  159 1    
    72   35   36 2    
    73   35   37 1    
    74   37   38 1    
    75   37   39 1    
    76   37  160 1    
    77   38  161 1    
    78   38  162 1    
    79   38  163 1    
    80   39   40 am   BACKBONE|DICT|INTERRES
    81   39  164 1    
    82   40   41 2    
    83   40   42 1    
    84   42   43 1    
    85   42   44 1    
    86   42  165 1    
    87   43  166 1    
    88   43  167 1    
    89   43  168 1    
    90   44   45 am   BACKBONE|DICT|INTERRES
    91   44  169 1    
    92   45   46 2    
    93   45   47 1    
    94   47   48 1    
    95   47   49 1    
    96   47  170 1    
    97   48  171 1    
    98   48  172 1    
    99   48  173 1    
   100   49   50 am   BACKBONE|DICT|INTERRES
   101   49  174 1    
   102   50   51 2    
   103   50   52 1    
   104   52   53 1    
   105   52   54 1    
   106   52  175 1    
   107   53  176 1    
   108   53  177 1    
   109   53  178 1    
   110   54   55 am   BACKBONE|DICT|INTERRES
   111   54  179 1    
   112   55   56 2    
   113   55   57 1    
   114   57   58 1    
   115   57   59 1    
   116   57  180 1    
   117   58  181 1    
   118   58  182 1    
   119   58  183 1    
   120   59   60 am   BACKBONE|DICT|INTERRES
   121   59  184 1    
   122   60   61 2    
   123   60   62 1    
   124   62   63 1    
   125   62   64 1    
   126   62  185 1    
   127   63  186 1    
   128   63  187 1    
   129   63  188 1    
   130   64   65 am   BACKBONE|DICT|INTERRES
   131   64  189 1    
   132   65   66 2    
   133   67   68 2    
   134   67   69 am   BACKBONE|DICT|INTERRES
   135   69   70 1    
   136   69  190 1    
   137   70   71 1    
   138   70   72 1    
   139   70  191 1    
   140   71  192 1    
   141   71  193 1    
   142   71  194 1    
   143   72   73 2    
   144   72   74 am   BACKBONE|DICT|INTERRES
   145   74   75 1    
   146   74  195 1    
   147   75   76 1    
   148   75   77 1    
   149   75  196 1    
   150   76  197 1    
   151   76  198 1    
   152   76  199 1    
   153   77   78 2    
   154   77   79 am   BACKBONE|DICT|INTERRES
   155   79   80 1    
   156   79  200 1    
   157   80   81 1    
   158   80   82 1    
   159   80  201 1    
   160   81  202 1    
   161   81  203 1    
   162   81  204 1    
   163   82   83 2    
   164   82   84 am   BACKBONE|DICT|INTERRES
   165   84   85 1    
   166   84  205 1    
   167   85   86 1    
   168   85   87 1    
   169   85  206 1    
   170   86  207 1    
   171   86  208 1    
   172   86  209 1    
   173   87   88 2    
   174   87   89 am   BACKBONE|DICT|INTERRES
   175   89   90 1    
   176   89  210 1    
   177   90   91 1    
   178   90   92 1    
   179   90  211 1    
   180   91  212 1    
   181   91  213 1    
   182   91  214 1    
   183   92   93 2    
   184   92   94 am   BACKBONE|DICT|INTERRES
   185   94   95 1    
   186   94  215 1    
   187   95   96 1    
   188   95   97 1    
   189   95  216 1    
   190   96  217 1    
   191   96  218 1    
   192   96  219 1    
   193   97   98 2    
   194   97   99 am   BACKBONE|DICT|INTERRES
   195   99  100 1    
   196   99  220 1    
   197  100  101 1    
   198  100  102 1    
   199  100  221 1    
   200  101  222 1    
   201  101  223 1    
   202  101  224 1    
   203  102  103 2    
   204  102  104 am   BACKBONE|DICT|INTERRES
   205  104  105 1    
   206  104  225 1    
   207  105  106 1    
   208  105  107 1    
   209  105  226 1    
   210  106  227 1    
   211  106  228 1    
   212  106  229 1    
   213  107  108 2    
   214  107  109 am   BACKBONE|DICT|INTERRES
   215  109  110 1    
   216  109  230 1    
   217  110  111 1    
   218  110  112 1    
   219  110  231 1    
   220  111  232 1    
   221  111  233 1    
   222  111  234 1    
   223  112  113 2    
   224  112  114 am   BACKBONE|DICT|INTERRES
   225  114  115 1    
   226  114  235 1    
   227  115  116 1    
   228  115  117 1    
   229  115  236 1    
   230  116  237 1    
   231  116  238 1    
   232  116  239 1    
   233  117  118 2    
   234  117  119 am   BACKBONE|DICT|INTERRES
   235  119  120 1    
   236  119  240 1    
   237  120  121 1    
   238  120  124 1    
   239  120  241 1    
   240  121  122 am   BACKBONE|DICT|INTERRES
   241  121  123 2    
   242  122  242 1    
   243  122  243 1    
   244  124  125 1    
   245  124  244 1    
   246  124  245 1    
   247  125  126 1    
   248  126  246 1    
   249  126  247 1    
@<TRIPOS>SUBSTRUCTURE
     1 UNK         1 GROUP             0       ****    0 ROOT    
