@<TRIPOS>MOLECULE
3R540
247   249    1
SMALL
USER_CHARGES


@<TRIPOS>ATOM
      1 CA         -2.7927  -19.5333  -47.3677 C.3       0 UNK        -0.1800 
      2 C          -3.0573  -18.0952  -47.7798 C.2       0 UNK         0.5000 
      3 O          -4.1511  -17.7855  -48.2477 O.2       0 UNK        -0.5000 
      4 N          -2.0673  -17.2167  -47.5979 N.am      1 UNK        -0.5000 
      5 CA         -2.1748  -15.7693  -47.7980 C.3       1 UNK         0.1400 
      6 C6         -0.9231  -15.1926  -48.5101 C.3       23 UNK        -0.0398 
      7 S7         -0.6949  -15.8996  -50.1768 S.3       23 UNK        -0.2404 
      8 C8          0.6328  -17.1149  -49.8877 C.3       23 UNK        -0.0205 
      9 C9          0.4727  -18.3531  -50.7591 C.ar      23 UNK        -0.0193 
     10 C10         1.3996  -18.6622  -51.7593 C.ar      23 UNK        -0.1150 
     11 C11         1.2799  -19.8386  -52.5106 C.ar      23 UNK        -0.0193 
     12 C12         0.2100  -20.7069  -52.2482 C.ar      23 UNK        -0.1150 
     13 C13        -0.7266  -20.4039  -51.2570 C.ar      23 UNK        -0.0193 
     14 C14        -0.5899  -19.2250  -50.5235 C.ar      23 UNK        -0.1150 
     15 C15        -1.8828  -21.3483  -50.9639 C.3       23 UNK        -0.0205 
     16 S16        -1.3696  -22.8399  -50.0524 S.3       23 UNK        -0.2404 
     17 C17        -0.4819  -22.1613  -48.6069 C.3       23 UNK        -0.0398 
     18 CA          1.0552  -22.3481  -48.6736 C.3       11 UNK         0.1400 
     19 N           1.7195  -21.4004  -47.7735 N.am      11 UNK        -0.5000 
     20 C           3.0101  -21.0471  -47.8465 C.2       10 UNK         0.5000 
     21 O           3.7694  -21.4187  -48.7414 O.2       10 UNK        -0.5000 
     22 CA          3.5576  -20.1579  -46.7103 C.3       10 UNK         0.1400 
     23 CB          3.6142  -18.6916  -47.1647 C.3       10 UNK        -0.1800 
     24 N           2.8031  -20.2472  -45.4539 N.am      10 UNK        -0.5000 
     25 C           2.6337  -21.3582  -44.7210 C.2       9 UNK         0.5000 
     26 O           3.0941  -22.4538  -45.0389 O.2       9 UNK        -0.5000 
     27 CA          1.7808  -21.2535  -43.4413 C.3       9 UNK         0.1400 
     28 CB          2.6824  -21.1791  -42.2004 C.3       9 UNK        -0.1800 
     29 N           0.8514  -20.1225  -43.4291 N.am      9 UNK        -0.5000 
     30 C          -0.1915  -19.9699  -44.2577 C.2       8 UNK         0.5000 
     31 O          -0.4817  -20.7698  -45.1483 O.2       8 UNK        -0.5000 
     32 CA         -1.0039  -18.6716  -44.0906 C.3       8 UNK         0.1400 
     33 CB         -1.9248  -18.7549  -42.8634 C.3       8 UNK        -0.1800 
     34 N          -0.1196  -17.5097  -43.9841 N.am      8 UNK        -0.5000 
     35 C           0.6291  -17.0420  -44.9936 C.2       7 UNK         0.5000 
     36 O           0.5018  -17.4316  -46.1548 O.2       7 UNK        -0.5000 
     37 CA          1.7347  -16.0224  -44.6515 C.3       7 UNK         0.1400 
     38 CB          1.2841  -14.5752  -44.8789 C.3       7 UNK        -0.1800 
     39 N           2.2011  -16.1526  -43.2731 N.am      7 UNK        -0.5000 
     40 C           3.0933  -17.0589  -42.8548 C.2       6 UNK         0.5000 
     41 O           3.6352  -17.8768  -43.5964 O.2       6 UNK        -0.5000 
     42 CA          3.4110  -17.0657  -41.3474 C.3       6 UNK         0.1400 
     43 CB          4.5712  -16.1082  -41.0376 C.3       6 UNK        -0.1800 
     44 N           2.2552  -16.7050  -40.5229 N.am      6 UNK        -0.5000 
     45 C           1.1520  -17.4562  -40.4025 C.2       5 UNK         0.5000 
     46 O           1.0075  -18.5456  -40.9563 O.2       5 UNK        -0.5000 
     47 CA         -0.0033  -16.8618  -39.5750 C.3       5 UNK         0.1400 
     48 CB          0.1862  -17.1709  -38.0827 C.3       5 UNK        -0.1800 
     49 N          -0.1683  -15.4149  -39.7580 N.am      5 UNK        -0.5000 
     50 C          -0.4816  -14.8313  -40.9216 C.2       4 UNK         0.5000 
     51 O          -0.6250  -15.4525  -41.9788 O.2       4 UNK        -0.5000 
     52 CA         -0.6245  -13.3030  -40.9182 C.3       4 UNK         0.1400 
     53 CB          0.7526  -12.6221  -40.9919 C.3       4 UNK        -0.1800 
     54 N          -1.4158  -12.9314  -42.0829 N.am      4 UNK        -0.5000 
     55 C          -2.2319  -11.8778  -42.2016 C.2       3 UNK         0.5000 
     56 O          -2.3592  -11.0096  -41.3375 O.2       3 UNK        -0.5000 
     57 CA         -3.0575  -11.7887  -43.5036 C.3       3 UNK         0.1400 
     58 CB         -2.3946  -10.8212  -44.4958 C.3       3 UNK        -0.1800 
     59 N          -3.2014  -13.0961  -44.1462 N.am      3 UNK        -0.5000 
     60 C          -4.0193  -14.0711  -43.7391 C.2       2 UNK         0.5000 
     61 O          -4.9110  -13.8941  -42.9075 O.2       2 UNK        -0.5000 
     62 CA         -3.7555  -15.4863  -44.3067 C.3       2 UNK         0.1400 
     63 CB         -4.8701  -16.4881  -43.9535 C.3       2 UNK        -0.1800 
     64 N          -3.4900  -15.5868  -45.7459 N.am      2 UNK        -0.5000 
     65 C          -2.4128  -15.1450  -46.4105 C.2       1 UNK         0.5000 
     66 O          -1.5959  -14.3575  -45.9382 O.2       1 UNK        -0.5000 
     67 C           1.4549  -23.8171  -48.3828 C.2       11 UNK         0.5000 
     68 O           1.1964  -24.6882  -49.2131 O.2       11 UNK        -0.5000 
     69 N           2.0237  -24.0864  -47.1955 N.am      12 UNK        -0.5000 
     70 CA          2.3667  -25.3875  -46.6013 C.3       12 UNK         0.1400 
     71 CB          3.3445  -26.1893  -47.4813 C.3       12 UNK        -0.1800 
     72 C           1.1329  -26.2241  -46.2097 C.2       12 UNK         0.5000 
     73 O           1.0707  -26.7277  -45.0881 O.2       12 UNK        -0.5000 
     74 N           0.1566  -26.3209  -47.1193 N.am      13 UNK        -0.5000 
     75 CA         -1.1466  -26.9508  -46.9064 C.3       13 UNK         0.1400 
     76 CB         -1.7670  -27.2605  -48.2780 C.3       13 UNK        -0.1800 
     77 C          -2.1106  -26.0804  -46.0749 C.2       13 UNK         0.5000 
     78 O          -3.0800  -26.6135  -45.5346 O.2       13 UNK        -0.5000 
     79 N          -1.8388  -24.7652  -46.0099 N.am      14 UNK        -0.5000 
     80 CA         -2.6423  -23.7166  -45.3648 C.3       14 UNK         0.1400 
     81 CB         -2.5936  -23.8573  -43.8302 C.3       14 UNK        -0.1800 
     82 C          -4.0777  -23.6503  -45.9314 C.2       14 UNK         0.5000 
     83 O          -5.0508  -23.5990  -45.1783 O.2       14 UNK        -0.5000 
     84 N          -4.1711  -23.6849  -47.2686 N.am      15 UNK        -0.5000 
     85 CA         -5.4140  -23.8263  -48.0325 C.3       15 UNK         0.1400 
     86 CB         -5.0459  -24.1703  -49.4856 C.3       15 UNK        -0.1800 
     87 C          -6.3512  -22.6015  -47.9997 C.2       15 UNK         0.5000 
     88 O          -7.5059  -22.7289  -48.4077 O.2       15 UNK        -0.5000 
     89 N          -5.8372  -21.4422  -47.5576 N.am      16 UNK        -0.5000 
     90 CA         -6.5048  -20.1304  -47.5301 C.3       16 UNK         0.1400 
     91 CB         -7.7101  -20.1398  -46.5667 C.3       16 UNK        -0.1800 
     92 C          -6.8631  -19.6073  -48.9416 C.2       16 UNK         0.5000 
     93 O          -7.8404  -18.8752  -49.1057 O.2       16 UNK        -0.5000 
     94 N          -6.0688  -20.0160  -49.9412 N.am      17 UNK        -0.5000 
     95 CA         -6.3129  -19.7748  -51.3628 C.3       17 UNK         0.1400 
     96 CB         -5.6533  -20.9072  -52.1682 C.3       17 UNK        -0.1800 
     97 C          -5.8213  -18.4047  -51.8658 C.2       17 UNK         0.5000 
     98 O          -6.0928  -18.0759  -53.0196 O.2       17 UNK        -0.5000 
     99 N          -5.0831  -17.6469  -51.0385 N.am      18 UNK        -0.5000 
    100 CA        -4.5110  -16.3274  -51.3448 C.3       18 UNK         0.1400 
    101 CB        -5.6223  -15.2596  -51.3990 C.3       18 UNK        -0.1800 
    102 C         -3.6112  -16.3328  -52.6013 C.2       18 UNK         0.5000 
    103 O         -3.7227  -15.4528  -53.4563 O.2       18 UNK        -0.5000 
    104 N         -2.7592  -17.3640  -52.6871 N.am      19 UNK        -0.5000 
    105 CA        -1.7988  -17.6600  -53.7553 C.3       19 UNK         0.1400 
    106 CB        -0.7842  -16.5148  -53.9571 C.3       19 UNK        -0.1800 
    107 C         -2.4223  -18.1179  -55.0877 C.2       19 UNK         0.5000 
    108 O         -1.6743  -18.3115  -56.0456 O.2       19 UNK        -0.5000 
    109 N         -3.7446  -18.3504  -55.1432 N.am      20 UNK        -0.5000 
    110 CA        -4.4374  -18.8416  -56.3428 C.3       20 UNK         0.1400 
    111 CB        -5.9554  -18.8302  -56.1161 C.3       20 UNK        -0.1800 
    112 C         -3.9685  -20.2422  -56.7839 C.2       20 UNK         0.5000 
    113 O         -3.8969  -20.5117  -57.9834 O.2       20 UNK        -0.5000 
    114 N         -3.5915  -21.0825  -55.8087 N.am      21 UNK        -0.5000 
    115 CA        -2.9918  -22.4040  -56.0184 C.3       21 UNK         0.1400 
    116 CB        -2.9117  -23.1317  -54.6677 C.3       21 UNK        -0.1800 
    117 C         -1.5966  -22.3496  -56.6777 C.2       21 UNK         0.5000 
    118 O         -1.1814  -23.3321  -57.2933 O.2       21 UNK        -0.5000 
    119 N         -0.9140  -21.2060  -56.5471 N.am      22 UNK        -0.5000 
    120 CA         0.3754  -20.8946  -57.1786 C.3       22 UNK         0.1400 
    121 C          0.2260  -20.0968  -58.5095 C.2       22 UNK         0.5000 
    122 N         -0.9757  -19.8579  -59.0244 N.am      22 UNK        -0.7600 
    123 O          1.2245  -19.7070  -59.1090 O.2       22 UNK        -0.5000 
    124 C124        1.3295  -20.1893  -56.1771 C.3       23 UNK        -0.0398 
    125 S125        1.8815  -21.3262  -54.8613 S.3       23 UNK        -0.2404 
    126 C126        2.3689  -20.1706  -53.5324 C.3       23 UNK        -0.0205 
    127 H127       -3.0864  -20.2193  -48.1601 H         1 UNK         0.0600 
    128 H128       -1.7370  -19.6851  -47.1527 H         1 UNK         0.0600 
    129 H129       -3.3591  -19.7776  -46.4694 H         1 UNK         0.0600 
    130 H130       -1.1885  -17.5141  -47.1828 H         1 UNK         0.3000 
    131 H131       -3.0474  -15.5254  -48.4057 H         1 UNK         0.0600 
    132 H132       -0.0218  -15.3554  -47.9178 H         1 UNK         0.0800 
    133 H133       -1.0194  -14.1114  -48.6220 H         1 UNK         0.0800 
    134 H134        0.6295  -17.4332  -48.8450 H         1 UNK         0.0800 
    135 H135        1.5980  -16.6367  -50.0594 H         1 UNK         0.0800 
    136 H136        2.2336  -17.9974  -51.9355 H         1 UNK         0.1150 
    137 H137        0.1087  -21.6342  -52.7931 H         1 UNK         0.1150 
    138 H138       -1.3023  -18.9872  -49.7513 H         1 UNK         0.1150 
    139 H139       -2.6654  -20.8376  -50.4033 H         1 UNK         0.0800 
    140 H140       -2.3379  -21.6582  -51.9033 H         1 UNK         0.0800 
    141 H141       -0.8923  -22.5973  -47.6970 H         1 UNK         0.0800 
    142 H142       -0.7107  -21.1013  -48.5421 H         1 UNK         0.0800 
    143 H143        1.3823  -22.1188  -49.6904 H         1 UNK         0.0600 
    144 H144        1.1716  -21.0463  -47.0003 H         1 UNK         0.3000 
    145 H145        4.5765  -20.4893  -46.5009 H         1 UNK         0.0600 
    146 H146        4.0385  -18.0519  -46.3909 H         1 UNK         0.0600 
    147 H147        4.2378  -18.5828  -48.0529 H         1 UNK         0.0600 
    148 H148        2.6246  -18.3105  -47.4154 H         1 UNK         0.0600 
    149 H149        2.4309  -19.3815  -45.0897 H         1 UNK         0.3000 
    150 H150        1.1870  -22.1675  -43.3747 H         1 UNK         0.0600 
    151 H151        3.3571  -22.0349  -42.1542 H         1 UNK         0.0600 
    152 H152        2.0931  -21.1804  -41.2832 H         1 UNK         0.0600 
    153 H153        3.2953  -20.2778  -42.2038 H         1 UNK         0.0600 
    154 H154        0.9895  -19.4373  -42.6916 H         1 UNK         0.3000 
    155 H155       -1.6330  -18.5392  -44.9706 H         1 UNK         0.0600 
    156 H156       -1.3736  -18.9815  -41.9515 H         1 UNK         0.0600 
    157 H157       -2.6708  -19.5396  -42.9943 H         1 UNK         0.0600 
    158 H158       -2.4602  -17.8216  -42.6980 H         1 UNK         0.0600 
    159 H159       -0.0326  -17.0748  -43.0729 H         1 UNK         0.3000 
    160 H160        2.5721  -16.2154  -45.3252 H         1 UNK         0.0600 
    161 H161        2.0848  -13.8726  -44.6480 H         1 UNK         0.0600 
    162 H162        0.4262  -14.3166  -44.2584 H         1 UNK         0.0600 
    163 H163        1.0093  -14.4133  -45.9208 H         1 UNK         0.0600 
    164 H164        1.7672  -15.5491  -42.5907 H         1 UNK         0.3000 
    165 H165        3.7209  -18.0772  -41.0767 H         1 UNK         0.0600 
    166 H166        4.8543  -16.1588  -39.9861 H         1 UNK         0.0600 
    167 H167        5.4551  -16.3642  -41.6235 H         1 UNK         0.0600 
    168 H168        4.3132  -15.0736  -41.2674 H         1 UNK         0.0600 
    169 H169        2.2953  -15.8218  -40.0359 H         1 UNK         0.3000 
    170 H170       -0.9244  -17.3454  -39.9074 H         1 UNK         0.0600 
    171 H171        0.2934  -18.2438  -37.9169 H         1 UNK         0.0600 
    172 H172        1.0759  -16.6857  -37.6794 H         1 UNK         0.0600 
    173 H173       -0.6722  -16.8380  -37.4990 H         1 UNK         0.0600 
    174 H174       -0.0574  -14.8413  -38.9341 H         1 UNK         0.3000 
    175 H175       -1.1442  -13.0019  -40.0063 H         1 UNK         0.0600 
    176 H176        1.2965  -12.9113  -41.8922 H         1 UNK         0.0600 
    177 H177        0.6545  -11.5364  -40.9968 H         1 UNK         0.0600 
    178 H178        1.3701  -12.8871  -40.1330 H         1 UNK         0.0600 
    179 H179       -1.4057  -13.6276  -42.8171 H         1 UNK         0.3000 
    180 H180       -4.0473  -11.4031  -43.2508 H         1 UNK         0.0600 
    181 H181       -1.4020  -11.1652  -44.7899 H         1 UNK         0.0600 
    182 H182       -2.2835   -9.8280  -44.0589 H         1 UNK         0.0600 
    183 H183       -2.9935  -10.7136  -45.4003 H         1 UNK         0.0600 
    184 H184       -2.5015  -13.3460  -44.8443 H         1 UNK         0.3000 
    185 H185       -2.8480  -15.8247  -43.8039 H         1 UNK         0.0600 
    186 H186       -5.0332  -16.5358  -42.8760 H         1 UNK         0.0600 
    187 H187       -5.8169  -16.2130  -44.4196 H         1 UNK         0.0600 
    188 H188       -4.6147  -17.4963  -44.2811 H         1 UNK         0.0600 
    189 H189       -4.1149  -16.1974  -46.2535 H         1 UNK         0.3000 
    190 H190        2.2309  -23.3025  -46.5840 H         1 UNK         0.3000 
    191 H191        2.8900  -25.1528  -45.6731 H         1 UNK         0.0600 
    192 H192        2.8873  -26.5174  -48.4148 H         1 UNK         0.0600 
    193 H193        3.6882  -27.0832  -46.9595 H         1 UNK         0.0600 
    194 H194        4.2261  -25.5979  -47.7285 H         1 UNK         0.0600 
    195 H195        0.3212  -25.8887  -48.0250 H         1 UNK         0.3000 
    196 H196       -1.0000  -27.8915  -46.3715 H         1 UNK         0.0600 
    197 H197       -2.7351  -27.7515  -48.1694 H         1 UNK         0.0600 
    198 H198       -1.1287  -27.9276  -48.8576 H         1 UNK         0.0600 
    199 H199       -1.9225  -26.3530  -48.8636 H         1 UNK         0.0600 
    200 H200       -0.9974  -24.4563  -46.4708 H         1 UNK         0.3000 
    201 H201       -2.1757  -22.7643  -45.6168 H         1 UNK         0.0600 
    202 H202       -1.5649  -23.8628  -43.4697 H         1 UNK         0.0600 
    203 H203       -3.0739  -24.7754  -43.4905 H         1 UNK         0.0600 
    204 H204       -3.1011  -23.0223  -43.3456 H         1 UNK         0.0600 
    205 H205       -3.3182  -23.7422  -47.8050 H         1 UNK         0.3000 
    206 H206       -5.9700  -24.6672  -47.6128 H         1 UNK         0.0600 
    207 H207       -4.4431  -25.0774  -49.5374 H         1 UNK         0.0600 
    208 H208       -5.9391  -24.3427  -50.0875 H         1 UNK         0.0600 
    209 H209       -4.4830  -23.3658  -49.9602 H         1 UNK         0.0600 
    210 H210       -4.8865  -21.4627  -47.2220 H         1 UNK         0.3000 
    211 H211       -5.7831  -19.4281  -47.1168 H         1 UNK         0.0600 
    212 H212       -8.5295  -20.7518  -46.9442 H         1 UNK         0.0600 
    213 H213       -8.0988  -19.1316  -46.4190 H         1 UNK         0.0600 
    214 H214       -7.4278  -20.5240  -45.5865 H         1 UNK         0.0600 
    215 H215       -5.2926  -20.6159  -49.7116 H         1 UNK         0.3000 
    216 H216       -7.3888  -19.8171  -51.5447 H         1 UNK         0.0600 
    217 H217       -5.8986  -20.8295  -53.2278 H         1 UNK         0.0600 
    218 H218       -5.9963  -21.8857  -51.8311 H         1 UNK         0.0600 
    219 H219       -4.5684  -20.8822  -52.0825 H         1 UNK         0.0600 
    220 H220       -4.9159  -17.9780  -50.0933 H         1 UNK         0.3000 
    221 H221       -3.8568  -16.0760  -50.5110 H         1 UNK         0.0600 
    222 H222       -5.2000  -14.2606  -51.5133 H         1 UNK         0.0600 
    223 H223       -6.3029  -15.4260  -52.2346 H         1 UNK         0.0600 
    224 H224       -6.2111  -15.2595  -50.4818 H         1 UNK         0.0600 
    225 H225       -2.7625  -18.0240  -51.9237 H         1 UNK         0.3000 
    226 H226       -1.2334  -18.5210  -53.4031 H         1 UNK         0.0600 
    227 H227       -0.2989  -16.2448  -53.0212 H         1 UNK         0.0600 
    228 H228        0.0070  -16.8103  -54.6471 H         1 UNK         0.0600 
    229 H229       -1.2525  -15.6196  -54.3657 H         1 UNK         0.0600 
    230 H230       -4.3209  -18.1501  -54.3344 H         1 UNK         0.3000 
    231 H231       -4.2136  -18.1498  -57.1576 H         1 UNK         0.0600 
    232 H232       -6.3069  -17.8344  -55.8454 H         1 UNK         0.0600 
    233 H233       -6.2503  -19.5183  -55.3235 H         1 UNK         0.0600 
    234 H234       -6.4868  -19.1273  -57.0211 H         1 UNK         0.0600 
    235 H235       -3.6792  -20.7711  -54.8536 H         1 UNK         0.3000 
    236 H236       -3.6506  -22.9714  -56.6790 H         1 UNK         0.0600 
    237 H237       -2.5695  -24.1589  -54.8002 H         1 UNK         0.0600 
    238 H238       -2.2105  -22.6416  -53.9926 H         1 UNK         0.0600 
    239 H239       -3.8843  -23.1743  -54.1769 H         1 UNK         0.0600 
    240 H240       -1.3564  -20.4240  -56.0824 H         1 UNK         0.3000 
    241 H241        0.8560  -21.8282  -57.4765 H         1 UNK         0.0600 
    242 H242       -1.0468  -19.3469  -59.8899 H         1 UNK         0.3800 
    243 H243       -1.8172  -20.1724  -58.5603 H         1 UNK         0.3800 
    244 H244        2.2264  -19.8220  -56.6783 H         1 UNK         0.0800 
    245 H245        0.8459  -19.3178  -55.7331 H         1 UNK         0.0800 
    246 H246        2.7552  -19.2544  -53.9818 H         1 UNK         0.0800 
    247 H247        3.2027  -20.6177  -52.9899 H         1 UNK         0.0800 
@<TRIPOS>BOND
     1    1    2 1    
     2    1  127 1    
     3    1  128 1    
     4    1  129 1    
     5    2    3 2    
     6    2    4 am   BACKBONE|DICT|INTERRES
     7    4    5 1    
     8    4  130 1    
     9    5    6 1    
    10    5   65 1    
    11    5  131 1    
    12    6    7 1    
    13    6  132 1    
    14    6  133 1    
    15    7    8 1    
    16    8    9 1    
    17    8  134 1    
    18    8  135 1    
    19    9   10 ar   
    20    9   14 ar   
    21   10   11 ar   
    22   10  136 1    
    23   11   12 ar   
    24   11  126 1    
    25   12   13 ar   
    26   12  137 1    
    27   13   14 ar   
    28   13   15 1    
    29   14  138 1    
    30   15   16 1    
    31   15  139 1    
    32   15  140 1    
    33   16   17 1    
    34   17   18 1    
    35   17  141 1    
    36   17  142 1    
    37   18   19 1    
    38   18   67 1    
    39   18  143 1    
    40   19   20 am   BACKBONE|DICT|INTERRES
    41   19  144 1    
    42   20   21 2    
    43   20   22 1    
    44   22   23 1    
    45   22   24 1    
    46   22  145 1    
    47   23  146 1    
    48   23  147 1    
    49   23  148 1    
    50   24   25 am   BACKBONE|DICT|INTERRES
    51   24  149 1    
    52   25   26 2    
    53   25   27 1    
    54   27   28 1    
    55   27   29 1    
    56   27  150 1    
    57   28  151 1    
    58   28  152 1    
    59   28  153 1    
    60   29   30 am   BACKBONE|DICT|INTERRES
    61   29  154 1    
    62   30   31 2    
    63   30   32 1    
    64   32   33 1    
    65   32   34 1    
    66   32  155 1    
    67   33  156 1    
    68   33  157 1    
    69   33  158 1    
    70   34   35 am   BACKBONE|DICT|INTERRES
    71   34  159 1    
    72   35   36 2    
    73   35   37 1    
    74   37   38 1    
    75   37   39 1    
    76   37  160 1    
    77   38  161 1    
    78   38  162 1    
    79   38  163 1    
    80   39   40 am   BACKBONE|DICT|INTERRES
    81   39  164 1    
    82   40   41 2    
    83   40   42 1    
    84   42   43 1    
    85   42   44 1    
    86   42  165 1    
    87   43  166 1    
    88   43  167 1    
    89   43  168 1    
    90   44   45 am   BACKBONE|DICT|INTERRES
    91   44  169 1    
    92   45   46 2    
    93   45   47 1    
    94   47   48 1    
    95   47   49 1    
    96   47  170 1    
    97   48  171 1    
    98   48  172 1    
    99   48  173 1    
   100   49   50 am   BACKBONE|DICT|INTERRES
   101   49  174 1    
   102   50   51 2    
   103   50   52 1    
   104   52   53 1    
   105   52   54 1    
   106   52  175 1    
   107   53  176 1    
   108   53  177 1    
   109   53  178 1    
   110   54   55 am   BACKBONE|DICT|INTERRES
   111   54  179 1    
   112   55   56 2    
   113   55   57 1    
   114   57   58 1    
   115   57   59 1    
   116   57  180 1    
   117   58  181 1    
   118   58  182 1    
   119   58  183 1    
   120   59   60 am   BACKBONE|DICT|INTERRES
   121   59  184 1    
   122   60   61 2    
   123   60   62 1    
   124   62   63 1    
   125   62   64 1    
   126   62  185 1    
   127   63  186 1    
   128   63  187 1    
   129   63  188 1    
   130   64   65 am   BACKBONE|DICT|INTERRES
   131   64  189 1    
   132   65   66 2    
   133   67   68 2    
   134   67   69 am   BACKBONE|DICT|INTERRES
   135   69   70 1    
   136   69  190 1    
   137   70   71 1    
   138   70   72 1    
   139   70  191 1    
   140   71  192 1    
   141   71  193 1    
   142   71  194 1    
   143   72   73 2    
   144   72   74 am   BACKBONE|DICT|INTERRES
   145   74   75 1    
   146   74  195 1    
   147   75   76 1    
   148   75   77 1    
   149   75  196 1    
   150   76  197 1    
   151   76  198 1    
   152   76  199 1    
   153   77   78 2    
   154   77   79 am   BACKBONE|DICT|INTERRES
   155   79   80 1    
   156   79  200 1    
   157   80   81 1    
   158   80   82 1    
   159   80  201 1    
   160   81  202 1    
   161   81  203 1    
   162   81  204 1    
   163   82   83 2    
   164   82   84 am   BACKBONE|DICT|INTERRES
   165   84   85 1    
   166   84  205 1    
   167   85   86 1    
   168   85   87 1    
   169   85  206 1    
   170   86  207 1    
   171   86  208 1    
   172   86  209 1    
   173   87   88 2    
   174   87   89 am   BACKBONE|DICT|INTERRES
   175   89   90 1    
   176   89  210 1    
   177   90   91 1    
   178   90   92 1    
   179   90  211 1    
   180   91  212 1    
   181   91  213 1    
   182   91  214 1    
   183   92   93 2    
   184   92   94 am   BACKBONE|DICT|INTERRES
   185   94   95 1    
   186   94  215 1    
   187   95   96 1    
   188   95   97 1    
   189   95  216 1    
   190   96  217 1    
   191   96  218 1    
   192   96  219 1    
   193   97   98 2    
   194   97   99 am   BACKBONE|DICT|INTERRES
   195   99  100 1    
   196   99  220 1    
   197  100  101 1    
   198  100  102 1    
   199  100  221 1    
   200  101  222 1    
   201  101  223 1    
   202  101  224 1    
   203  102  103 2    
   204  102  104 am   BACKBONE|DICT|INTERRES
   205  104  105 1    
   206  104  225 1    
   207  105  106 1    
   208  105  107 1    
   209  105  226 1    
   210  106  227 1    
   211  106  228 1    
   212  106  229 1    
   213  107  108 2    
   214  107  109 am   BACKBONE|DICT|INTERRES
   215  109  110 1    
   216  109  230 1    
   217  110  111 1    
   218  110  112 1    
   219  110  231 1    
   220  111  232 1    
   221  111  233 1    
   222  111  234 1    
   223  112  113 2    
   224  112  114 am   BACKBONE|DICT|INTERRES
   225  114  115 1    
   226  114  235 1    
   227  115  116 1    
   228  115  117 1    
   229  115  236 1    
   230  116  237 1    
   231  116  238 1    
   232  116  239 1    
   233  117  118 2    
   234  117  119 am   BACKBONE|DICT|INTERRES
   235  119  120 1    
   236  119  240 1    
   237  120  121 1    
   238  120  124 1    
   239  120  241 1    
   240  121  122 am   BACKBONE|DICT|INTERRES
   241  121  123 2    
   242  122  242 1    
   243  122  243 1    
   244  124  125 1    
   245  124  244 1    
   246  124  245 1    
   247  125  126 1    
   248  126  246 1    
   249  126  247 1    
@<TRIPOS>SUBSTRUCTURE
     1 UNK         1 GROUP             0       ****    0 ROOT    
