@<TRIPOS>MOLECULE
3R540
247   249    1
SMALL
USER_CHARGES


@<TRIPOS>ATOM
      1 CA         -2.1771   -9.0399  -46.5584 C.3       0 UNK        -0.1800 
      2 C          -1.6191  -10.4544  -46.5886 C.2       0 UNK         0.5000 
      3 O          -1.1651  -10.9538  -45.5590 O.2       0 UNK        -0.5000 
      4 N          -1.6661  -11.1108  -47.7573 N.am      1 UNK        -0.5000 
      5 CA         -1.1524  -12.4674  -48.0095 C.3       1 UNK         0.1400 
      6 C6         -1.3291  -12.8704  -49.4980 C.3       23 UNK        -0.0398 
      7 S7          0.0354  -13.9069  -50.1125 S.3       23 UNK        -0.2404 
      8 C8         -0.7241  -15.5611  -50.1206 C.3       23 UNK        -0.0205 
      9 C9          0.2991  -16.6155  -50.5122 C.ar      23 UNK        -0.0193 
     10 C10         0.6896  -16.7461  -51.8472 C.ar      23 UNK        -0.1150 
     11 C11         1.6587  -17.6822  -52.2180 C.ar      23 UNK        -0.0193 
     12 C12         2.2348  -18.4989  -51.2401 C.ar      23 UNK        -0.1150 
     13 C13         1.8511  -18.3797  -49.8999 C.ar      23 UNK        -0.0193 
     14 C14         0.8768  -17.4418  -49.5440 C.ar      23 UNK        -0.1150 
     15 C15         2.5196  -19.2369  -48.8347 C.3       23 UNK        -0.0205 
     16 S16         1.6799  -20.8332  -48.6048 S.3       23 UNK        -0.2404 
     17 C17         0.2546  -20.3527  -47.5733 C.3       23 UNK        -0.0398 
     18 CA         -0.6392  -21.5697  -47.2466 C.3       11 UNK         0.1400 
     19 N           0.0634  -22.5979  -46.4780 N.am      11 UNK        -0.5000 
     20 C          -0.3576  -23.8634  -46.3484 C.2       10 UNK         0.5000 
     21 O          -1.3820  -24.3004  -46.8709 O.2       10 UNK        -0.5000 
     22 CA          0.4788  -24.7671  -45.4251 C.3       10 UNK         0.1400 
     23 CB          1.6945  -25.3334  -46.1728 C.3       10 UNK        -0.1800 
     24 N           0.9314  -24.0565  -44.2279 N.am      10 UNK        -0.5000 
     25 C           0.1210  -23.5374  -43.2981 C.2       9 UNK         0.5000 
     26 O          -1.1040  -23.6616  -43.3236 O.2       9 UNK        -0.5000 
     27 CA          0.7686  -22.6802  -42.1982 C.3       9 UNK         0.1400 
     28 CB          1.3369  -23.5494  -41.0612 C.3       9 UNK        -0.1800 
     29 N           1.7530  -21.7116  -42.7004 N.am      9 UNK        -0.5000 
     30 C           2.9895  -21.9191  -43.1826 C.2       8 UNK         0.5000 
     31 O           3.4730  -23.0396  -43.3475 O.2       8 UNK        -0.5000 
     32 CA          3.8252  -20.6788  -43.5796 C.3       8 UNK         0.1400 
     33 CB          3.9507  -20.5961  -45.1097 C.3       8 UNK        -0.1800 
     34 N           3.2853  -19.4077  -43.0891 N.am      8 UNK        -0.5000 
     35 C           3.1694  -19.0498  -41.8000 C.2       7 UNK         0.5000 
     36 O           3.6675  -19.6897  -40.8734 O.2       7 UNK        -0.5000 
     37 CA          2.3121  -17.8029  -41.4778 C.3       7 UNK         0.1400 
     38 CB          3.2100  -16.6233  -41.0768 C.3       7 UNK        -0.1800 
     39 N           1.4254  -17.3698  -42.5635 N.am      7 UNK        -0.5000 
     40 C           0.4906  -18.1144  -43.1739 C.2       6 UNK         0.5000 
     41 O           0.2052  -19.2597  -42.8265 O.2       6 UNK        -0.5000 
     42 CA         -0.1723  -17.5257  -44.4368 C.3       6 UNK         0.1400 
     43 CB         -1.5751  -17.0023  -44.1197 C.3       6 UNK        -0.1800 
     44 N           0.5947  -16.4557  -45.0805 N.am      6 UNK        -0.5000 
     45 C           1.8521  -16.5522  -45.5364 C.2       5 UNK         0.5000 
     46 O           2.5059  -17.5950  -45.5096 O.2       5 UNK        -0.5000 
     47 CA          2.5040  -15.2561  -46.0452 C.3       5 UNK         0.1400 
     48 CB          2.3460  -15.1187  -47.5609 C.3       5 UNK        -0.1800 
     49 N           1.9441  -14.0692  -45.3951 N.am      5 UNK        -0.5000 
     50 C           2.3552  -13.6120  -44.2060 C.2       4 UNK         0.5000 
     51 O           3.2239  -14.1583  -43.5264 O.2       4 UNK        -0.5000 
     52 CA          1.6840  -12.3286  -43.6935 C.3       4 UNK         0.1400 
     53 CB          2.0704  -11.1197  -44.5614 C.3       4 UNK        -0.1800 
     54 N           0.2272  -12.4293  -43.6246 N.am      4 UNK        -0.5000 
     55 C          -0.4431  -13.1688  -42.7301 C.2       3 UNK         0.5000 
     56 O           0.0954  -13.9526  -41.9482 O.2       3 UNK        -0.5000 
     57 CA         -1.9690  -12.9939  -42.6911 C.3       3 UNK         0.1400 
     58 CB         -2.3505  -11.6153  -42.1267 C.3       3 UNK        -0.1800 
     59 N          -2.5412  -13.1457  -44.0260 N.am      3 UNK        -0.5000 
     60 C          -3.4582  -14.0610  -44.3651 C.2       2 UNK         0.5000 
     61 O          -3.9931  -14.8183  -43.5546 O.2       2 UNK        -0.5000 
     62 CA         -3.8572  -14.1727  -45.8525 C.3       2 UNK         0.1400 
     63 CB         -5.3390  -13.8122  -46.0454 C.3       2 UNK        -0.1800 
     64 N          -3.0611  -13.3519  -46.7649 N.am      2 UNK        -0.5000 
     65 C          -1.7681  -13.5280  -47.0702 C.2       1 UNK         0.5000 
     66 O          -1.0635  -14.4229  -46.6009 O.2       1 UNK        -0.5000 
     67 C          -1.9533  -21.1401  -46.5635 C.2       11 UNK         0.5000 
     68 O          -2.9171  -20.8557  -47.2726 O.2       11 UNK        -0.5000 
     69 N          -2.0007  -21.1401  -45.2204 N.am      12 UNK        -0.5000 
     70 CA         -3.2249  -20.8949  -44.4488 C.3       12 UNK         0.1400 
     71 CB         -2.9082  -20.7096  -42.9568 C.3       12 UNK        -0.1800 
     72 C          -4.2521  -22.0225  -44.6349 C.2       12 UNK         0.5000 
     73 O          -5.4193  -21.7402  -44.9063 O.2       12 UNK        -0.5000 
     74 N          -3.7859  -23.2770  -44.5430 N.am      13 UNK        -0.5000 
     75 CA         -4.5803  -24.4854  -44.7843 C.3       13 UNK         0.1400 
     76 CB         -3.7315  -25.7230  -44.4573 C.3       13 UNK        -0.1800 
     77 C          -5.1349  -24.5649  -46.2208 C.2       13 UNK         0.5000 
     78 O          -6.2480  -25.0510  -46.4211 O.2       13 UNK        -0.5000 
     79 N          -4.3671  -24.0368  -47.1819 N.am      14 UNK        -0.5000 
     80 CA         -4.7362  -23.8888  -48.5881 C.3       14 UNK         0.1400 
     81 CB         -3.4547  -23.9356  -49.4328 C.3       14 UNK        -0.1800 
     82 C          -5.5649  -22.6198  -48.8914 C.2       14 UNK         0.5000 
     83 O          -5.7560  -22.3109  -50.0685 O.2       14 UNK        -0.5000 
     84 N          -6.0395  -21.9130  -47.8531 N.am      15 UNK        -0.5000 
     85 CA         -6.9026  -20.7273  -47.8985 C.3       15 UNK         0.1400 
     86 CB         -8.2759  -21.0729  -48.5128 C.3       15 UNK        -0.1800 
     87 C          -6.2190  -19.5268  -48.5809 C.2       15 UNK         0.5000 
     88 O          -6.6991  -19.0321  -49.6007 O.2       15 UNK        -0.5000 
     89 N          -5.0802  -19.1079  -48.0112 N.am      16 UNK        -0.5000 
     90 CA         -4.1656  -18.0730  -48.5137 C.3       16 UNK         0.1400 
     91 CB         -4.8399  -16.6857  -48.5381 C.3       16 UNK        -0.1800 
     92 C          -3.5424  -18.4782  -49.8650 C.2       16 UNK         0.5000 
     93 O          -3.4349  -17.6592  -50.7779 O.2       16 UNK        -0.5000 
     94 N          -3.1740  -19.7644  -49.9508 N.am      17 UNK        -0.5000 
     95 CA         -2.6006  -20.4700  -51.0992 C.3       17 UNK         0.1400 
     96 CB         -1.2202  -19.8973  -51.4645 C.3       17 UNK        -0.1800 
     97 C          -3.5261  -20.5826  -52.3291 C.2       17 UNK         0.5000 
     98 O          -3.0520  -20.9714  -53.3965 O.2       17 UNK        -0.5000 
     99 N          -4.8281  -20.3041  -52.1739 N.am      18 UNK        -0.5000 
    100 CA        -5.8301  -20.3951  -53.2387 C.3       18 UNK         0.1400 
    101 CB        -7.1716  -19.8482  -52.7309 C.3       18 UNK        -0.1800 
    102 C         -6.0027  -21.8229  -53.7885 C.2       18 UNK         0.5000 
    103 O         -6.1261  -21.9948  -55.0017 O.2       18 UNK        -0.5000 
    104 N         -5.9755  -22.8195  -52.8934 N.am      19 UNK        -0.5000 
    105 CA        -6.0437  -24.2385  -53.2469 C.3       19 UNK         0.1400 
    106 CB        -6.5567  -25.0324  -52.0363 C.3       19 UNK        -0.1800 
    107 C         -4.6884  -24.7992  -53.7209 C.2       19 UNK         0.5000 
    108 O         -4.6678  -25.7862  -54.4570 O.2       19 UNK        -0.5000 
    109 N         -3.5856  -24.1760  -53.2833 N.am      20 UNK        -0.5000 
    110 CA        -2.2171  -24.5804  -53.6108 C.3       20 UNK         0.1400 
    111 CB        -1.2666  -24.0999  -52.5019 C.3       20 UNK        -0.1800 
    112 C         -1.7468  -24.0458  -54.9742 C.2       20 UNK         0.5000 
    113 O         -0.8672  -24.6516  -55.5858 O.2       20 UNK        -0.5000 
    114 N         -2.2952  -22.8981  -55.3975 N.am      21 UNK        -0.5000 
    115 CA        -1.9949  -22.1080  -56.5999 C.3       21 UNK         0.1400 
    116 CB        -2.1714  -22.9350  -57.8879 C.3       21 UNK        -0.1800 
    117 C         -0.6281  -21.3908  -56.5693 C.2       21 UNK         0.5000 
    118 O         -0.5152  -20.3161  -57.1578 O.2       21 UNK        -0.5000 
    119 N          0.3597  -21.9859  -55.8864 N.am      22 UNK        -0.5000 
    120 CA         1.7010  -21.4765  -55.5394 C.3       22 UNK         0.1400 
    121 C          2.6301  -21.0256  -56.7098 C.2       22 UNK         0.5000 
    122 N          2.3103  -21.3177  -57.9638 N.am      22 UNK        -0.7600 
    123 O          3.6885  -20.4472  -56.4773 O.2       22 UNK        -0.5000 
    124 C124        1.6874  -20.5074  -54.3201 C.3       23 UNK        -0.0398 
    125 S125        0.9917  -18.8474  -54.6401 S.3       23 UNK        -0.2404 
    126 C126        2.0982  -17.7773  -53.6712 C.3       23 UNK        -0.0205 
    127 H127       -2.5560   -8.7317  -47.5330 H         1 UNK         0.0600 
    128 H128       -2.9930   -8.9756  -45.8387 H         1 UNK         0.0600 
    129 H129       -1.3993   -8.3384  -46.2571 H         1 UNK         0.0600 
    130 H130       -2.0589  -10.6374  -48.5587 H         1 UNK         0.3000 
    131 H131       -0.0851  -12.4231  -47.7819 H         1 UNK         0.0600 
    132 H132       -1.3247  -11.9805  -50.1289 H         1 UNK         0.0800 
    133 H133       -2.2916  -13.3504  -49.6870 H         1 UNK         0.0800 
    134 H134       -1.5578  -15.5795  -50.8242 H         1 UNK         0.0800 
    135 H135       -1.1401  -15.7814  -49.1363 H         1 UNK         0.0800 
    136 H136        0.2477  -16.1055  -52.5975 H         1 UNK         0.1150 
    137 H137        2.9902  -19.2196  -51.5194 H         1 UNK         0.1150 
    138 H138        0.5842  -17.3402  -48.5088 H         1 UNK         0.1150 
    139 H139        3.5555  -19.4276  -49.1186 H         1 UNK         0.0800 
    140 H140        2.5645  -18.7030  -47.8857 H         1 UNK         0.0800 
    141 H141        0.6251  -19.8831  -46.6614 H         1 UNK         0.0800 
    142 H142       -0.3182  -19.5957  -48.1111 H         1 UNK         0.0800 
    143 H143       -0.9241  -22.0183  -48.2006 H         1 UNK         0.0600 
    144 H144        0.9264  -22.3266  -46.0323 H         1 UNK         0.3000 
    145 H145       -0.1528  -25.5997  -45.1084 H         1 UNK         0.0600 
    146 H146        2.2531  -26.0285  -45.5458 H         1 UNK         0.0600 
    147 H147        1.3845  -25.8781  -47.0656 H         1 UNK         0.0600 
    148 H148        2.3780  -24.5442  -46.4891 H         1 UNK         0.0600 
    149 H149        1.9299  -23.9042  -44.1174 H         1 UNK         0.3000 
    150 H150       -0.0308  -22.0745  -41.7684 H         1 UNK         0.0600 
    151 H151        0.5537  -24.1654  -40.6177 H         1 UNK         0.0600 
    152 H152        1.7550  -22.9322  -40.2659 H         1 UNK         0.0600 
    153 H153        2.1194  -24.2237  -41.4098 H         1 UNK         0.0600 
    154 H154        1.4226  -20.7505  -42.6761 H         1 UNK         0.3000 
    155 H155        4.8229  -20.8085  -43.1559 H         1 UNK         0.0600 
    156 H156        4.3869  -21.5074  -45.5208 H         1 UNK         0.0600 
    157 H157        4.5920  -19.7668  -45.4091 H         1 UNK         0.0600 
    158 H158        2.9797  -20.4530  -45.5853 H         1 UNK         0.0600 
    159 H159        2.8872  -18.7960  -43.7933 H         1 UNK         0.3000 
    160 H160        1.6794  -18.0591  -40.6260 H         1 UNK         0.0600 
    161 H161        3.8699  -16.3283  -41.8935 H         1 UNK         0.0600 
    162 H162        2.6176  -15.7526  -40.7938 H         1 UNK         0.0600 
    163 H163        3.8383  -16.8807  -40.2232 H         1 UNK         0.0600 
    164 H164        1.5907  -16.4398  -42.9219 H         1 UNK         0.3000 
    165 H165       -0.2714  -18.3382  -45.1569 H         1 UNK         0.0600 
    166 H166       -2.0778  -16.6662  -45.0258 H         1 UNK         0.0600 
    167 H167       -2.2014  -17.7737  -43.6745 H         1 UNK         0.0600 
    168 H168       -1.5360  -16.1682  -43.4187 H         1 UNK         0.0600 
    169 H169        0.1124  -15.5749  -45.2148 H         1 UNK         0.3000 
    170 H170        3.5725  -15.3150  -45.8270 H         1 UNK         0.0600 
    171 H171        2.8276  -15.9477  -48.0802 H         1 UNK         0.0600 
    172 H172        1.2950  -15.1116  -47.8433 H         1 UNK         0.0600 
    173 H173        2.7995  -14.1982  -47.9284 H         1 UNK         0.0600 
    174 H174        1.1923  -13.5947  -45.8737 H         1 UNK         0.3000 
    175 H175        2.0557  -12.1440  -42.6832 H         1 UNK         0.0600 
    176 H176        1.6911  -11.2119  -45.5799 H         1 UNK         0.0600 
    177 H177        1.6745  -10.1941  -44.1430 H         1 UNK         0.0600 
    178 H178        3.1541  -11.0117  -44.6220 H         1 UNK         0.0600 
    179 H179       -0.2918  -11.8187  -44.2526 H         1 UNK         0.3000 
    180 H180       -2.3606  -13.7542  -42.0121 H         1 UNK         0.0600 
    181 H181       -1.9122  -11.4616  -41.1398 H         1 UNK         0.0600 
    182 H182       -2.0086  -10.8036  -42.7701 H         1 UNK         0.0600 
    183 H183       -3.4314  -11.5225  -42.0207 H         1 UNK         0.0600 
    184 H184       -2.1492  -12.5560  -44.7509 H         1 UNK         0.3000 
    185 H185       -3.7186  -15.2165  -46.1389 H         1 UNK         0.0600 
    186 H186       -5.9812  -14.4491  -45.4357 H         1 UNK         0.0600 
    187 H187       -5.5397  -12.7777  -45.7638 H         1 UNK         0.0600 
    188 H188       -5.6474  -13.9439  -47.0827 H         1 UNK         0.0600 
    189 H189       -3.5351  -12.5585  -47.1716 H         1 UNK         0.3000 
    190 H190       -1.1852  -21.4227  -44.6983 H         1 UNK         0.3000 
    191 H191       -3.6743  -19.9685  -44.8133 H         1 UNK         0.0600 
    192 H192       -3.8199  -20.5180  -42.3896 H         1 UNK         0.0600 
    193 H193       -2.2490  -19.8631  -42.7883 H         1 UNK         0.0600 
    194 H194       -2.4377  -21.5899  -42.5218 H         1 UNK         0.0600 
    195 H195       -2.8152  -23.4180  -44.2780 H         1 UNK         0.3000 
    196 H196       -5.4323  -24.4640  -44.1018 H         1 UNK         0.0600 
    197 H197       -4.3082  -26.6390  -44.5911 H         1 UNK         0.0600 
    198 H198       -3.3869  -25.7026  -43.4232 H         1 UNK         0.0600 
    199 H199       -2.8534  -25.7904  -45.1000 H         1 UNK         0.0600 
    200 H200       -3.4362  -23.7261  -46.9293 H         1 UNK         0.3000 
    201 H201       -5.3554  -24.7402  -48.8757 H         1 UNK         0.0600 
    202 H202       -2.9283  -24.8800  -49.2937 H         1 UNK         0.0600 
    203 H203       -2.7714  -23.1331  -49.1605 H         1 UNK         0.0600 
    204 H204       -3.6740  -23.8428  -50.4953 H         1 UNK         0.0600 
    205 H205       -5.7853  -22.2149  -46.9198 H         1 UNK         0.3000 
    206 H206       -7.0763  -20.4343  -46.8621 H         1 UNK         0.0600 
    207 H207       -8.7504  -21.8949  -47.9769 H         1 UNK         0.0600 
    208 H208       -8.9509  -20.2180  -48.4603 H         1 UNK         0.0600 
    209 H209       -8.1963  -21.3594  -49.5617 H         1 UNK         0.0600 
    210 H210       -4.7154  -19.6582  -47.2434 H         1 UNK         0.3000 
    211 H211       -3.3413  -18.0224  -47.8006 H         1 UNK         0.0600 
    212 H212       -5.6043  -16.6176  -49.3125 H         1 UNK         0.0600 
    213 H213       -4.1079  -15.9010  -48.7335 H         1 UNK         0.0600 
    214 H214       -5.3134  -16.4626  -47.5826 H         1 UNK         0.0600 
    215 H215       -3.3041  -20.3247  -49.1137 H         1 UNK         0.3000 
    216 H216       -2.4403  -21.4931  -50.7637 H         1 UNK         0.0600 
    217 H217       -1.2941  -18.8872  -51.8668 H         1 UNK         0.0600 
    218 H218       -0.7295  -20.5096  -52.2193 H         1 UNK         0.0600 
    219 H219       -0.5623  -19.8690  -50.5977 H         1 UNK         0.0600 
    220 H220       -5.1644  -20.0347  -51.2586 H         1 UNK         0.3000 
    221 H221       -5.4946  -19.7616  -54.0623 H         1 UNK         0.0600 
    222 H222       -7.5455  -20.4268  -51.8852 H         1 UNK         0.0600 
    223 H223       -7.0780  -18.8103  -52.4107 H         1 UNK         0.0600 
    224 H224       -7.9302  -19.8807  -53.5138 H         1 UNK         0.0600 
    225 H225       -5.8947  -22.5897  -51.9041 H         1 UNK         0.3000 
    226 H226       -6.7604  -24.3659  -54.0610 H         1 UNK         0.0600 
    227 H227       -7.5146  -24.6469  -51.6866 H         1 UNK         0.0600 
    228 H228       -6.7012  -26.0828  -52.2921 H         1 UNK         0.0600 
    229 H229       -5.8547  -24.9927  -51.2045 H         1 UNK         0.0600 
    230 H230       -3.6992  -23.3450  -52.7239 H         1 UNK         0.3000 
    231 H231       -2.1671  -25.6708  -53.6483 H         1 UNK         0.0600 
    232 H232       -1.2820  -23.0153  -52.3968 H         1 UNK         0.0600 
    233 H233       -1.5269  -24.5389  -51.5394 H         1 UNK         0.0600 
    234 H234       -0.2376  -24.3908  -52.7172 H         1 UNK         0.0600 
    235 H235       -2.9087  -22.4219  -54.7436 H         1 UNK         0.3000 
    236 H236       -2.7502  -21.3206  -56.6143 H         1 UNK         0.0600 
    237 H237       -3.1527  -23.4085  -57.9207 H         1 UNK         0.0600 
    238 H238       -2.0877  -22.2987  -58.7697 H         1 UNK         0.0600 
    239 H239       -1.4168  -23.7161  -57.9813 H         1 UNK         0.0600 
    240 H240        0.1532  -22.9163  -55.5421 H         1 UNK         0.3000 
    241 H241        2.2073  -22.3724  -55.1785 H         1 UNK         0.0600 
    242 H242        2.9239  -21.0378  -58.7128 H         1 UNK         0.3800 
    243 H243        1.4341  -21.7692  -58.1720 H         1 UNK         0.3800 
    244 H244        2.7023  -20.4013  -53.9351 H         1 UNK         0.0800 
    245 H245        1.1227  -20.9584  -53.5049 H         1 UNK         0.0800 
    246 H246        3.1292  -18.1263  -53.7450 H         1 UNK         0.0800 
    247 H247        2.0899  -16.7809  -54.1154 H         1 UNK         0.0800 
@<TRIPOS>BOND
     1    1    2 1    
     2    1  127 1    
     3    1  128 1    
     4    1  129 1    
     5    2    3 2    
     6    2    4 am   BACKBONE|DICT|INTERRES
     7    4    5 1    
     8    4  130 1    
     9    5    6 1    
    10    5   65 1    
    11    5  131 1    
    12    6    7 1    
    13    6  132 1    
    14    6  133 1    
    15    7    8 1    
    16    8    9 1    
    17    8  134 1    
    18    8  135 1    
    19    9   10 ar   
    20    9   14 ar   
    21   10   11 ar   
    22   10  136 1    
    23   11   12 ar   
    24   11  126 1    
    25   12   13 ar   
    26   12  137 1    
    27   13   14 ar   
    28   13   15 1    
    29   14  138 1    
    30   15   16 1    
    31   15  139 1    
    32   15  140 1    
    33   16   17 1    
    34   17   18 1    
    35   17  141 1    
    36   17  142 1    
    37   18   19 1    
    38   18   67 1    
    39   18  143 1    
    40   19   20 am   BACKBONE|DICT|INTERRES
    41   19  144 1    
    42   20   21 2    
    43   20   22 1    
    44   22   23 1    
    45   22   24 1    
    46   22  145 1    
    47   23  146 1    
    48   23  147 1    
    49   23  148 1    
    50   24   25 am   BACKBONE|DICT|INTERRES
    51   24  149 1    
    52   25   26 2    
    53   25   27 1    
    54   27   28 1    
    55   27   29 1    
    56   27  150 1    
    57   28  151 1    
    58   28  152 1    
    59   28  153 1    
    60   29   30 am   BACKBONE|DICT|INTERRES
    61   29  154 1    
    62   30   31 2    
    63   30   32 1    
    64   32   33 1    
    65   32   34 1    
    66   32  155 1    
    67   33  156 1    
    68   33  157 1    
    69   33  158 1    
    70   34   35 am   BACKBONE|DICT|INTERRES
    71   34  159 1    
    72   35   36 2    
    73   35   37 1    
    74   37   38 1    
    75   37   39 1    
    76   37  160 1    
    77   38  161 1    
    78   38  162 1    
    79   38  163 1    
    80   39   40 am   BACKBONE|DICT|INTERRES
    81   39  164 1    
    82   40   41 2    
    83   40   42 1    
    84   42   43 1    
    85   42   44 1    
    86   42  165 1    
    87   43  166 1    
    88   43  167 1    
    89   43  168 1    
    90   44   45 am   BACKBONE|DICT|INTERRES
    91   44  169 1    
    92   45   46 2    
    93   45   47 1    
    94   47   48 1    
    95   47   49 1    
    96   47  170 1    
    97   48  171 1    
    98   48  172 1    
    99   48  173 1    
   100   49   50 am   BACKBONE|DICT|INTERRES
   101   49  174 1    
   102   50   51 2    
   103   50   52 1    
   104   52   53 1    
   105   52   54 1    
   106   52  175 1    
   107   53  176 1    
   108   53  177 1    
   109   53  178 1    
   110   54   55 am   BACKBONE|DICT|INTERRES
   111   54  179 1    
   112   55   56 2    
   113   55   57 1    
   114   57   58 1    
   115   57   59 1    
   116   57  180 1    
   117   58  181 1    
   118   58  182 1    
   119   58  183 1    
   120   59   60 am   BACKBONE|DICT|INTERRES
   121   59  184 1    
   122   60   61 2    
   123   60   62 1    
   124   62   63 1    
   125   62   64 1    
   126   62  185 1    
   127   63  186 1    
   128   63  187 1    
   129   63  188 1    
   130   64   65 am   BACKBONE|DICT|INTERRES
   131   64  189 1    
   132   65   66 2    
   133   67   68 2    
   134   67   69 am   BACKBONE|DICT|INTERRES
   135   69   70 1    
   136   69  190 1    
   137   70   71 1    
   138   70   72 1    
   139   70  191 1    
   140   71  192 1    
   141   71  193 1    
   142   71  194 1    
   143   72   73 2    
   144   72   74 am   BACKBONE|DICT|INTERRES
   145   74   75 1    
   146   74  195 1    
   147   75   76 1    
   148   75   77 1    
   149   75  196 1    
   150   76  197 1    
   151   76  198 1    
   152   76  199 1    
   153   77   78 2    
   154   77   79 am   BACKBONE|DICT|INTERRES
   155   79   80 1    
   156   79  200 1    
   157   80   81 1    
   158   80   82 1    
   159   80  201 1    
   160   81  202 1    
   161   81  203 1    
   162   81  204 1    
   163   82   83 2    
   164   82   84 am   BACKBONE|DICT|INTERRES
   165   84   85 1    
   166   84  205 1    
   167   85   86 1    
   168   85   87 1    
   169   85  206 1    
   170   86  207 1    
   171   86  208 1    
   172   86  209 1    
   173   87   88 2    
   174   87   89 am   BACKBONE|DICT|INTERRES
   175   89   90 1    
   176   89  210 1    
   177   90   91 1    
   178   90   92 1    
   179   90  211 1    
   180   91  212 1    
   181   91  213 1    
   182   91  214 1    
   183   92   93 2    
   184   92   94 am   BACKBONE|DICT|INTERRES
   185   94   95 1    
   186   94  215 1    
   187   95   96 1    
   188   95   97 1    
   189   95  216 1    
   190   96  217 1    
   191   96  218 1    
   192   96  219 1    
   193   97   98 2    
   194   97   99 am   BACKBONE|DICT|INTERRES
   195   99  100 1    
   196   99  220 1    
   197  100  101 1    
   198  100  102 1    
   199  100  221 1    
   200  101  222 1    
   201  101  223 1    
   202  101  224 1    
   203  102  103 2    
   204  102  104 am   BACKBONE|DICT|INTERRES
   205  104  105 1    
   206  104  225 1    
   207  105  106 1    
   208  105  107 1    
   209  105  226 1    
   210  106  227 1    
   211  106  228 1    
   212  106  229 1    
   213  107  108 2    
   214  107  109 am   BACKBONE|DICT|INTERRES
   215  109  110 1    
   216  109  230 1    
   217  110  111 1    
   218  110  112 1    
   219  110  231 1    
   220  111  232 1    
   221  111  233 1    
   222  111  234 1    
   223  112  113 2    
   224  112  114 am   BACKBONE|DICT|INTERRES
   225  114  115 1    
   226  114  235 1    
   227  115  116 1    
   228  115  117 1    
   229  115  236 1    
   230  116  237 1    
   231  116  238 1    
   232  116  239 1    
   233  117  118 2    
   234  117  119 am   BACKBONE|DICT|INTERRES
   235  119  120 1    
   236  119  240 1    
   237  120  121 1    
   238  120  124 1    
   239  120  241 1    
   240  121  122 am   BACKBONE|DICT|INTERRES
   241  121  123 2    
   242  122  242 1    
   243  122  243 1    
   244  124  125 1    
   245  124  244 1    
   246  124  245 1    
   247  125  126 1    
   248  126  246 1    
   249  126  247 1    
@<TRIPOS>SUBSTRUCTURE
     1 UNK         1 GROUP             0       ****    0 ROOT    
