@<TRIPOS>MOLECULE
3R540
247   249    1
SMALL
USER_CHARGES


@<TRIPOS>ATOM
      1 CA         -1.2101  -11.0598  -46.5902 C.3       0 UNK        -0.1800 
      2 C          -0.1812  -11.9281  -47.2991 C.2       0 UNK         0.5000 
      3 O           0.9113  -11.4525  -47.6116 O.2       0 UNK        -0.5000 
      4 N          -0.5214  -13.1980  -47.5512 N.am      1 UNK        -0.5000 
      5 CA          0.3521  -14.2126  -48.1516 C.3       1 UNK         0.1400 
      6 C6         -0.4176  -15.5143  -48.4856 C.3       23 UNK        -0.0398 
      7 S7         -1.7987  -15.2268  -49.6446 S.3       23 UNK        -0.2404 
      8 C8         -1.2653  -16.1537  -51.1166 C.3       23 UNK        -0.0205 
      9 C9         -1.3954  -17.6570  -50.9192 C.ar      23 UNK        -0.0193 
     10 C10        -2.6542  -18.2641  -50.9611 C.ar      23 UNK        -0.1150 
     11 C11        -2.7823  -19.6459  -50.7951 C.ar      23 UNK        -0.0193 
     12 C12        -1.6410  -20.4195  -50.5709 C.ar      23 UNK        -0.1150 
     13 C13        -0.3770  -19.8253  -50.5207 C.ar      23 UNK        -0.0193 
     14 C14        -0.2599  -18.4445  -50.7084 C.ar      23 UNK        -0.1150 
     15 C15         0.8569  -20.6869  -50.2877 C.3       23 UNK        -0.0205 
     16 S16         1.8989  -20.1252  -48.8976 S.3       23 UNK        -0.2404 
     17 C17         0.7347  -20.0263  -47.4943 C.3       23 UNK        -0.0398 
     18 CA          0.4372  -21.4041  -46.8421 C.3       11 UNK         0.1400 
     19 N           0.4608  -21.3607  -45.3763 N.am      11 UNK        -0.5000 
     20 C           0.3712  -22.4338  -44.5762 C.2       10 UNK         0.5000 
     21 O           0.3070  -23.5914  -44.9898 O.2       10 UNK        -0.5000 
     22 CA          0.2822  -22.1716  -43.0614 C.3       10 UNK         0.1400 
     23 CB          1.6725  -21.9187  -42.4603 C.3       10 UNK        -0.1800 
     24 N          -0.6140  -21.0611  -42.7353 N.am      10 UNK        -0.5000 
     25 C          -1.9326  -21.0616  -42.9808 C.2       9 UNK         0.5000 
     26 O          -2.5374  -22.0207  -43.4589 O.2       9 UNK        -0.5000 
     27 CA         -2.6982  -19.7578  -42.6946 C.3       9 UNK         0.1400 
     28 CB         -3.0203  -19.6281  -41.1987 C.3       9 UNK        -0.1800 
     29 N          -1.9769  -18.5698  -43.1500 N.am      9 UNK        -0.5000 
     30 C          -1.6508  -18.3177  -44.4261 C.2       8 UNK         0.5000 
     31 O          -1.9645  -19.0402  -45.3721 O.2       8 UNK        -0.5000 
     32 CA         -0.7761  -17.0799  -44.6813 C.3       8 UNK         0.1400 
     33 CB         -1.6221  -15.7966  -44.6512 C.3       8 UNK        -0.1800 
     34 N           0.3310  -16.9746  -43.7311 N.am      8 UNK        -0.5000 
     35 C           1.3140  -17.8778  -43.6062 C.2       7 UNK         0.5000 
     36 O           1.4088  -18.8871  -44.3019 O.2       7 UNK        -0.5000 
     37 CA          2.3224  -17.6599  -42.4670 C.3       7 UNK         0.1400 
     38 CB          3.4232  -16.6700  -42.8738 C.3       7 UNK        -0.1800 
     39 N           1.6612  -17.2074  -41.2442 N.am      7 UNK        -0.5000 
     40 C           0.8521  -17.9771  -40.5014 C.2       6 UNK         0.5000 
     41 O           0.6212  -19.1617  -40.7444 O.2       6 UNK        -0.5000 
     42 CA          0.1519  -17.2943  -39.3128 C.3       6 UNK         0.1400 
     43 CB          1.0709  -17.2703  -38.0825 C.3       6 UNK        -0.1800 
     44 N          -0.2748  -15.9301  -39.6275 N.am      6 UNK        -0.5000 
     45 C          -1.2348  -15.6239  -40.5117 C.2       5 UNK         0.5000 
     46 O          -1.8975  -16.4644  -41.1188 O.2       5 UNK        -0.5000 
     47 CA         -1.4558  -14.1270  -40.7994 C.3       5 UNK         0.1400 
     48 CB         -2.4455  -13.5232  -39.7922 C.3       5 UNK        -0.1800 
     49 N          -0.2124  -13.3496  -40.7882 N.am      5 UNK        -0.5000 
     50 C           0.7926  -13.5211  -41.6569 C.2       4 UNK         0.5000 
     51 O           0.7867  -14.3746  -42.5448 O.2       4 UNK        -0.5000 
     52 CA          2.0340  -12.6371  -41.4571 C.3       4 UNK         0.1400 
     53 CB          3.1079  -13.3887  -40.6563 C.3       4 UNK        -0.1800 
     54 N           2.6024  -12.2087  -42.7332 N.am      4 UNK        -0.5000 
     55 C           2.0781  -11.2616  -43.5174 C.2       3 UNK         0.5000 
     56 O           1.0414  -10.6528  -43.2486 O.2       3 UNK        -0.5000 
     57 CA          2.8487  -10.9011  -44.8006 C.3       3 UNK         0.1400 
     58 CB          4.1517  -10.1423  -44.4817 C.3       3 UNK        -0.1800 
     59 N           3.0883  -12.0223  -45.7145 N.am      3 UNK        -0.5000 
     60 C           3.8691  -13.1030  -45.5619 C.2       2 UNK         0.5000 
     61 O           4.5096  -13.3468  -44.5374 O.2       2 UNK        -0.5000 
     62 CA          3.9669  -14.0464  -46.7858 C.3       2 UNK         0.1400 
     63 CB          4.4244  -15.4760  -46.4259 C.3       2 UNK        -0.1800 
     64 N           2.7438  -14.0634  -47.6013 N.am      2 UNK        -0.5000 
     65 C           1.5374  -14.4952  -47.2065 C.2       1 UNK         0.5000 
     66 O           1.3250  -15.0426  -46.1269 O.2       1 UNK        -0.5000 
     67 C          -0.8878  -21.9902  -47.3661 C.2       11 UNK         0.5000 
     68 O          -0.8619  -22.8785  -48.2146 O.2       11 UNK        -0.5000 
     69 N          -2.0187  -21.5180  -46.8233 N.am      12 UNK        -0.5000 
     70 CA         -3.3590  -21.9970  -47.1589 C.3       12 UNK         0.1400 
     71 CB         -4.4094  -21.0906  -46.5015 C.3       12 UNK        -0.1800 
     72 C          -3.5873  -23.4733  -46.7845 C.2       12 UNK         0.5000 
     73 O          -4.2073  -24.2000  -47.5609 O.2       12 UNK        -0.5000 
     74 N          -3.0608  -23.8965  -45.6263 N.am      13 UNK        -0.5000 
     75 CA         -3.0947  -25.2818  -45.1547 C.3       13 UNK         0.1400 
     76 CB         -2.6523  -25.3378  -43.6845 C.3       13 UNK        -0.1800 
     77 C          -2.2397  -26.2267  -46.0196 C.2       13 UNK         0.5000 
     78 O          -2.6831  -27.3341  -46.3265 O.2       13 UNK        -0.5000 
     79 N          -1.0415  -25.7705  -46.4112 N.am      14 UNK        -0.5000 
     80 CA         -0.1360  -26.4865  -47.3132 C.3       14 UNK         0.1400 
     81 CB          1.2577  -25.8441  -47.2367 C.3       14 UNK        -0.1800 
     82 C          -0.6284  -26.5058  -48.7733 C.2       14 UNK         0.5000 
     83 O          -0.2765  -27.4190  -49.5214 O.2       14 UNK        -0.5000 
     84 N          -1.3965  -25.4778  -49.1565 N.am      15 UNK        -0.5000 
     85 CA         -1.9463  -25.1443  -50.4735 C.3       15 UNK         0.1400 
     86 CB         -2.8374  -26.2695  -51.0308 C.3       15 UNK        -0.1800 
     87 C          -0.8792  -24.7084  -51.4930 C.2       15 UNK         0.5000 
     88 O          -1.0897  -23.7207  -52.1949 O.2       15 UNK        -0.5000 
     89 N           0.2376  -25.4479  -51.5660 N.am      16 UNK        -0.5000 
     90 CA          1.4365  -25.1950  -52.3790 C.3       16 UNK         0.1400 
     91 CB          2.1736  -23.9483  -51.8483 C.3       16 UNK        -0.1800 
     92 C           1.1710  -25.1075  -53.9001 C.2       16 UNK         0.5000 
     93 O           1.9638  -24.5048  -54.6255 O.2       16 UNK        -0.5000 
     94 N           0.0490  -25.6935  -54.3463 N.am      17 UNK        -0.5000 
     95 CA         -0.5251  -25.6226  -55.6951 C.3       17 UNK         0.1400 
     96 CB          0.3877  -26.3273  -56.7210 C.3       17 UNK        -0.1800 
     97 C          -0.9253  -24.1926  -56.1313 C.2       17 UNK         0.5000 
     98 O          -1.0327  -23.9313  -57.3315 O.2       17 UNK        -0.5000 
     99 N          -1.1504  -23.2912  -55.1641 N.am      18 UNK        -0.5000 
    100 CA        -1.6128  -21.9246  -55.3965 C.3       18 UNK         0.1400 
    101 CB        -1.3032  -21.0747  -54.1535 C.3       18 UNK        -0.1800 
    102 C         -3.1185  -21.8837  -55.7177 C.2       18 UNK         0.5000 
    103 O         -3.8621  -22.7949  -55.3441 O.2       18 UNK        -0.5000 
    104 N         -3.5380  -20.8027  -56.3829 N.am      19 UNK        -0.5000 
    105 CA        -4.9309  -20.5133  -56.7316 C.3       19 UNK         0.1400 
    106 CB        -5.1657  -20.8586  -58.2134 C.3       19 UNK        -0.1800 
    107 C         -5.2900  -19.0504  -56.4052 C.2       19 UNK         0.5000 
    108 O         -6.2410  -18.5073  -56.9702 O.2       19 UNK        -0.5000 
    109 N         -4.5292  -18.4288  -55.4943 N.am      20 UNK        -0.5000 
    110 CA        -4.6726  -17.0430  -55.0476 C.3       20 UNK         0.1400 
    111 CB        -3.3190  -16.5768  -54.4838 C.3       20 UNK        -0.1800 
    112 C         -5.8272  -16.8901  -54.0358 C.2       20 UNK         0.5000 
    113 O         -5.5927  -16.5704  -52.8695 O.2       20 UNK        -0.5000 
    114 N         -7.0535  -17.1568  -54.5098 N.am      21 UNK        -0.5000 
    115 CA        -8.3182  -17.1719  -53.7626 C.3       21 UNK         0.1400 
    116 CB        -8.6817  -15.7580  -53.2620 C.3       21 UNK        -0.1800 
    117 C         -8.3396  -18.2370  -52.6434 C.2       21 UNK         0.5000 
    118 O         -8.9282  -18.0167  -51.5833 O.2       21 UNK        -0.5000 
    119 N         -7.6856  -19.3754  -52.9065 N.am      22 UNK        -0.5000 
    120 CA        -7.5004  -20.4888  -51.9612 C.3       22 UNK         0.1400 
    121 C         -8.7630  -21.3699  -51.7261 C.2       22 UNK         0.5000 
    122 N         -9.8356  -21.2214  -52.4940 N.am      22 UNK        -0.7600 
    123 O         -8.7712  -22.2021  -50.8233 O.2       22 UNK        -0.5000 
    124 C124       -6.2819  -21.3709  -52.3422 C.3       23 UNK        -0.0398 
    125 S125       -4.7401  -20.4230  -52.5754 S.3       23 UNK        -0.2404 
    126 C126       -4.1515  -20.3018  -50.8607 C.3       23 UNK        -0.0205 
    127 H127       -1.4584  -10.1945  -47.2046 H         1 UNK         0.0600 
    128 H128       -0.8073  -10.7029  -45.6421 H         1 UNK         0.0600 
    129 H129       -2.1301  -11.6074  -46.3842 H         1 UNK         0.0600 
    130 H130       -1.4344  -13.5277  -47.2747 H         1 UNK         0.3000 
    131 H131        0.7418  -13.8052  -49.0871 H         1 UNK         0.0600 
    132 H132        0.2618  -16.2602  -48.8999 H         1 UNK         0.0800 
    133 H133       -0.8368  -15.9577  -47.5827 H         1 UNK         0.0800 
    134 H134       -0.2414  -15.8786  -51.3745 H         1 UNK         0.0800 
    135 H135       -1.8833  -15.8474  -51.9608 H         1 UNK         0.0800 
    136 H136       -3.5356  -17.6615  -51.1344 H         1 UNK         0.1150 
    137 H137       -1.7354  -21.4896  -50.4469 H         1 UNK         0.1150 
    138 H138        0.7180  -17.9849  -50.6828 H         1 UNK         0.1150 
    139 H139        0.5781  -21.7282  -50.1219 H         1 UNK         0.0800 
    140 H140        1.4587  -20.6784  -51.1970 H         1 UNK         0.0800 
    141 H141       -0.1714  -19.4917  -47.7866 H         1 UNK         0.0800 
    142 H142        1.2189  -19.3681  -46.7748 H         1 UNK         0.0800 
    143 H143        1.2279  -22.1017  -47.1267 H         1 UNK         0.0600 
    144 H144        0.5657  -20.4436  -44.9491 H         1 UNK         0.3000 
    145 H145       -0.1248  -23.0712  -42.5950 H         1 UNK         0.0600 
    146 H146        1.6178  -21.8000  -41.3780 H         1 UNK         0.0600 
    147 H147        2.3421  -22.7555  -42.6628 H         1 UNK         0.0600 
    148 H148        2.1356  -21.0220  -42.8711 H         1 UNK         0.0600 
    149 H149       -0.1937  -20.2464  -42.3010 H         1 UNK         0.3000 
    150 H150       -3.6418  -19.8012  -43.2421 H         1 UNK         0.0600 
    151 H151       -3.5738  -20.4974  -40.8415 H         1 UNK         0.0600 
    152 H152       -3.6340  -18.7486  -41.0033 H         1 UNK         0.0600 
    153 H153       -2.1154  -19.5439  -40.5967 H         1 UNK         0.0600 
    154 H154       -1.7200  -17.8926  -42.4375 H         1 UNK         0.3000 
    155 H155       -0.3394  -17.1850  -45.6754 H         1 UNK         0.0600 
    156 H156       -2.3986  -15.8258  -45.4163 H         1 UNK         0.0600 
    157 H157       -1.0121  -14.9131  -44.8386 H         1 UNK         0.0600 
    158 H158       -2.1154  -15.6598  -43.6895 H         1 UNK         0.0600 
    159 H159        0.3777  -16.1243  -43.1763 H         1 UNK         0.3000 
    160 H160        2.7999  -18.6188  -42.2543 H         1 UNK         0.0600 
    161 H161        3.0150  -15.7098  -43.1914 H         1 UNK         0.0600 
    162 H162        4.0054  -17.0684  -43.7046 H         1 UNK         0.0600 
    163 H163        4.1180  -16.4901  -42.0537 H         1 UNK         0.0600 
    164 H164        1.7517  -16.2302  -41.0129 H         1 UNK         0.3000 
    165 H165       -0.7354  -17.8813  -39.0660 H         1 UNK         0.0600 
    166 H166        0.5576  -16.8544  -37.2153 H         1 UNK         0.0600 
    167 H167        1.3917  -18.2783  -37.8163 H         1 UNK         0.0600 
    168 H168        1.9682  -16.6758  -38.2591 H         1 UNK         0.0600 
    169 H169        0.2162  -15.1777  -39.1681 H         1 UNK         0.3000 
    170 H170       -1.8925  -14.0440  -41.7967 H         1 UNK         0.0600 
    171 H171       -3.3881  -14.0724  -39.7948 H         1 UNK         0.0600 
    172 H172       -2.0532  -13.5491  -38.7748 H         1 UNK         0.0600 
    173 H173       -2.6750  -12.4862  -40.0381 H         1 UNK         0.0600 
    174 H174       -0.1345  -12.6346  -40.0792 H         1 UNK         0.3000 
    175 H175        1.7458  -11.7481  -40.8919 H         1 UNK         0.0600 
    176 H176        3.4733  -14.2633  -41.1935 H         1 UNK         0.0600 
    177 H177        3.9634  -12.7457  -40.4486 H         1 UNK         0.0600 
    178 H178        2.7181  -13.7294  -39.6962 H         1 UNK         0.0600 
    179 H179        3.4124  -12.7131  -43.0816 H         1 UNK         0.3000 
    180 H180        2.2100  -10.2134  -45.3573 H         1 UNK         0.0600 
    181 H181        4.8604  -10.7565  -43.9258 H         1 UNK         0.0600 
    182 H182        3.9470   -9.2573  -43.8781 H         1 UNK         0.0600 
    183 H183        4.6440   -9.8058  -45.3941 H         1 UNK         0.0600 
    184 H184        2.5517  -11.9608  -46.5745 H         1 UNK         0.3000 
    185 H185        4.7418  -13.6148  -47.4207 H         1 UNK         0.0600 
    186 H186        5.3894  -15.4643  -45.9180 H         1 UNK         0.0600 
    187 H187        3.7157  -15.9757  -45.7671 H         1 UNK         0.0600 
    188 H188        4.5369  -16.0891  -47.3198 H         1 UNK         0.0600 
    189 H189        2.8162  -13.5989  -48.4962 H         1 UNK         0.3000 
    190 H190       -1.9628  -20.7536  -46.1539 H         1 UNK         0.3000 
    191 H191       -3.4724  -21.9145  -48.2406 H         1 UNK         0.0600 
    192 H192       -4.3258  -21.1014  -45.4144 H         1 UNK         0.0600 
    193 H193       -5.4194  -21.4120  -46.7583 H         1 UNK         0.0600 
    194 H194       -4.3011  -20.0582  -46.8348 H         1 UNK         0.0600 
    195 H195       -2.6234  -23.2168  -45.0107 H         1 UNK         0.3000 
    196 H196       -4.1289  -25.6282  -45.2084 H         1 UNK         0.0600 
    197 H197       -2.6843  -26.3598  -43.3051 H         1 UNK         0.0600 
    198 H198       -3.3066  -24.7360  -43.0536 H         1 UNK         0.0600 
    199 H199       -1.6340  -24.9705  -43.5553 H         1 UNK         0.0600 
    200 H200       -0.7196  -24.8715  -46.0631 H         1 UNK         0.3000 
    201 H201       -0.0564  -27.5215  -46.9745 H         1 UNK         0.0600 
    202 H202        1.6518  -25.8775  -46.2209 H         1 UNK         0.0600 
    203 H203        1.2358  -24.8000  -47.5523 H         1 UNK         0.0600 
    204 H204        1.9672  -26.3674  -47.8790 H         1 UNK         0.0600 
    205 H205       -1.4959  -24.7262  -48.4813 H         1 UNK         0.3000 
    206 H206       -2.5857  -24.2762  -50.3040 H         1 UNK         0.0600 
    207 H207       -3.6213  -26.5352  -50.3214 H         1 UNK         0.0600 
    208 H208       -3.3264  -25.9536  -51.9531 H         1 UNK         0.0600 
    209 H209       -2.2690  -27.1717  -51.2571 H         1 UNK         0.0600 
    210 H210        0.2777  -26.2622  -50.9589 H         1 UNK         0.3000 
    211 H211        2.0899  -26.0561  -52.2331 H         1 UNK         0.0600 
    212 H212        1.6151  -23.0362  -52.0592 H         1 UNK         0.0600 
    213 H213        3.1554  -23.8444  -52.3115 H         1 UNK         0.0600 
    214 H214        2.3282  -24.0064  -50.7707 H         1 UNK         0.0600 
    215 H215       -0.5244  -26.1577  -53.6566 H         1 UNK         0.3000 
    216 H216       -1.4579  -26.1863  -55.6501 H         1 UNK         0.0600 
    217 H217       -0.1108  -26.4258  -57.6859 H         1 UNK         0.0600 
    218 H218        0.6506  -27.3322  -56.3906 H         1 UNK         0.0600 
    219 H219        1.3129  -25.7755  -56.8881 H         1 UNK         0.0600 
    220 H220       -1.0796  -23.5753  -54.1919 H         1 UNK         0.3000 
    221 H221       -1.0615  -21.5106  -56.2434 H         1 UNK         0.0600 
    222 H222       -1.8741  -21.4133  -53.2888 H         1 UNK         0.0600 
    223 H223       -0.2459  -21.1208  -53.8919 H         1 UNK         0.0600 
    224 H224       -1.5533  -20.0258  -54.3157 H         1 UNK         0.0600 
    225 H225       -2.8623  -20.1053  -56.6645 H         1 UNK         0.3000 
    226 H226       -5.6031  -21.1253  -56.1268 H         1 UNK         0.0600 
    227 H227       -4.5523  -20.2411  -58.8706 H         1 UNK         0.0600 
    228 H228       -4.9269  -21.9029  -58.4157 H         1 UNK         0.0600 
    229 H229       -6.2084  -20.7065  -58.4946 H         1 UNK         0.0600 
    230 H230       -3.8307  -18.9752  -55.0121 H         1 UNK         0.3000 
    231 H231       -4.9082  -16.4136  -55.9084 H         1 UNK         0.0600 
    232 H232       -3.3764  -15.5510  -54.1178 H         1 UNK         0.0600 
    233 H233       -2.5431  -16.6049  -55.2490 H         1 UNK         0.0600 
    234 H234       -2.9937  -17.2080  -53.6567 H         1 UNK         0.0600 
    235 H235       -7.1100  -17.4541  -55.4793 H         1 UNK         0.3000 
    236 H236       -9.0870  -17.4722  -54.4758 H         1 UNK         0.0600 
    237 H237       -9.6857  -15.7403  -52.8366 H         1 UNK         0.0600 
    238 H238       -7.9947  -15.4112  -52.4896 H         1 UNK         0.0600 
    239 H239       -8.6636  -15.0345  -54.0770 H         1 UNK         0.0600 
    240 H240       -7.2155  -19.4643  -53.7938 H         1 UNK         0.3000 
    241 H241       -7.2780  -20.0430  -50.9900 H         1 UNK         0.0600 
    242 H242       -9.8460  -20.5393  -53.2349 H         1 UNK         0.3800 
    243 H243      -10.6482  -21.7947  -52.3285 H         1 UNK         0.3800 
    244 H244       -6.1081  -22.1394  -51.5868 H         1 UNK         0.0800 
    245 H245       -6.4820  -21.9060  -53.2722 H         1 UNK         0.0800 
    246 H246       -4.1158  -21.3006  -50.4248 H         1 UNK         0.0800 
    247 H247       -4.8626  -19.7242  -50.2685 H         1 UNK         0.0800 
@<TRIPOS>BOND
     1    1    2 1    
     2    1  127 1    
     3    1  128 1    
     4    1  129 1    
     5    2    3 2    
     6    2    4 am   BACKBONE|DICT|INTERRES
     7    4    5 1    
     8    4  130 1    
     9    5    6 1    
    10    5   65 1    
    11    5  131 1    
    12    6    7 1    
    13    6  132 1    
    14    6  133 1    
    15    7    8 1    
    16    8    9 1    
    17    8  134 1    
    18    8  135 1    
    19    9   10 ar   
    20    9   14 ar   
    21   10   11 ar   
    22   10  136 1    
    23   11   12 ar   
    24   11  126 1    
    25   12   13 ar   
    26   12  137 1    
    27   13   14 ar   
    28   13   15 1    
    29   14  138 1    
    30   15   16 1    
    31   15  139 1    
    32   15  140 1    
    33   16   17 1    
    34   17   18 1    
    35   17  141 1    
    36   17  142 1    
    37   18   19 1    
    38   18   67 1    
    39   18  143 1    
    40   19   20 am   BACKBONE|DICT|INTERRES
    41   19  144 1    
    42   20   21 2    
    43   20   22 1    
    44   22   23 1    
    45   22   24 1    
    46   22  145 1    
    47   23  146 1    
    48   23  147 1    
    49   23  148 1    
    50   24   25 am   BACKBONE|DICT|INTERRES
    51   24  149 1    
    52   25   26 2    
    53   25   27 1    
    54   27   28 1    
    55   27   29 1    
    56   27  150 1    
    57   28  151 1    
    58   28  152 1    
    59   28  153 1    
    60   29   30 am   BACKBONE|DICT|INTERRES
    61   29  154 1    
    62   30   31 2    
    63   30   32 1    
    64   32   33 1    
    65   32   34 1    
    66   32  155 1    
    67   33  156 1    
    68   33  157 1    
    69   33  158 1    
    70   34   35 am   BACKBONE|DICT|INTERRES
    71   34  159 1    
    72   35   36 2    
    73   35   37 1    
    74   37   38 1    
    75   37   39 1    
    76   37  160 1    
    77   38  161 1    
    78   38  162 1    
    79   38  163 1    
    80   39   40 am   BACKBONE|DICT|INTERRES
    81   39  164 1    
    82   40   41 2    
    83   40   42 1    
    84   42   43 1    
    85   42   44 1    
    86   42  165 1    
    87   43  166 1    
    88   43  167 1    
    89   43  168 1    
    90   44   45 am   BACKBONE|DICT|INTERRES
    91   44  169 1    
    92   45   46 2    
    93   45   47 1    
    94   47   48 1    
    95   47   49 1    
    96   47  170 1    
    97   48  171 1    
    98   48  172 1    
    99   48  173 1    
   100   49   50 am   BACKBONE|DICT|INTERRES
   101   49  174 1    
   102   50   51 2    
   103   50   52 1    
   104   52   53 1    
   105   52   54 1    
   106   52  175 1    
   107   53  176 1    
   108   53  177 1    
   109   53  178 1    
   110   54   55 am   BACKBONE|DICT|INTERRES
   111   54  179 1    
   112   55   56 2    
   113   55   57 1    
   114   57   58 1    
   115   57   59 1    
   116   57  180 1    
   117   58  181 1    
   118   58  182 1    
   119   58  183 1    
   120   59   60 am   BACKBONE|DICT|INTERRES
   121   59  184 1    
   122   60   61 2    
   123   60   62 1    
   124   62   63 1    
   125   62   64 1    
   126   62  185 1    
   127   63  186 1    
   128   63  187 1    
   129   63  188 1    
   130   64   65 am   BACKBONE|DICT|INTERRES
   131   64  189 1    
   132   65   66 2    
   133   67   68 2    
   134   67   69 am   BACKBONE|DICT|INTERRES
   135   69   70 1    
   136   69  190 1    
   137   70   71 1    
   138   70   72 1    
   139   70  191 1    
   140   71  192 1    
   141   71  193 1    
   142   71  194 1    
   143   72   73 2    
   144   72   74 am   BACKBONE|DICT|INTERRES
   145   74   75 1    
   146   74  195 1    
   147   75   76 1    
   148   75   77 1    
   149   75  196 1    
   150   76  197 1    
   151   76  198 1    
   152   76  199 1    
   153   77   78 2    
   154   77   79 am   BACKBONE|DICT|INTERRES
   155   79   80 1    
   156   79  200 1    
   157   80   81 1    
   158   80   82 1    
   159   80  201 1    
   160   81  202 1    
   161   81  203 1    
   162   81  204 1    
   163   82   83 2    
   164   82   84 am   BACKBONE|DICT|INTERRES
   165   84   85 1    
   166   84  205 1    
   167   85   86 1    
   168   85   87 1    
   169   85  206 1    
   170   86  207 1    
   171   86  208 1    
   172   86  209 1    
   173   87   88 2    
   174   87   89 am   BACKBONE|DICT|INTERRES
   175   89   90 1    
   176   89  210 1    
   177   90   91 1    
   178   90   92 1    
   179   90  211 1    
   180   91  212 1    
   181   91  213 1    
   182   91  214 1    
   183   92   93 2    
   184   92   94 am   BACKBONE|DICT|INTERRES
   185   94   95 1    
   186   94  215 1    
   187   95   96 1    
   188   95   97 1    
   189   95  216 1    
   190   96  217 1    
   191   96  218 1    
   192   96  219 1    
   193   97   98 2    
   194   97   99 am   BACKBONE|DICT|INTERRES
   195   99  100 1    
   196   99  220 1    
   197  100  101 1    
   198  100  102 1    
   199  100  221 1    
   200  101  222 1    
   201  101  223 1    
   202  101  224 1    
   203  102  103 2    
   204  102  104 am   BACKBONE|DICT|INTERRES
   205  104  105 1    
   206  104  225 1    
   207  105  106 1    
   208  105  107 1    
   209  105  226 1    
   210  106  227 1    
   211  106  228 1    
   212  106  229 1    
   213  107  108 2    
   214  107  109 am   BACKBONE|DICT|INTERRES
   215  109  110 1    
   216  109  230 1    
   217  110  111 1    
   218  110  112 1    
   219  110  231 1    
   220  111  232 1    
   221  111  233 1    
   222  111  234 1    
   223  112  113 2    
   224  112  114 am   BACKBONE|DICT|INTERRES
   225  114  115 1    
   226  114  235 1    
   227  115  116 1    
   228  115  117 1    
   229  115  236 1    
   230  116  237 1    
   231  116  238 1    
   232  116  239 1    
   233  117  118 2    
   234  117  119 am   BACKBONE|DICT|INTERRES
   235  119  120 1    
   236  119  240 1    
   237  120  121 1    
   238  120  124 1    
   239  120  241 1    
   240  121  122 am   BACKBONE|DICT|INTERRES
   241  121  123 2    
   242  122  242 1    
   243  122  243 1    
   244  124  125 1    
   245  124  244 1    
   246  124  245 1    
   247  125  126 1    
   248  126  246 1    
   249  126  247 1    
@<TRIPOS>SUBSTRUCTURE
     1 UNK         1 GROUP             0       ****    0 ROOT    
