@<TRIPOS>MOLECULE
3R540
247   249    1
SMALL
USER_CHARGES


@<TRIPOS>ATOM
      1 CA         -0.8394  -11.3797  -44.9672 C.3       0 UNK        -0.1800 
      2 C           0.4963  -11.8588  -45.5130 C.2       0 UNK         0.5000 
      3 O           1.4084  -12.1514  -44.7396 O.2       0 UNK        -0.5000 
      4 N           0.6218  -11.9296  -46.8455 N.am      1 UNK        -0.5000 
      5 CA          1.8168  -12.3831  -47.5777 C.3       1 UNK         0.1400 
      6 C6          2.1820  -13.8651  -47.2580 C.3       23 UNK        -0.0398 
      7 S7          2.4988  -14.8523  -48.7587 S.3       23 UNK        -0.2404 
      8 C8          0.9266  -15.7560  -48.8640 C.3       23 UNK        -0.0205 
      9 C9          0.8999  -16.7288  -50.0287 C.ar      23 UNK        -0.0193 
     10 C10         0.3990  -16.3258  -51.2688 C.ar      23 UNK        -0.1150 
     11 C11         0.3525  -17.2231  -52.3381 C.ar      23 UNK        -0.0193 
     12 C12         0.8071  -18.5327  -52.1549 C.ar      23 UNK        -0.1150 
     13 C13         1.2998  -18.9572  -50.9167 C.ar      23 UNK        -0.0193 
     14 C14         1.3528  -18.0404  -49.8590 C.ar      23 UNK        -0.1150 
     15 C15         1.7995  -20.3957  -50.7725 C.3       23 UNK        -0.0205 
     16 S16         1.6280  -21.1126  -49.1011 S.3       23 UNK        -0.2404 
     17 C17        -0.1841  -21.2045  -48.9237 C.3       23 UNK        -0.0398 
     18 CA         -0.6080  -22.3169  -47.9385 C.3       11 UNK         0.1400 
     19 N          -0.2095  -22.0431  -46.5547 N.am      11 UNK        -0.5000 
     20 C          -0.2387  -22.9592  -45.5763 C.2       10 UNK         0.5000 
     21 O          -0.5995  -24.1241  -45.7448 O.2       10 UNK        -0.5000 
     22 CA          0.1568  -22.4923  -44.1654 C.3       10 UNK         0.1400 
     23 CB          1.6781  -22.3126  -44.0527 C.3       10 UNK        -0.1800 
     24 N          -0.5243  -21.2607  -43.7659 N.am      10 UNK        -0.5000 
     25 C          -1.8525  -21.1390  -43.6253 C.2       9 UNK         0.5000 
     26 O          -2.6462  -22.0641  -43.7955 O.2       9 UNK        -0.5000 
     27 CA         -2.3925  -19.7392  -43.2801 C.3       9 UNK         0.1400 
     28 CB         -2.2203  -19.4368  -41.7841 C.3       9 UNK        -0.1800 
     29 N          -1.7633  -18.6812  -44.0688 N.am      9 UNK        -0.5000 
     30 C          -1.8232  -18.5872  -45.4047 C.2       8 UNK         0.5000 
     31 O          -2.4525  -19.3615  -46.1234 O.2       8 UNK        -0.5000 
     32 CA         -0.9778  -17.4814  -46.0533 C.3       8 UNK         0.1400 
     33 CB         -1.6533  -16.1059  -45.9309 C.3       8 UNK        -0.1800 
     34 N           0.3701  -17.4286  -45.4872 N.am      8 UNK        -0.5000 
     35 C           1.2798  -18.4048  -45.6205 C.2       7 UNK         0.5000 
     36 O           1.0828  -19.4410  -46.2519 O.2       7 UNK        -0.5000 
     37 CA          2.6178  -18.2039  -44.8895 C.3       7 UNK         0.1400 
     38 CB          3.5597  -17.3234  -45.7239 C.3       7 UNK        -0.1800 
     39 N           2.4422  -17.6116  -43.5627 N.am      7 UNK        -0.5000 
     40 C           1.8308  -18.2212  -42.5363 C.2       6 UNK         0.5000 
     41 O           1.3849  -19.3668  -42.5862 O.2       6 UNK        -0.5000 
     42 CA          1.6352  -17.3834  -41.2603 C.3       6 UNK         0.1400 
     43 CB          2.9061  -17.3936  -40.3981 C.3       6 UNK        -0.1800 
     44 N           1.2557  -15.9990  -41.5502 N.am      6 UNK        -0.5000 
     45 C           0.1168  -15.6283  -42.1520 C.2       5 UNK         0.5000 
     46 O          -0.7292  -16.4340  -42.5409 O.2       5 UNK        -0.5000 
     47 CA         -0.0957  -14.1253  -42.4248 C.3       5 UNK         0.1400 
     48 CB         -1.5248  -13.6677  -42.0671 C.3       5 UNK        -0.1800 
     49 N           0.9222  -13.2422  -41.8342 N.am      5 UNK        -0.5000 
     50 C           1.1170  -12.9660  -40.5345 C.2       4 UNK         0.5000 
     51 O           0.4264  -13.4406  -39.6323 O.2       4 UNK        -0.5000 
     52 CA          2.2992  -12.0414  -40.1649 C.3       4 UNK         0.1400 
     53 CB          3.0754  -12.5868  -38.9524 C.3       4 UNK        -0.1800 
     54 N           3.2514  -11.8403  -41.2610 N.am      4 UNK        -0.5000 
     55 C           3.1730  -10.8872  -42.1972 C.2       3 UNK         0.5000 
     56 O           2.2507  -10.0708  -42.2567 O.2       3 UNK        -0.5000 
     57 CA          4.3131  -10.8377  -43.2333 C.3       3 UNK         0.1400 
     58 CB          4.9718  -12.2086  -43.4962 C.3       3 UNK        -0.1800 
     59 N           3.7932  -10.3154  -44.4902 N.am      3 UNK        -0.5000 
     60 C           4.4321   -9.4952  -45.3332 C.2       2 UNK         0.5000 
     61 O           5.5609   -9.0475  -45.1219 O.2       2 UNK        -0.5000 
     62 CA          3.6761   -9.1156  -46.6289 C.3       2 UNK         0.1400 
     63 CB          4.6166   -8.6967  -47.7787 C.3       2 UNK        -0.1800 
     64 N           2.7333  -10.1552  -47.0640 N.am      2 UNK        -0.5000 
     65 C           3.0211  -11.4190  -47.4203 C.2       1 UNK         0.5000 
     66 O           4.1685  -11.8337  -47.5899 O.2       1 UNK        -0.5000 
     67 C          -2.1125  -22.6319  -48.0588 C.2       11 UNK         0.5000 
     68 O          -2.4688  -23.5087  -48.8452 O.2       11 UNK        -0.5000 
     69 N          -2.9618  -21.9649  -47.2633 N.am      12 UNK        -0.5000 
     70 CA         -4.3941  -22.2530  -47.1700 C.3       12 UNK         0.1400 
     71 CB         -5.1052  -21.1605  -46.3584 C.3       12 UNK        -0.1800 
     72 C          -4.6808  -23.6488  -46.5896 C.2       12 UNK         0.5000 
     73 O          -5.5002  -24.3774  -47.1488 O.2       12 UNK        -0.5000 
     74 N          -3.9762  -24.0137  -45.5084 N.am      13 UNK        -0.5000 
     75 CA         -4.0633  -25.3260  -44.8625 C.3       13 UNK         0.1400 
     76 CB         -3.2895  -25.2986  -43.5359 C.3       13 UNK        -0.1800 
     77 C          -3.5636  -26.4729  -45.7611 C.2       13 UNK         0.5000 
     78 O          -4.1665  -27.5466  -45.7696 O.2       13 UNK        -0.5000 
     79 N          -2.4907  -26.2157  -46.5209 N.am      14 UNK        -0.5000 
     80 CA         -1.9231  -27.1374  -47.5070 C.3       14 UNK         0.1400 
     81 CB         -0.4950  -26.6777  -47.8419 C.3       14 UNK        -0.1800 
     82 C          -2.7558  -27.2513  -48.8007 C.2       14 UNK         0.5000 
     83 O          -2.5224  -28.1762  -49.5795 O.2       14 UNK        -0.5000 
     84 N          -3.6746  -26.2985  -49.0228 N.am      15 UNK        -0.5000 
     85 CA         -4.4562  -26.0751  -50.2447 C.3       15 UNK         0.1400 
     86 CB         -5.4363  -27.2372  -50.5065 C.3       15 UNK        -0.1800 
     87 C          -3.5692  -25.7330  -51.4629 C.2       15 UNK         0.5000 
     88 O          -3.9032  -26.0789  -52.5968 O.2       15 UNK        -0.5000 
     89 N          -2.4518  -25.0475  -51.1919 N.am      16 UNK        -0.5000 
     90 CA         -1.5326  -24.4819  -52.1775 C.3       16 UNK         0.1400 
     91 CB         -0.1149  -24.4854  -51.5837 C.3       16 UNK        -0.1800 
     92 C          -1.9417  -23.0514  -52.5733 C.2       16 UNK         0.5000 
     93 O          -1.4732  -22.5488  -53.5943 O.2       16 UNK        -0.5000 
     94 N          -2.7927  -22.4244  -51.7567 N.am      17 UNK        -0.5000 
     95 CA         -3.4499  -21.1512  -52.0008 C.3       17 UNK         0.1400 
     96 CB         -2.6095  -20.0117  -51.4002 C.3       17 UNK        -0.1800 
     97 C          -4.8454  -21.2092  -51.3650 C.2       17 UNK         0.5000 
     98 O          -5.1575  -22.1735  -50.6594 O.2       17 UNK        -0.5000 
     99 N          -5.6468  -20.1633  -51.6061 N.am      18 UNK        -0.5000 
    100 CA        -6.9714  -19.8713  -51.0399 C.3       18 UNK         0.1400 
    101 CB        -6.9000  -19.7074  -49.5083 C.3       18 UNK        -0.1800 
    102 C         -8.0766  -20.8647  -51.4473 C.2       18 UNK         0.5000 
    103 O         -9.0760  -20.4505  -52.0357 O.2       18 UNK        -0.5000 
    104 N         -7.8786  -22.1506  -51.1364 N.am      19 UNK        -0.5000 
    105 CA        -8.7595  -23.2573  -51.5078 C.3       19 UNK         0.1400 
    106 CB        -8.3734  -24.5009  -50.6924 C.3       19 UNK        -0.1800 
    107 C         -8.6997  -23.5561  -53.0164 C.2       19 UNK         0.5000 
    108 O         -9.7282  -23.8611  -53.6214 O.2       19 UNK        -0.5000 
    109 N         -7.4998  -23.4324  -53.5925 N.am      20 UNK        -0.5000 
    110 CA        -7.2028  -23.5614  -55.0117 C.3       20 UNK         0.1400 
    111 CB        -7.2281  -25.0417  -55.4362 C.3       20 UNK        -0.1800 
    112 C         -5.8176  -22.9513  -55.2568 C.2       20 UNK         0.5000 
    113 O         -4.9545  -23.0547  -54.3824 O.2       20 UNK        -0.5000 
    114 N         -5.6334  -22.3588  -56.4449 N.am      21 UNK        -0.5000 
    115 CA        -4.3880  -21.7762  -56.9617 C.3       21 UNK         0.1400 
    116 CB        -3.3736  -22.9049  -57.2594 C.3       21 UNK        -0.1800 
    117 C         -3.7991  -20.6568  -56.0690 C.2       21 UNK         0.5000 
    118 O         -4.5251  -20.0358  -55.2882 O.2       21 UNK        -0.5000 
    119 N         -2.4951  -20.4087  -56.2221 N.am      22 UNK        -0.5000 
    120 CA        -1.6671  -19.5528  -55.3706 C.3       22 UNK         0.1400 
    121 C         -0.1808  -19.9115  -55.6276 C.2       22 UNK         0.5000 
    122 N          0.2880  -21.0306  -55.0963 N.am      22 UNK        -0.7600 
    123 O          0.5414  -19.2114  -56.3319 O.2       22 UNK        -0.5000 
    124 C124       -1.9895  -18.0318  -55.4849 C.3       23 UNK        -0.0398 
    125 S125       -1.9473  -17.1980  -53.8618 S.3       23 UNK        -0.2404 
    126 C126       -0.1846  -16.7772  -53.6896 C.3       23 UNK        -0.0205 
    127 H127       -1.3562  -10.7401  -45.6828 H         1 UNK         0.0600 
    128 H128       -0.6904  -10.8103  -44.0495 H         1 UNK         0.0600 
    129 H129       -1.4798  -12.2323  -44.7434 H         1 UNK         0.0600 
    130 H130       -0.1638  -11.6676  -47.4255 H         1 UNK         0.3000 
    131 H131        1.5335  -12.3128  -48.6289 H         1 UNK         0.0600 
    132 H132        3.0475  -13.9400  -46.5973 H         1 UNK         0.0800 
    133 H133        1.3783  -14.3472  -46.7006 H         1 UNK         0.0800 
    134 H134        0.7798  -16.3035  -47.9363 H         1 UNK         0.0800 
    135 H135        0.1002  -15.0477  -48.9434 H         1 UNK         0.0800 
    136 H136        0.0448  -15.3130  -51.4012 H         1 UNK         0.1150 
    137 H137        0.7750  -19.2271  -52.9811 H         1 UNK         0.1150 
    138 H138        1.7441  -18.3423  -48.8978 H         1 UNK         0.1150 
    139 H139        1.2850  -21.0463  -51.4820 H         1 UNK         0.0800 
    140 H140        2.8546  -20.4164  -51.0471 H         1 UNK         0.0800 
    141 H141       -0.6005  -21.3996  -49.9125 H         1 UNK         0.0800 
    142 H142       -0.5642  -20.2321  -48.6051 H         1 UNK         0.0800 
    143 H143       -0.0873  -23.2283  -48.2401 H         1 UNK         0.0600 
    144 H144        0.1372  -21.1072  -46.3576 H         1 UNK         0.3000 
    145 H145       -0.1412  -23.2749  -43.4646 H         1 UNK         0.0600 
    146 H146        1.9716  -22.0756  -43.0300 H         1 UNK         0.0600 
    147 H147        2.0396  -21.5122  -44.6983 H         1 UNK         0.0600 
    148 H148        2.2013  -23.2262  -44.3376 H         1 UNK         0.0600 
    149 H149        0.0672  -20.4608  -43.5624 H         1 UNK         0.3000 
    150 H150       -3.4603  -19.7302  -43.5075 H         1 UNK         0.0600 
    151 H151       -2.6672  -18.4774  -41.5228 H         1 UNK         0.0600 
    152 H152       -1.1689  -19.4030  -41.4976 H         1 UNK         0.0600 
    153 H153       -2.7040  -20.1998  -41.1731 H         1 UNK         0.0600 
    154 H154       -1.2473  -17.9745  -43.5515 H         1 UNK         0.3000 
    155 H155       -0.8906  -17.7226  -47.1149 H         1 UNK         0.0600 
    156 H156       -2.6387  -16.1174  -46.3981 H         1 UNK         0.0600 
    157 H157       -1.0697  -15.3300  -46.4260 H         1 UNK         0.0600 
    158 H158       -1.7906  -15.8087  -44.8916 H         1 UNK         0.0600 
    159 H159        0.5896  -16.6402  -44.8993 H         1 UNK         0.3000 
    160 H160        3.0829  -19.1844  -44.7679 H         1 UNK         0.0600 
    161 H161        3.1692  -16.3127  -45.8404 H         1 UNK         0.0600 
    162 H162        3.6986  -17.7375  -46.7238 H         1 UNK         0.0600 
    163 H163        4.5446  -17.2516  -45.2624 H         1 UNK         0.0600 
    164 H164        2.7813  -16.6704  -43.4318 H         1 UNK         0.3000 
    165 H165        0.8272  -17.8396  -40.6845 H         1 UNK         0.0600 
    166 H166        2.7478  -16.8661  -39.4572 H         1 UNK         0.0600 
    167 H167        3.2014  -18.4144  -40.1515 H         1 UNK         0.0600 
    168 H168        3.7466  -16.9230  -40.9096 H         1 UNK         0.0600 
    169 H169        1.8958  -15.2767  -41.2577 H         1 UNK         0.3000 
    170 H170        0.0118  -14.0207  -43.5035 H         1 UNK         0.0600 
    171 H171       -1.7682  -13.8692  -41.0238 H         1 UNK         0.0600 
    172 H172       -1.6551  -12.5999  -42.2413 H         1 UNK         0.0600 
    173 H173       -2.2641  -14.1884  -42.6768 H         1 UNK         0.0600 
    174 H174        1.5237  -12.7834  -42.5075 H         1 UNK         0.3000 
    175 H175        1.8704  -11.0783  -39.8805 H         1 UNK         0.0600 
    176 H176        3.4929  -13.5744  -39.1524 H         1 UNK         0.0600 
    177 H177        3.8969  -11.9240  -38.6797 H         1 UNK         0.0600 
    178 H178        2.4317  -12.6733  -38.0761 H         1 UNK         0.0600 
    179 H179        4.0333  -12.4786  -41.2925 H         1 UNK         0.3000 
    180 H180        5.0660  -10.1553  -42.8344 H         1 UNK         0.0600 
    181 H181        5.7250  -12.1358  -44.2812 H         1 UNK         0.0600 
    182 H182        4.2382  -12.9513  -43.8137 H         1 UNK         0.0600 
    183 H183        5.4783  -12.5899  -42.6091 H         1 UNK         0.0600 
    184 H184        2.8571  -10.6318  -44.7175 H         1 UNK         0.3000 
    185 H185        3.0684   -8.2465  -46.3735 H         1 UNK         0.0600 
    186 H186        4.0534   -8.4446  -48.6771 H         1 UNK         0.0600 
    187 H187        5.1989   -7.8163  -47.5050 H         1 UNK         0.0600 
    188 H188        5.3234   -9.4861  -48.0353 H         1 UNK         0.0600 
    189 H189        1.7558   -9.9195  -46.9656 H         1 UNK         0.3000 
    190 H190       -2.6131  -21.2102  -46.6788 H         1 UNK         0.3000 
    191 H191       -4.8039  -22.2319  -48.1785 H         1 UNK         0.0600 
    192 H192       -4.9928  -20.1850  -46.8317 H         1 UNK         0.0600 
    193 H193       -4.7116  -21.0888  -45.3446 H         1 UNK         0.0600 
    194 H194       -6.1743  -21.3627  -46.2839 H         1 UNK         0.0600 
    195 H195       -3.3488  -23.3389  -45.0789 H         1 UNK         0.3000 
    196 H196       -5.1146  -25.5172  -44.6375 H         1 UNK         0.0600 
    197 H197       -3.6980  -24.5492  -42.8577 H         1 UNK         0.0600 
    198 H198       -2.2345  -25.0693  -43.6897 H         1 UNK         0.0600 
    199 H199       -3.3470  -26.2624  -43.0286 H         1 UNK         0.0600 
    200 H200       -2.0052  -25.3320  -46.3934 H         1 UNK         0.3000 
    201 H201       -1.8678  -28.1325  -47.0611 H         1 UNK         0.0600 
    202 H202        0.1278  -26.6398  -46.9479 H         1 UNK         0.0600 
    203 H203       -0.4900  -25.6863  -48.2960 H         1 UNK         0.0600 
    204 H204       -0.0154  -27.3620  -48.5429 H         1 UNK         0.0600 
    205 H205       -3.7744  -25.5801  -48.3172 H         1 UNK         0.3000 
    206 H206       -5.0514  -25.1811  -50.0527 H         1 UNK         0.0600 
    207 H207       -4.9150  -28.1597  -50.7627 H         1 UNK         0.0600 
    208 H208       -6.0565  -27.4320  -49.6316 H         1 UNK         0.0600 
    209 H209       -6.1075  -27.0031  -51.3334 H         1 UNK         0.0600 
    210 H210       -2.3105  -24.7492  -50.2300 H         1 UNK         0.3000 
    211 H211       -1.5350  -25.0956  -53.0806 H         1 UNK         0.0600 
    212 H212       -0.0526  -23.8715  -50.6848 H         1 UNK         0.0600 
    213 H213        0.6095  -24.0937  -52.2989 H         1 UNK         0.0600 
    214 H214        0.1996  -25.4957  -51.3213 H         1 UNK         0.0600 
    215 H215       -3.1602  -22.9264  -50.9562 H         1 UNK         0.3000 
    216 H216       -3.5692  -21.0042  -53.0734 H         1 UNK         0.0600 
    217 H217       -3.0279  -19.0380  -51.6549 H         1 UNK         0.0600 
    218 H218       -2.5692  -20.0724  -50.3124 H         1 UNK         0.0600 
    219 H219       -1.5888  -20.0315  -51.7800 H         1 UNK         0.0600 
    220 H220       -5.3045  -19.4593  -52.2457 H         1 UNK         0.3000 
    221 H221       -7.2569  -18.9023  -51.4527 H         1 UNK         0.0600 
    222 H222       -6.6333  -20.6377  -49.0068 H         1 UNK         0.0600 
    223 H223       -6.1643  -18.9542  -49.2263 H         1 UNK         0.0600 
    224 H224       -7.8625  -19.3882  -49.1069 H         1 UNK         0.0600 
    225 H225       -6.9861  -22.3876  -50.7092 H         1 UNK         0.3000 
    226 H226       -9.7860  -22.9830  -51.2559 H         1 UNK         0.0600 
    227 H227       -8.4588  -24.3139  -49.6218 H         1 UNK         0.0600 
    228 H228       -9.0252  -25.3425  -50.9299 H         1 UNK         0.0600 
    229 H229       -7.3484  -24.8106  -50.8966 H         1 UNK         0.0600 
    230 H230       -6.7003  -23.1699  -53.0295 H         1 UNK         0.3000 
    231 H231       -7.9467  -23.0006  -55.5815 H         1 UNK         0.0600 
    232 H232       -6.9666  -25.1504  -56.4894 H         1 UNK         0.0600 
    233 H233       -8.2166  -25.4807  -55.3024 H         1 UNK         0.0600 
    234 H234       -6.5173  -25.6342  -54.8580 H         1 UNK         0.0600 
    235 H235       -6.4226  -22.3002  -57.0729 H         1 UNK         0.3000 
    236 H236       -4.6476  -21.3026  -57.9094 H         1 UNK         0.0600 
    237 H237       -2.9677  -23.3336  -56.3416 H         1 UNK         0.0600 
    238 H238       -3.8392  -23.7128  -57.8241 H         1 UNK         0.0600 
    239 H239       -2.5356  -22.5467  -57.8578 H         1 UNK         0.0600 
    240 H240       -1.9724  -20.9647  -56.8848 H         1 UNK         0.3000 
    241 H241       -1.8784  -19.8647  -54.3466 H         1 UNK         0.0600 
    242 H242        1.2430  -21.3022  -55.2649 H         1 UNK         0.3800 
    243 H243       -0.3227  -21.6344  -54.5428 H         1 UNK         0.3800 
    244 H244       -2.9986  -17.8856  -55.8706 H         1 UNK         0.0800 
    245 H245       -1.3437  -17.5126  -56.1943 H         1 UNK         0.0800 
    246 H246        0.4066  -17.2325  -54.4839 H         1 UNK         0.0800 
    247 H247       -0.0655  -15.6993  -53.8090 H         1 UNK         0.0800 
@<TRIPOS>BOND
     1    1    2 1    
     2    1  127 1    
     3    1  128 1    
     4    1  129 1    
     5    2    3 2    
     6    2    4 am   BACKBONE|DICT|INTERRES
     7    4    5 1    
     8    4  130 1    
     9    5    6 1    
    10    5   65 1    
    11    5  131 1    
    12    6    7 1    
    13    6  132 1    
    14    6  133 1    
    15    7    8 1    
    16    8    9 1    
    17    8  134 1    
    18    8  135 1    
    19    9   10 ar   
    20    9   14 ar   
    21   10   11 ar   
    22   10  136 1    
    23   11   12 ar   
    24   11  126 1    
    25   12   13 ar   
    26   12  137 1    
    27   13   14 ar   
    28   13   15 1    
    29   14  138 1    
    30   15   16 1    
    31   15  139 1    
    32   15  140 1    
    33   16   17 1    
    34   17   18 1    
    35   17  141 1    
    36   17  142 1    
    37   18   19 1    
    38   18   67 1    
    39   18  143 1    
    40   19   20 am   BACKBONE|DICT|INTERRES
    41   19  144 1    
    42   20   21 2    
    43   20   22 1    
    44   22   23 1    
    45   22   24 1    
    46   22  145 1    
    47   23  146 1    
    48   23  147 1    
    49   23  148 1    
    50   24   25 am   BACKBONE|DICT|INTERRES
    51   24  149 1    
    52   25   26 2    
    53   25   27 1    
    54   27   28 1    
    55   27   29 1    
    56   27  150 1    
    57   28  151 1    
    58   28  152 1    
    59   28  153 1    
    60   29   30 am   BACKBONE|DICT|INTERRES
    61   29  154 1    
    62   30   31 2    
    63   30   32 1    
    64   32   33 1    
    65   32   34 1    
    66   32  155 1    
    67   33  156 1    
    68   33  157 1    
    69   33  158 1    
    70   34   35 am   BACKBONE|DICT|INTERRES
    71   34  159 1    
    72   35   36 2    
    73   35   37 1    
    74   37   38 1    
    75   37   39 1    
    76   37  160 1    
    77   38  161 1    
    78   38  162 1    
    79   38  163 1    
    80   39   40 am   BACKBONE|DICT|INTERRES
    81   39  164 1    
    82   40   41 2    
    83   40   42 1    
    84   42   43 1    
    85   42   44 1    
    86   42  165 1    
    87   43  166 1    
    88   43  167 1    
    89   43  168 1    
    90   44   45 am   BACKBONE|DICT|INTERRES
    91   44  169 1    
    92   45   46 2    
    93   45   47 1    
    94   47   48 1    
    95   47   49 1    
    96   47  170 1    
    97   48  171 1    
    98   48  172 1    
    99   48  173 1    
   100   49   50 am   BACKBONE|DICT|INTERRES
   101   49  174 1    
   102   50   51 2    
   103   50   52 1    
   104   52   53 1    
   105   52   54 1    
   106   52  175 1    
   107   53  176 1    
   108   53  177 1    
   109   53  178 1    
   110   54   55 am   BACKBONE|DICT|INTERRES
   111   54  179 1    
   112   55   56 2    
   113   55   57 1    
   114   57   58 1    
   115   57   59 1    
   116   57  180 1    
   117   58  181 1    
   118   58  182 1    
   119   58  183 1    
   120   59   60 am   BACKBONE|DICT|INTERRES
   121   59  184 1    
   122   60   61 2    
   123   60   62 1    
   124   62   63 1    
   125   62   64 1    
   126   62  185 1    
   127   63  186 1    
   128   63  187 1    
   129   63  188 1    
   130   64   65 am   BACKBONE|DICT|INTERRES
   131   64  189 1    
   132   65   66 2    
   133   67   68 2    
   134   67   69 am   BACKBONE|DICT|INTERRES
   135   69   70 1    
   136   69  190 1    
   137   70   71 1    
   138   70   72 1    
   139   70  191 1    
   140   71  192 1    
   141   71  193 1    
   142   71  194 1    
   143   72   73 2    
   144   72   74 am   BACKBONE|DICT|INTERRES
   145   74   75 1    
   146   74  195 1    
   147   75   76 1    
   148   75   77 1    
   149   75  196 1    
   150   76  197 1    
   151   76  198 1    
   152   76  199 1    
   153   77   78 2    
   154   77   79 am   BACKBONE|DICT|INTERRES
   155   79   80 1    
   156   79  200 1    
   157   80   81 1    
   158   80   82 1    
   159   80  201 1    
   160   81  202 1    
   161   81  203 1    
   162   81  204 1    
   163   82   83 2    
   164   82   84 am   BACKBONE|DICT|INTERRES
   165   84   85 1    
   166   84  205 1    
   167   85   86 1    
   168   85   87 1    
   169   85  206 1    
   170   86  207 1    
   171   86  208 1    
   172   86  209 1    
   173   87   88 2    
   174   87   89 am   BACKBONE|DICT|INTERRES
   175   89   90 1    
   176   89  210 1    
   177   90   91 1    
   178   90   92 1    
   179   90  211 1    
   180   91  212 1    
   181   91  213 1    
   182   91  214 1    
   183   92   93 2    
   184   92   94 am   BACKBONE|DICT|INTERRES
   185   94   95 1    
   186   94  215 1    
   187   95   96 1    
   188   95   97 1    
   189   95  216 1    
   190   96  217 1    
   191   96  218 1    
   192   96  219 1    
   193   97   98 2    
   194   97   99 am   BACKBONE|DICT|INTERRES
   195   99  100 1    
   196   99  220 1    
   197  100  101 1    
   198  100  102 1    
   199  100  221 1    
   200  101  222 1    
   201  101  223 1    
   202  101  224 1    
   203  102  103 2    
   204  102  104 am   BACKBONE|DICT|INTERRES
   205  104  105 1    
   206  104  225 1    
   207  105  106 1    
   208  105  107 1    
   209  105  226 1    
   210  106  227 1    
   211  106  228 1    
   212  106  229 1    
   213  107  108 2    
   214  107  109 am   BACKBONE|DICT|INTERRES
   215  109  110 1    
   216  109  230 1    
   217  110  111 1    
   218  110  112 1    
   219  110  231 1    
   220  111  232 1    
   221  111  233 1    
   222  111  234 1    
   223  112  113 2    
   224  112  114 am   BACKBONE|DICT|INTERRES
   225  114  115 1    
   226  114  235 1    
   227  115  116 1    
   228  115  117 1    
   229  115  236 1    
   230  116  237 1    
   231  116  238 1    
   232  116  239 1    
   233  117  118 2    
   234  117  119 am   BACKBONE|DICT|INTERRES
   235  119  120 1    
   236  119  240 1    
   237  120  121 1    
   238  120  124 1    
   239  120  241 1    
   240  121  122 am   BACKBONE|DICT|INTERRES
   241  121  123 2    
   242  122  242 1    
   243  122  243 1    
   244  124  125 1    
   245  124  244 1    
   246  124  245 1    
   247  125  126 1    
   248  126  246 1    
   249  126  247 1    
@<TRIPOS>SUBSTRUCTURE
     1 UNK         1 GROUP             0       ****    0 ROOT    
