@<TRIPOS>MOLECULE
3R540
247   249    1
SMALL
USER_CHARGES


@<TRIPOS>ATOM
      1 CA          5.3414  -12.5078  -50.4278 C.3       0 UNK        -0.1800 
      2 C           4.6281  -13.0634  -49.2030 C.2       0 UNK         0.5000 
      3 O           5.0684  -12.8276  -48.0774 O.2       0 UNK        -0.5000 
      4 N           3.5364  -13.8066  -49.4178 N.am      1 UNK        -0.5000 
      5 CA          2.6749  -14.3574  -48.3685 C.3       1 UNK         0.1400 
      6 C6          1.8088  -15.5269  -48.9055 C.3       23 UNK        -0.0398 
      7 S7          0.6642  -15.0694  -50.2584 S.3       23 UNK        -0.2404 
      8 C8         -0.4324  -16.5200  -50.3284 C.3       23 UNK        -0.0205 
      9 C9          0.2137  -17.6842  -51.0625 C.ar      23 UNK        -0.0193 
     10 C10        -0.0175  -17.8615  -52.4297 C.ar      23 UNK        -0.1150 
     11 C11         0.5606  -18.9334  -53.1157 C.ar      23 UNK        -0.0193 
     12 C12         1.3750  -19.8325  -52.4218 C.ar      23 UNK        -0.1150 
     13 C13         1.6041  -19.6733  -51.0524 C.ar      23 UNK        -0.0193 
     14 C14         1.0245  -18.5946  -50.3777 C.ar      23 UNK        -0.1150 
     15 C15         2.4724  -20.6745  -50.3077 C.3       23 UNK        -0.0205 
     16 S16         1.4850  -22.0578  -49.6564 S.3       23 UNK        -0.2404 
     17 C17         0.7375  -21.2894  -48.1826 C.3       23 UNK        -0.0398 
     18 CA          0.1605  -22.3322  -47.1983 C.3       11 UNK         0.1400 
     19 N           0.1942  -21.8541  -45.8138 N.am      11 UNK        -0.5000 
     20 C          -0.0132  -22.6318  -44.7424 C.2       10 UNK         0.5000 
     21 O          -0.2608  -23.8350  -44.8164 O.2       10 UNK        -0.5000 
     22 CA          0.0004  -21.9425  -43.3670 C.3       10 UNK         0.1400 
     23 CB          1.4342  -21.6072  -42.9308 C.3       10 UNK        -0.1800 
     24 N          -0.8148  -20.7293  -43.3537 N.am      10 UNK        -0.5000 
     25 C          -2.1422  -20.7035  -43.5420 C.2       9 UNK         0.5000 
     26 O          -2.8372  -21.7100  -43.6784 O.2       9 UNK        -0.5000 
     27 CA         -2.7945  -19.3141  -43.6383 C.3       9 UNK         0.1400 
     28 CB         -3.0906  -18.7520  -42.2404 C.3       9 UNK        -0.1800 
     29 N          -1.9648  -18.3681  -44.3858 N.am      9 UNK        -0.5000 
     30 C          -1.7211  -18.4551  -45.7012 C.2       8 UNK         0.5000 
     31 O          -2.1732  -19.3378  -46.4277 O.2       8 UNK        -0.5000 
     32 CA         -0.7704  -17.4058  -46.2969 C.3       8 UNK         0.1400 
     33 CB         -1.5214  -16.0979  -46.5872 C.3       8 UNK        -0.1800 
     34 N           0.3860  -17.1506  -45.4356 N.am      8 UNK        -0.5000 
     35 C           1.3455  -18.0612  -45.2093 C.2       7 UNK         0.5000 
     36 O           1.3522  -19.1811  -45.7176 O.2       7 UNK        -0.5000 
     37 CA          2.4659  -17.6818  -44.2263 C.3       7 UNK         0.1400 
     38 CB          3.5865  -16.9297  -44.9596 C.3       7 UNK        -0.1800 
     39 N           2.0123  -16.8756  -43.0946 N.am      7 UNK        -0.5000 
     40 C           1.0652  -17.2204  -42.2146 C.2       6 UNK         0.5000 
     41 O           0.4491  -18.2871  -42.2562 O.2       6 UNK        -0.5000 
     42 CA          0.7858  -16.1905  -41.1086 C.3       6 UNK         0.1400 
     43 CB         -0.4000  -16.5977  -40.2180 C.3       6 UNK        -0.1800 
     44 N           1.9675  -16.0612  -40.2567 N.am      6 UNK        -0.5000 
     45 C           2.8997  -15.0983  -40.1644 C.2       5 UNK         0.5000 
     46 O           3.8664  -15.2559  -39.4207 O.2       5 UNK        -0.5000 
     47 CA          2.8225  -13.7707  -40.9595 C.3       5 UNK         0.1400 
     48 CB          3.3988  -13.9106  -42.3788 C.3       5 UNK        -0.1800 
     49 N           1.5208  -13.1070  -41.0130 N.am      5 UNK        -0.5000 
     50 C           0.8322  -12.6424  -39.9615 C.2       4 UNK         0.5000 
     51 O           1.2122  -12.7407  -38.7946 O.2       4 UNK        -0.5000 
     52 CA         -0.4947  -11.9190  -40.2679 C.3       4 UNK         0.1400 
     53 CB         -0.2913  -10.3963  -40.2241 C.3       4 UNK        -0.1800 
     54 N          -1.0461  -12.2808  -41.5771 N.am      4 UNK        -0.5000 
     55 C          -1.8328  -13.3423  -41.8007 C.2       3 UNK         0.5000 
     56 O          -2.2250  -14.0959  -40.9120 O.2       3 UNK        -0.5000 
     57 CA         -2.2502  -13.6202  -43.2572 C.3       3 UNK         0.1400 
     58 CB         -3.6989  -13.1706  -43.4984 C.3       3 UNK        -0.1800 
     59 N          -1.3802  -12.9684  -44.2401 N.am      3 UNK        -0.5000 
     60 C          -0.1943  -13.4438  -44.6346 C.2       2 UNK         0.5000 
     61 O           0.3043  -14.4927  -44.2140 O.2       2 UNK        -0.5000 
     62 CA          0.5663  -12.6015  -45.6636 C.3       2 UNK         0.1400 
     63 CB          1.4022  -11.5121  -44.9704 C.3       2 UNK        -0.1800 
     64 N           1.4345  -13.4803  -46.4399 N.am      2 UNK        -0.5000 
     65 C           1.8259  -13.2517  -47.6978 C.2       1 UNK         0.5000 
     66 O           1.5264  -12.2327  -48.3272 O.2       1 UNK        -0.5000 
     67 C          -1.2461  -22.8162  -47.6140 C.2       11 UNK         0.5000 
     68 O          -1.3605  -23.8387  -48.2887 O.2       11 UNK        -0.5000 
     69 N          -2.3000  -22.1281  -47.1516 N.am      12 UNK        -0.5000 
     70 CA         -3.6995  -22.5165  -47.3529 C.3       12 UNK         0.1400 
     71 CB         -4.6178  -21.3532  -46.9510 C.3       12 UNK        -0.1800 
     72 C          -4.1033  -23.8149  -46.6229 C.2       12 UNK         0.5000 
     73 O          -5.1218  -24.4049  -46.9815 O.2       12 UNK        -0.5000 
     74 N          -3.3081  -24.2532  -45.6390 N.am      13 UNK        -0.5000 
     75 CA         -3.4401  -25.5598  -45.0006 C.3       13 UNK         0.1400 
     76 CB         -3.0814  -25.4430  -43.5103 C.3       13 UNK        -0.1800 
     77 C          -2.5554  -26.6048  -45.7038 C.2       13 UNK         0.5000 
     78 O          -3.0319  -27.7010  -45.9993 O.2       13 UNK        -0.5000 
     79 N          -1.2833  -26.2562  -45.9432 N.am      14 UNK        -0.5000 
     80 CA         -0.2558  -27.1608  -46.4589 C.3       14 UNK         0.1400 
     81 CB          1.1310  -26.5621  -46.1739 C.3       14 UNK        -0.1800 
     82 C          -0.4038  -27.4930  -47.9546 C.2       14 UNK         0.5000 
     83 O          -0.3609  -28.6689  -48.3194 O.2       14 UNK        -0.5000 
     84 N          -0.5441  -26.4585  -48.7916 N.am      15 UNK        -0.5000 
     85 CA         -0.5945  -26.5641  -50.2520 C.3       15 UNK         0.1400 
     86 CB          0.3065  -25.4765  -50.8580 C.3       15 UNK        -0.1800 
     87 C          -2.0233  -26.4174  -50.7987 C.2       15 UNK         0.5000 
     88 O          -2.2787  -26.8371  -51.9277 O.2       15 UNK        -0.5000 
     89 N          -2.9176  -25.8024  -50.0117 N.am      16 UNK        -0.5000 
     90 CA         -4.3384  -25.5265  -50.2660 C.3       16 UNK         0.1400 
     91 CB         -5.1321  -26.8166  -50.5445 C.3       16 UNK        -0.1800 
     92 C          -4.6066  -24.4586  -51.3430 C.2       16 UNK         0.5000 
     93 O          -5.4822  -23.6166  -51.1439 O.2       16 UNK        -0.5000 
     94 N          -3.8389  -24.4805  -52.4408 N.am      17 UNK        -0.5000 
     95 CA         -3.9525  -23.5939  -53.6046 C.3       17 UNK         0.1400 
     96 CB         -2.8668  -23.9723  -54.6225 C.3       17 UNK        -0.1800 
     97 C          -3.8736  -22.0917  -53.2722 C.2       17 UNK         0.5000 
     98 O          -4.5158  -21.2834  -53.9446 O.2       17 UNK        -0.5000 
     99 N          -3.1346  -21.7508  -52.2081 N.am      18 UNK        -0.5000 
    100 CA        -2.9838  -20.4003  -51.6658 C.3       18 UNK         0.1400 
    101 CB        -2.0202  -20.4557  -50.4787 C.3       18 UNK        -0.1800 
    102 C         -4.3065  -19.7384  -51.2343 C.2       18 UNK         0.5000 
    103 O         -4.3961  -18.5115  -51.2675 O.2       18 UNK        -0.5000 
    104 N         -5.3265  -20.5435  -50.8955 N.am      19 UNK        -0.5000 
    105 CA        -6.6826  -20.0767  -50.5892 C.3       19 UNK         0.1400 
    106 CB        -7.5032  -21.2443  -50.0219 C.3       19 UNK        -0.1800 
    107 C         -7.4016  -19.4528  -51.8051 C.2       19 UNK         0.5000 
    108 O         -8.3019  -18.6337  -51.6200 O.2       19 UNK        -0.5000 
    109 N         -6.9730  -19.8286  -53.0174 N.am      20 UNK        -0.5000 
    110 CA        -7.4116  -19.2701  -54.2962 C.3       20 UNK         0.1400 
    111 CB        -7.8234  -20.4346  -55.2143 C.3       20 UNK        -0.1800 
    112 C         -6.2995  -18.4136  -54.9391 C.2       20 UNK         0.5000 
    113 O         -6.3452  -18.1670  -56.1462 O.2       20 UNK        -0.5000 
    114 N         -5.2921  -18.0160  -54.1421 N.am      21 UNK        -0.5000 
    115 CA        -4.0815  -17.2764  -54.5264 C.3       21 UNK         0.1400 
    116 CB        -4.4365  -15.8227  -54.8986 C.3       21 UNK        -0.1800 
    117 C         -3.2431  -17.9822  -55.6163 C.2       21 UNK         0.5000 
    118 O         -2.5274  -17.3194  -56.3689 O.2       21 UNK        -0.5000 
    119 N         -3.3618  -19.3144  -55.6849 N.am      22 UNK        -0.5000 
    120 CA        -2.7780  -20.2050  -56.6991 C.3       22 UNK         0.1400 
    121 C         -3.3430  -20.0000  -58.1387 C.2       22 UNK         0.5000 
    122 N         -4.4919  -19.3552  -58.3148 N.am      22 UNK        -0.7600 
    123 O         -2.7522  -20.4584  -59.1129 O.2       22 UNK        -0.5000 
    124 C124       -1.2257  -20.2673  -56.6511 C.3       23 UNK        -0.0398 
    125 S125       -0.5956  -20.6385  -54.9754 S.3       23 UNK        -0.2404 
    126 C126        0.3186  -19.1076  -54.6071 C.3       23 UNK        -0.0205 
    127 H127        6.3698  -12.8676  -50.4590 H         1 UNK         0.0600 
    128 H128        5.3608  -11.4187  -50.3884 H         1 UNK         0.0600 
    129 H129        4.8486  -12.8057  -51.3537 H         1 UNK         0.0600 
    130 H130        3.1974  -13.9335  -50.3609 H         1 UNK         0.3000 
    131 H131        3.3298  -14.7706  -47.5982 H         1 UNK         0.0600 
    132 H132        1.2403  -15.9761  -48.0912 H         1 UNK         0.0800 
    133 H133        2.4661  -16.3155  -49.2738 H         1 UNK         0.0800 
    134 H134       -1.3553  -16.2330  -50.8349 H         1 UNK         0.0800 
    135 H135       -0.7279  -16.8203  -49.3247 H         1 UNK         0.0800 
    136 H136       -0.6456  -17.1595  -52.9600 H         1 UNK         0.1150 
    137 H137        1.8192  -20.6657  -52.9482 H         1 UNK         0.1150 
    138 H138        1.1980  -18.4698  -49.3185 H         1 UNK         0.1150 
    139 H139        3.2312  -21.0749  -50.9817 H         1 UNK         0.0800 
    140 H140        3.0167  -20.1842  -49.4992 H         1 UNK         0.0800 
    141 H141       -0.0090  -20.5482  -48.4698 H         1 UNK         0.0800 
    142 H142        1.5388  -20.7350  -47.6958 H         1 UNK         0.0800 
    143 H143        0.8126  -23.2080  -47.2240 H         1 UNK         0.0600 
    144 H144        0.4218  -20.8729  -45.6776 H         1 UNK         0.3000 
    145 H145       -0.4228  -22.6389  -42.6402 H         1 UNK         0.0600 
    146 H146        1.4487  -21.1606  -41.9364 H         1 UNK         0.0600 
    147 H147        1.9131  -20.9084  -43.6165 H         1 UNK         0.0600 
    148 H148        2.0506  -22.5062  -42.8943 H         1 UNK         0.0600 
    149 H149       -0.3307  -19.8517  -43.1891 H         1 UNK         0.3000 
    150 H150       -3.7430  -19.4221  -44.1684 H         1 UNK         0.0600 
    151 H151       -3.7976  -19.3905  -41.7095 H         1 UNK         0.0600 
    152 H152       -3.5291  -17.7555  -42.2955 H         1 UNK         0.0600 
    153 H153       -2.1885  -18.6926  -41.6319 H         1 UNK         0.0600 
    154 H154       -1.4951  -17.6534  -43.8508 H         1 UNK         0.3000 
    155 H155       -0.4000  -17.8040  -47.2433 H         1 UNK         0.0600 
    156 H156       -2.3462  -16.2707  -47.2797 H         1 UNK         0.0600 
    157 H157       -0.8695  -15.3534  -47.0426 H         1 UNK         0.0600 
    158 H158       -1.9454  -15.6668  -45.6807 H         1 UNK         0.0600 
    159 H159        0.4139  -16.2645  -44.9393 H         1 UNK         0.3000 
    160 H160        2.8795  -18.6091  -43.8255 H         1 UNK         0.0600 
    161 H161        3.2484  -15.9615  -45.3292 H         1 UNK         0.0600 
    162 H162        3.9481  -17.5015  -45.8156 H         1 UNK         0.0600 
    163 H163        4.4397  -16.7573  -44.3032 H         1 UNK         0.0600 
    164 H164        2.4572  -15.9777  -42.9869 H         1 UNK         0.3000 
    165 H165        0.5233  -15.2660  -41.6122 H         1 UNK         0.0600 
    166 H166       -0.5764  -15.8559  -39.4388 H         1 UNK         0.0600 
    167 H167       -1.3169  -16.6727  -40.8022 H         1 UNK         0.0600 
    168 H168       -0.2361  -17.5602  -39.7319 H         1 UNK         0.0600 
    169 H169        2.1374  -16.8843  -39.6977 H         1 UNK         0.3000 
    170 H170        3.4845  -13.0816  -40.4301 H         1 UNK         0.0600 
    171 H171        4.2669  -14.5714  -42.3970 H         1 UNK         0.0600 
    172 H172        2.6684  -14.2941  -43.0869 H         1 UNK         0.0600 
    173 H173        3.7323  -12.9425  -42.7524 H         1 UNK         0.0600 
    174 H174        1.1175  -12.9843  -41.9283 H         1 UNK         0.3000 
    175 H175       -1.2071  -12.1880  -39.4849 H         1 UNK         0.0600 
    176 H176        0.4168  -10.0613  -40.9832 H         1 UNK         0.0600 
    177 H177       -1.2315   -9.8686  -40.3852 H         1 UNK         0.0600 
    178 H178        0.0942  -10.0810  -39.2536 H         1 UNK         0.0600 
    179 H179       -0.8029  -11.6870  -42.3557 H         1 UNK         0.3000 
    180 H180       -2.2037  -14.7014  -43.4049 H         1 UNK         0.0600 
    181 H181       -4.0275  -13.4258  -44.5061 H         1 UNK         0.0600 
    182 H182       -3.8140  -12.0937  -43.3691 H         1 UNK         0.0600 
    183 H183       -4.3816  -13.6599  -42.8023 H         1 UNK         0.0600 
    184 H184       -1.7248  -12.1073  -44.6408 H         1 UNK         0.3000 
    185 H185       -0.1652  -12.1340  -46.3265 H         1 UNK         0.0600 
    186 H186        2.1541  -11.9418  -44.3090 H         1 UNK         0.0600 
    187 H187        1.9201  -10.8898  -45.7004 H         1 UNK         0.0600 
    188 H188        0.7738  -10.8513  -44.3723 H         1 UNK         0.0600 
    189 H189        1.6784  -14.3403  -45.9695 H         1 UNK         0.3000 
    190 H190       -2.1445  -21.2598  -46.6467 H         1 UNK         0.3000 
    191 H191       -3.8440  -22.6988  -48.4199 H         1 UNK         0.0600 
    192 H192       -4.4257  -20.4714  -47.5626 H         1 UNK         0.0600 
    193 H193       -4.4785  -21.0768  -45.9059 H         1 UNK         0.0600 
    194 H194       -5.6678  -21.6157  -47.0834 H         1 UNK         0.0600 
    195 H195       -2.5065  -23.6956  -45.3755 H         1 UNK         0.3000 
    196 H196       -4.4755  -25.9021  -45.0606 H         1 UNK         0.0600 
    197 H197       -3.7300  -24.7257  -43.0070 H         1 UNK         0.0600 
    198 H198       -2.0515  -25.1204  -43.3590 H         1 UNK         0.0600 
    199 H199       -3.2016  -26.4020  -43.0052 H         1 UNK         0.0600 
    200 H200       -0.9603  -25.3440  -45.6298 H         1 UNK         0.3000 
    201 H201       -0.3288  -28.0999  -45.9060 H         1 UNK         0.0600 
    202 H202        1.2829  -26.4132  -45.1047 H         1 UNK         0.0600 
    203 H203        1.2640  -25.5980  -46.6658 H         1 UNK         0.0600 
    204 H204        1.9236  -27.2235  -46.5262 H         1 UNK         0.0600 
    205 H205       -0.6328  -25.5186  -48.4133 H         1 UNK         0.3000 
    206 H206       -0.2150  -27.5354  -50.5756 H         1 UNK         0.0600 
    207 H207       -0.0610  -24.4761  -50.6282 H         1 UNK         0.0600 
    208 H208        1.3271  -25.5527  -50.4828 H         1 UNK         0.0600 
    209 H209        0.3512  -25.5657  -51.9442 H         1 UNK         0.0600 
    210 H210       -2.5574  -25.4203  -49.1458 H         1 UNK         0.3000 
    211 H211       -4.7245  -25.1156  -49.3370 H         1 UNK         0.0600 
    212 H212       -4.8430  -27.2829  -51.4865 H         1 UNK         0.0600 
    213 H213       -6.2009  -26.6073  -50.6023 H         1 UNK         0.0600 
    214 H214       -4.9870  -27.5468  -49.7483 H         1 UNK         0.0600 
    215 H215       -3.1631  -25.2362  -52.5070 H         1 UNK         0.3000 
    216 H216       -4.9290  -23.7750  -54.0576 H         1 UNK         0.0600 
    217 H217       -2.9548  -23.3768  -55.5311 H         1 UNK         0.0600 
    218 H218       -2.9466  -25.0195  -54.9146 H         1 UNK         0.0600 
    219 H219       -1.8656  -23.8116  -54.2199 H         1 UNK         0.0600 
    220 H220       -2.6488  -22.4881  -51.7201 H         1 UNK         0.3000 
    221 H221       -2.5397  -19.7775  -52.4452 H         1 UNK         0.0600 
    222 H222       -2.4075  -21.0943  -49.6881 H         1 UNK         0.0600 
    223 H223       -1.0494  -20.8436  -50.7838 H         1 UNK         0.0600 
    224 H224       -1.8613  -19.4654  -50.0509 H         1 UNK         0.0600 
    225 H225       -5.1967  -21.5491  -50.9329 H         1 UNK         0.3000 
    226 H226       -6.6057  -19.3068  -49.8186 H         1 UNK         0.0600 
    227 H227       -7.0118  -21.6940  -49.1593 H         1 UNK         0.0600 
    228 H228       -8.4882  -20.9069  -49.6971 H         1 UNK         0.0600 
    229 H229       -7.6546  -22.0270  -50.7661 H         1 UNK         0.0600 
    230 H230       -6.2076  -20.4917  -53.0785 H         1 UNK         0.3000 
    231 H231       -8.2773  -18.6201  -54.1564 H         1 UNK         0.0600 
    232 H232       -8.2216  -20.0694  -56.1617 H         1 UNK         0.0600 
    233 H233       -8.6000  -21.0442  -54.7521 H         1 UNK         0.0600 
    234 H234       -6.9774  -21.0850  -55.4407 H         1 UNK         0.0600 
    235 H235       -5.3378  -18.2700  -53.1624 H         1 UNK         0.3000 
    236 H236       -3.4495  -17.2448  -53.6378 H         1 UNK         0.0600 
    237 H237       -5.0206  -15.7724  -55.8180 H         1 UNK         0.0600 
    238 H238       -5.0133  -15.3434  -54.1076 H         1 UNK         0.0600 
    239 H239       -3.5370  -15.2247  -55.0489 H         1 UNK         0.0600 
    240 H240       -3.9562  -19.7858  -55.0101 H         1 UNK         0.3000 
    241 H241       -3.1346  -21.1970  -56.4251 H         1 UNK         0.0600 
    242 H242       -4.8538  -19.2373  -59.2478 H         1 UNK         0.3800 
    243 H243       -5.0043  -18.9720  -57.5282 H         1 UNK         0.3800 
    244 H244       -0.7941  -19.3368  -57.0219 H         1 UNK         0.0800 
    245 H245       -0.8598  -21.0514  -57.3155 H         1 UNK         0.0800 
    246 H246       -0.2321  -18.2510  -54.9979 H         1 UNK         0.0800 
    247 H247        1.2751  -19.1249  -55.1311 H         1 UNK         0.0800 
@<TRIPOS>BOND
     1    1    2 1    
     2    1  127 1    
     3    1  128 1    
     4    1  129 1    
     5    2    3 2    
     6    2    4 am   BACKBONE|DICT|INTERRES
     7    4    5 1    
     8    4  130 1    
     9    5    6 1    
    10    5   65 1    
    11    5  131 1    
    12    6    7 1    
    13    6  132 1    
    14    6  133 1    
    15    7    8 1    
    16    8    9 1    
    17    8  134 1    
    18    8  135 1    
    19    9   10 ar   
    20    9   14 ar   
    21   10   11 ar   
    22   10  136 1    
    23   11   12 ar   
    24   11  126 1    
    25   12   13 ar   
    26   12  137 1    
    27   13   14 ar   
    28   13   15 1    
    29   14  138 1    
    30   15   16 1    
    31   15  139 1    
    32   15  140 1    
    33   16   17 1    
    34   17   18 1    
    35   17  141 1    
    36   17  142 1    
    37   18   19 1    
    38   18   67 1    
    39   18  143 1    
    40   19   20 am   BACKBONE|DICT|INTERRES
    41   19  144 1    
    42   20   21 2    
    43   20   22 1    
    44   22   23 1    
    45   22   24 1    
    46   22  145 1    
    47   23  146 1    
    48   23  147 1    
    49   23  148 1    
    50   24   25 am   BACKBONE|DICT|INTERRES
    51   24  149 1    
    52   25   26 2    
    53   25   27 1    
    54   27   28 1    
    55   27   29 1    
    56   27  150 1    
    57   28  151 1    
    58   28  152 1    
    59   28  153 1    
    60   29   30 am   BACKBONE|DICT|INTERRES
    61   29  154 1    
    62   30   31 2    
    63   30   32 1    
    64   32   33 1    
    65   32   34 1    
    66   32  155 1    
    67   33  156 1    
    68   33  157 1    
    69   33  158 1    
    70   34   35 am   BACKBONE|DICT|INTERRES
    71   34  159 1    
    72   35   36 2    
    73   35   37 1    
    74   37   38 1    
    75   37   39 1    
    76   37  160 1    
    77   38  161 1    
    78   38  162 1    
    79   38  163 1    
    80   39   40 am   BACKBONE|DICT|INTERRES
    81   39  164 1    
    82   40   41 2    
    83   40   42 1    
    84   42   43 1    
    85   42   44 1    
    86   42  165 1    
    87   43  166 1    
    88   43  167 1    
    89   43  168 1    
    90   44   45 am   BACKBONE|DICT|INTERRES
    91   44  169 1    
    92   45   46 2    
    93   45   47 1    
    94   47   48 1    
    95   47   49 1    
    96   47  170 1    
    97   48  171 1    
    98   48  172 1    
    99   48  173 1    
   100   49   50 am   BACKBONE|DICT|INTERRES
   101   49  174 1    
   102   50   51 2    
   103   50   52 1    
   104   52   53 1    
   105   52   54 1    
   106   52  175 1    
   107   53  176 1    
   108   53  177 1    
   109   53  178 1    
   110   54   55 am   BACKBONE|DICT|INTERRES
   111   54  179 1    
   112   55   56 2    
   113   55   57 1    
   114   57   58 1    
   115   57   59 1    
   116   57  180 1    
   117   58  181 1    
   118   58  182 1    
   119   58  183 1    
   120   59   60 am   BACKBONE|DICT|INTERRES
   121   59  184 1    
   122   60   61 2    
   123   60   62 1    
   124   62   63 1    
   125   62   64 1    
   126   62  185 1    
   127   63  186 1    
   128   63  187 1    
   129   63  188 1    
   130   64   65 am   BACKBONE|DICT|INTERRES
   131   64  189 1    
   132   65   66 2    
   133   67   68 2    
   134   67   69 am   BACKBONE|DICT|INTERRES
   135   69   70 1    
   136   69  190 1    
   137   70   71 1    
   138   70   72 1    
   139   70  191 1    
   140   71  192 1    
   141   71  193 1    
   142   71  194 1    
   143   72   73 2    
   144   72   74 am   BACKBONE|DICT|INTERRES
   145   74   75 1    
   146   74  195 1    
   147   75   76 1    
   148   75   77 1    
   149   75  196 1    
   150   76  197 1    
   151   76  198 1    
   152   76  199 1    
   153   77   78 2    
   154   77   79 am   BACKBONE|DICT|INTERRES
   155   79   80 1    
   156   79  200 1    
   157   80   81 1    
   158   80   82 1    
   159   80  201 1    
   160   81  202 1    
   161   81  203 1    
   162   81  204 1    
   163   82   83 2    
   164   82   84 am   BACKBONE|DICT|INTERRES
   165   84   85 1    
   166   84  205 1    
   167   85   86 1    
   168   85   87 1    
   169   85  206 1    
   170   86  207 1    
   171   86  208 1    
   172   86  209 1    
   173   87   88 2    
   174   87   89 am   BACKBONE|DICT|INTERRES
   175   89   90 1    
   176   89  210 1    
   177   90   91 1    
   178   90   92 1    
   179   90  211 1    
   180   91  212 1    
   181   91  213 1    
   182   91  214 1    
   183   92   93 2    
   184   92   94 am   BACKBONE|DICT|INTERRES
   185   94   95 1    
   186   94  215 1    
   187   95   96 1    
   188   95   97 1    
   189   95  216 1    
   190   96  217 1    
   191   96  218 1    
   192   96  219 1    
   193   97   98 2    
   194   97   99 am   BACKBONE|DICT|INTERRES
   195   99  100 1    
   196   99  220 1    
   197  100  101 1    
   198  100  102 1    
   199  100  221 1    
   200  101  222 1    
   201  101  223 1    
   202  101  224 1    
   203  102  103 2    
   204  102  104 am   BACKBONE|DICT|INTERRES
   205  104  105 1    
   206  104  225 1    
   207  105  106 1    
   208  105  107 1    
   209  105  226 1    
   210  106  227 1    
   211  106  228 1    
   212  106  229 1    
   213  107  108 2    
   214  107  109 am   BACKBONE|DICT|INTERRES
   215  109  110 1    
   216  109  230 1    
   217  110  111 1    
   218  110  112 1    
   219  110  231 1    
   220  111  232 1    
   221  111  233 1    
   222  111  234 1    
   223  112  113 2    
   224  112  114 am   BACKBONE|DICT|INTERRES
   225  114  115 1    
   226  114  235 1    
   227  115  116 1    
   228  115  117 1    
   229  115  236 1    
   230  116  237 1    
   231  116  238 1    
   232  116  239 1    
   233  117  118 2    
   234  117  119 am   BACKBONE|DICT|INTERRES
   235  119  120 1    
   236  119  240 1    
   237  120  121 1    
   238  120  124 1    
   239  120  241 1    
   240  121  122 am   BACKBONE|DICT|INTERRES
   241  121  123 2    
   242  122  242 1    
   243  122  243 1    
   244  124  125 1    
   245  124  244 1    
   246  124  245 1    
   247  125  126 1    
   248  126  246 1    
   249  126  247 1    
@<TRIPOS>SUBSTRUCTURE
     1 UNK         1 GROUP             0       ****    0 ROOT    
