@<TRIPOS>MOLECULE
3R540
247   249    1
SMALL
USER_CHARGES


@<TRIPOS>ATOM
      1 CA         -1.0528  -12.8090  -52.6352 C.3       0 UNK        -0.1800 
      2 C          -0.1692  -12.5137  -51.4326 C.2       0 UNK         0.5000 
      3 O           0.0464  -11.3491  -51.0978 O.2       0 UNK        -0.5000 
      4 N           0.3325  -13.5638  -50.7713 N.am      1 UNK        -0.5000 
      5 CA          1.2234  -13.4823  -49.6022 C.3       1 UNK         0.1400 
      6 C6          2.2454  -14.6476  -49.5572 C.3       23 UNK        -0.0398 
      7 S7          1.5042  -16.3172  -49.4936 S.3       23 UNK        -0.2404 
      8 C8          2.3219  -17.0960  -50.9203 C.3       23 UNK        -0.0205 
      9 C9          1.9569  -18.5665  -51.0214 C.ar      23 UNK        -0.0193 
     10 C10         0.8309  -18.9579  -51.7468 C.ar      23 UNK        -0.1150 
     11 C11         0.4637  -20.3028  -51.8210 C.ar      23 UNK        -0.0193 
     12 C12         1.2335  -21.2589  -51.1570 C.ar      23 UNK        -0.1150 
     13 C13         2.3692  -20.8860  -50.4348 C.ar      23 UNK        -0.0193 
     14 C14         2.7346  -19.5359  -50.3824 C.ar      23 UNK        -0.1150 
     15 C15         3.1785  -21.9550  -49.7103 C.3       23 UNK        -0.0205 
     16 S16         3.5838  -21.5344  -47.9826 S.3       23 UNK        -0.2404 
     17 C17         1.9656  -21.0541  -47.2899 C.3       23 UNK        -0.0398 
     18 CA          1.1334  -22.2619  -46.7830 C.3       11 UNK         0.1400 
     19 N           0.6631  -22.0658  -45.4079 N.am      11 UNK        -0.5000 
     20 C           0.0811  -23.0107  -44.6562 C.2       10 UNK         0.5000 
     21 O          -0.0925  -24.1721  -45.0284 O.2       10 UNK        -0.5000 
     22 CA         -0.4356  -22.5676  -43.2742 C.3       10 UNK         0.1400 
     23 CB          0.7122  -22.4918  -42.2565 C.3       10 UNK        -0.1800 
     24 N          -1.1343  -21.2816  -43.3246 N.am      10 UNK        -0.5000 
     25 C          -2.2772  -21.0728  -43.9937 C.2       9 UNK         0.5000 
     26 O          -2.8908  -21.9608  -44.5849 O.2       9 UNK        -0.5000 
     27 CA         -2.7975  -19.6247  -44.0582 C.3       9 UNK         0.1400 
     28 CB         -3.5660  -19.2598  -42.7801 C.3       9 UNK        -0.1800 
     29 N          -1.7337  -18.6470  -44.2887 N.am      9 UNK        -0.5000 
     30 C          -0.9500  -18.6066  -45.3760 C.2       8 UNK         0.5000 
     31 O          -1.0532  -19.3763  -46.3277 O.2       8 UNK        -0.5000 
     32 CA          0.1747  -17.5616  -45.3759 C.3       8 UNK         0.1400 
     33 CB         -0.3782  -16.1845  -45.7717 C.3       8 UNK        -0.1800 
     34 N           0.8454  -17.4950  -44.0754 N.am      8 UNK        -0.5000 
     35 C           1.5855  -18.4905  -43.5617 C.2       7 UNK         0.5000 
     36 O           1.8192  -19.5433  -44.1536 O.2       7 UNK        -0.5000 
     37 CA          2.0992  -18.3117  -42.1229 C.3       7 UNK         0.1400 
     38 CB          3.4222  -17.5354  -42.0969 C.3       7 UNK        -0.1800 
     39 N           1.1146  -17.6478  -41.2701 N.am      7 UNK        -0.5000 
     40 C          -0.0202  -18.2331  -40.8603 C.2       6 UNK         0.5000 
     41 O          -0.3183  -19.3985  -41.1238 O.2       6 UNK        -0.5000 
     42 CA         -1.0095  -17.3624  -40.0635 C.3       6 UNK         0.1400 
     43 CB         -0.7093  -17.4451  -38.5598 C.3       6 UNK        -0.1800 
     44 N          -1.0199  -15.9576  -40.4769 N.am      6 UNK        -0.5000 
     45 C          -1.3309  -15.5167  -41.7035 C.2       5 UNK         0.5000 
     46 O          -1.6392  -16.2637  -42.6321 O.2       5 UNK        -0.5000 
     47 CA         -1.2813  -13.9957  -41.9476 C.3       5 UNK         0.1400 
     48 CB         -1.2495  -13.1542  -40.6524 C.3       5 UNK        -0.1800 
     49 N          -0.1815  -13.5942  -42.8294 N.am      5 UNK        -0.5000 
     50 C           1.1325  -13.8189  -42.6619 C.2       4 UNK         0.5000 
     51 O           1.5880  -14.5502  -41.7811 O.2       4 UNK        -0.5000 
     52 CA          2.1131  -13.0952  -43.6151 C.3       4 UNK         0.1400 
     53 CB          2.9765  -14.0858  -44.4124 C.3       4 UNK        -0.1800 
     54 N           1.4525  -12.1751  -44.5454 N.am      4 UNK        -0.5000 
     55 C           1.0265  -10.9431  -44.2235 C.2       3 UNK         0.5000 
     56 O           1.2196  -10.4254  -43.1230 O.2       3 UNK        -0.5000 
     57 CA          0.2235  -10.1621  -45.2874 C.3       3 UNK         0.1400 
     58 CB          1.1307   -9.1559  -46.0114 C.3       3 UNK        -0.1800 
     59 N          -0.4319  -11.0094  -46.2864 N.am      3 UNK        -0.5000 
     60 C          -1.3428  -11.9586  -46.0309 C.2       2 UNK         0.5000 
     61 O          -1.8015  -12.1751  -44.9090 O.2       2 UNK        -0.5000 
     62 CA         -1.7787  -12.8532  -47.2086 C.3       2 UNK         0.1400 
     63 CB         -3.1326  -12.3812  -47.7594 C.3       2 UNK        -0.1800 
     64 N          -0.8264  -12.9540  -48.3225 N.am      2 UNK        -0.5000 
     65 C           0.4698  -13.2989  -48.2623 C.2       1 UNK         0.5000 
     66 O           1.0764  -13.4558  -47.2018 O.2       1 UNK        -0.5000 
     67 C          -0.0314  -22.5891  -47.7429 C.2       11 UNK         0.5000 
     68 O           0.0813  -23.5096  -48.5519 O.2       11 UNK        -0.5000 
     69 N          -1.1453  -21.8577  -47.5993 N.am      12 UNK        -0.5000 
     70 CA         -2.3926  -22.0597  -48.3313 C.3       12 UNK         0.1400 
     71 CB         -3.3916  -20.9544  -47.9629 C.3       12 UNK        -0.1800 
     72 C          -3.0161  -23.4376  -48.0727 C.2       12 UNK         0.5000 
     73 O          -3.4313  -24.0967  -49.0243 O.2       12 UNK        -0.5000 
     74 N          -3.0495  -23.8602  -46.8008 N.am      13 UNK        -0.5000 
     75 CA         -3.5297  -25.1744  -46.3723 C.3       13 UNK         0.1400 
     76 CB         -3.5696  -25.2397  -44.8386 C.3       13 UNK        -0.1800 
     77 C          -2.6904  -26.3261  -46.9528 C.2       13 UNK         0.5000 
     78 O          -3.2606  -27.3005  -47.4452 O.2       13 UNK        -0.5000 
     79 N          -1.3585  -26.1659  -46.9477 N.am      14 UNK        -0.5000 
     80 CA         -0.4074  -27.0900  -47.5736 C.3       14 UNK         0.1400 
     81 CB          1.0247  -26.6790  -47.1997 C.3       14 UNK        -0.1800 
     82 C          -0.5709  -27.1832  -49.1055 C.2       14 UNK         0.5000 
     83 O          -0.3511  -28.2509  -49.6776 O.2       14 UNK        -0.5000 
     84 N          -1.0001  -26.0798  -49.7302 N.am      15 UNK        -0.5000 
     85 CA         -1.3338  -25.9646  -51.1503 C.3       15 UNK         0.1400 
     86 CB         -0.9804  -24.5441  -51.6172 C.3       15 UNK        -0.1800 
     87 C          -2.8016  -26.3317  -51.4694 C.2       15 UNK         0.5000 
     88 O          -3.2820  -25.9951  -52.5521 O.2       15 UNK        -0.5000 
     89 N          -3.4838  -27.0230  -50.5431 N.am      16 UNK        -0.5000 
     90 CA         -4.8500  -27.5468  -50.6481 C.3       16 UNK         0.1400 
     91 CB         -4.9624  -28.5915  -51.7792 C.3       16 UNK        -0.1800 
     92 C          -5.9235  -26.4413  -50.7238 C.2       16 UNK         0.5000 
     93 O          -6.8377  -26.5133  -51.5471 O.2       16 UNK        -0.5000 
     94 N          -5.7937  -25.4526  -49.8300 N.am      17 UNK        -0.5000 
     95 CA         -6.6892  -24.3125  -49.6084 C.3       17 UNK         0.1400 
     96 CB         -8.1175  -24.7695  -49.2430 C.3       17 UNK        -0.1800 
     97 C          -6.6488  -23.2684  -50.7419 C.2       17 UNK         0.5000 
     98 O          -7.6508  -22.6007  -51.0055 O.2       17 UNK        -0.5000 
     99 N          -5.4750  -23.1086  -51.3654 N.am      18 UNK        -0.5000 
    100 CA        -5.1670  -22.0238  -52.2951 C.3       18 UNK         0.1400 
    101 CB        -4.0142  -22.4667  -53.2100 C.3       18 UNK        -0.1800 
    102 C         -4.8198  -20.7690  -51.4750 C.2       18 UNK         0.5000 
    103 O         -3.6615  -20.5952  -51.0991 O.2       18 UNK        -0.5000 
    104 N         -5.8532  -19.9880  -51.1295 N.am      19 UNK        -0.5000 
    105 CA        -5.8792  -18.8775  -50.1695 C.3       19 UNK         0.1400 
    106 CB        -7.3256  -18.3599  -50.0763 C.3       19 UNK        -0.1800 
    107 C         -4.8726  -17.7372  -50.4421 C.2       19 UNK         0.5000 
    108 O         -5.2585  -16.6682  -50.9169 O.2       19 UNK        -0.5000 
    109 N         -3.5964  -18.0021  -50.1328 N.am      20 UNK        -0.5000 
    110 CA        -2.4175  -17.1352  -50.2527 C.3       20 UNK         0.1400 
    111 CB        -2.5556  -15.8882  -49.3613 C.3       20 UNK        -0.1800 
    112 C         -2.0352  -16.7774  -51.7043 C.2       20 UNK         0.5000 
    113 O         -1.1526  -15.9439  -51.9120 O.2       20 UNK        -0.5000 
    114 N         -2.6641  -17.4470  -52.6743 N.am      21 UNK        -0.5000 
    115 CA        -2.4558  -17.3400  -54.1102 C.3       21 UNK         0.1400 
    116 CB        -3.0690  -16.0261  -54.6306 C.3       21 UNK        -0.1800 
    117 C         -3.1455  -18.5681  -54.7374 C.2       21 UNK         0.5000 
    118 O         -4.2970  -18.8220  -54.3803 O.2       21 UNK        -0.5000 
    119 N         -2.5225  -19.3582  -55.6237 N.am      22 UNK        -0.5000 
    120 CA        -1.1515  -19.3077  -56.1673 C.3       22 UNK         0.1400 
    121 C         -0.8433  -18.0194  -56.9917 C.2       22 UNK         0.5000 
    122 N          0.4097  -17.6028  -57.1180 N.am      22 UNK        -0.7600 
    123 O         -1.7408  -17.4057  -57.5626 O.2       22 UNK        -0.5000 
    124 C124       -0.0500  -19.7046  -55.1377 C.3       23 UNK        -0.0398 
    125 S125       -0.3842  -21.2838  -54.2797 S.3       23 UNK        -0.2404 
    126 C126       -0.7751  -20.7281  -52.5908 C.3       23 UNK        -0.0205 
    127 H127       -0.6314  -13.6142  -53.2373 H         1 UNK         0.0600 
    128 H128       -1.1482  -11.9285  -53.2707 H         1 UNK         0.0600 
    129 H129       -2.0492  -13.1070  -52.3086 H         1 UNK         0.0600 
    130 H130        0.0749  -14.5002  -51.0715 H         1 UNK         0.3000 
    131 H131        1.8197  -12.5734  -49.7059 H         1 UNK         0.0600 
    132 H132        2.9178  -14.5409  -48.7041 H         1 UNK         0.0800 
    133 H133        2.8901  -14.5759  -50.4338 H         1 UNK         0.0800 
    134 H134        3.4036  -16.9882  -50.8266 H         1 UNK         0.0800 
    135 H135        2.0327  -16.5730  -51.8335 H         1 UNK         0.0800 
    136 H136        0.2414  -18.2085  -52.2495 H         1 UNK         0.1150 
    137 H137        0.9432  -22.2975  -51.2002 H         1 UNK         0.1150 
    138 H138        3.6084  -19.2366  -49.8209 H         1 UNK         0.1150 
    139 H139        2.6439  -22.9065  -49.7113 H         1 UNK         0.0800 
    140 H140        4.1061  -22.1234  -50.2585 H         1 UNK         0.0800 
    141 H141        1.4118  -20.4257  -47.9893 H         1 UNK         0.0800 
    142 H142        2.2029  -20.3822  -46.4680 H         1 UNK         0.0800 
    143 H143        1.7735  -23.1464  -46.7558 H         1 UNK         0.0600 
    144 H144        0.7942  -21.1416  -45.0112 H         1 UNK         0.3000 
    145 H145       -1.1460  -23.3215  -42.9284 H         1 UNK         0.0600 
    146 H146        0.3396  -22.2495  -41.2610 H         1 UNK         0.0600 
    147 H147        1.2347  -23.4465  -42.1856 H         1 UNK         0.0600 
    148 H148        1.4467  -21.7342  -42.5306 H         1 UNK         0.0600 
    149 H149       -0.7175  -20.5119  -42.8119 H         1 UNK         0.3000 
    150 H150       -3.4906  -19.5569  -44.8987 H         1 UNK         0.0600 
    151 H151       -4.4097  -19.9341  -42.6281 H         1 UNK         0.0600 
    152 H152       -3.9636  -18.2461  -42.8336 H         1 UNK         0.0600 
    153 H153       -2.9325  -19.3248  -41.8960 H         1 UNK         0.0600 
    154 H154       -1.6065  -17.9308  -43.5787 H         1 UNK         0.3000 
    155 H155        0.9156  -17.8567  -46.1223 H         1 UNK         0.0600 
    156 H156       -1.2157  -15.8763  -45.1469 H         1 UNK         0.0600 
    157 H157       -0.7290  -16.1952  -46.8042 H         1 UNK         0.0600 
    158 H158        0.3845  -15.4153  -45.7005 H         1 UNK         0.0600 
    159 H159        0.6355  -16.6971  -43.4936 H         1 UNK         0.3000 
    160 H160        2.2900  -19.3069  -41.7149 H         1 UNK         0.0600 
    161 H161        3.2979  -16.5185  -42.4635 H         1 UNK         0.0600 
    162 H162        4.1729  -18.0214  -42.7214 H         1 UNK         0.0600 
    163 H163        3.8257  -17.4791  -41.0859 H         1 UNK         0.0600 
    164 H164        1.2709  -16.6690  -41.0599 H         1 UNK         0.3000 
    165 H165       -2.0105  -17.7631  -40.2334 H         1 UNK         0.0600 
    166 H166       -1.4570  -16.9062  -37.9775 H         1 UNK         0.0600 
    167 H167       -0.7167  -18.4807  -38.2167 H         1 UNK         0.0600 
    168 H168        0.2693  -17.0269  -38.3210 H         1 UNK         0.0600 
    169 H169       -0.7532  -15.2788  -39.7788 H         1 UNK         0.3000 
    170 H170       -2.2026  -13.7473  -42.4765 H         1 UNK         0.0600 
    171 H171       -2.0874  -13.4015  -39.9991 H         1 UNK         0.0600 
    172 H172       -0.3282  -13.2984  -40.0869 H         1 UNK         0.0600 
    173 H173       -1.3276  -12.0913  -40.8819 H         1 UNK         0.0600 
    174 H174       -0.4677  -13.0185  -43.6137 H         1 UNK         0.3000 
    175 H175        2.7890  -12.5140  -42.9846 H         1 UNK         0.0600 
    176 H176        2.3763  -14.7932  -44.9809 H         1 UNK         0.0600 
    177 H177        3.6273  -13.5643  -45.1145 H         1 UNK         0.0600 
    178 H178        3.6218  -14.6597  -43.7486 H         1 UNK         0.0600 
    179 H179        1.2647  -12.5357  -45.4775 H         1 UNK         0.3000 
    180 H180       -0.5567   -9.6070  -44.7627 H         1 UNK         0.0600 
    181 H181        1.9158   -9.6588  -46.5776 H         1 UNK         0.0600 
    182 H182        1.6162   -8.4849  -45.3013 H         1 UNK         0.0600 
    183 H183        0.5604   -8.5361  -46.7036 H         1 UNK         0.0600 
    184 H184       -0.1053  -10.9184  -47.2371 H         1 UNK         0.3000 
    185 H185       -1.9083  -13.8601  -46.8087 H         1 UNK         0.0600 
    186 H186       -3.8799  -12.3228  -46.9668 H         1 UNK         0.0600 
    187 H187       -3.0573  -11.3924  -48.2136 H         1 UNK         0.0600 
    188 H188       -3.5168  -13.0681  -48.5131 H         1 UNK         0.0600 
    189 H189       -1.2118  -12.8093  -49.2439 H         1 UNK         0.3000 
    190 H190       -1.1306  -21.0706  -46.9535 H         1 UNK         0.3000 
    191 H191       -2.1668  -21.9874  -49.3966 H         1 UNK         0.0600 
    192 H192       -3.6121  -20.9442  -46.8970 H         1 UNK         0.0600 
    193 H193       -4.3372  -21.1001  -48.4840 H         1 UNK         0.0600 
    194 H194       -3.0069  -19.9718  -48.2314 H         1 UNK         0.0600 
    195 H195       -2.7406  -23.2283  -46.0673 H         1 UNK         0.3000 
    196 H196       -4.5508  -25.2899  -46.7416 H         1 UNK         0.0600 
    197 H197       -3.9395  -26.2075  -44.4979 H         1 UNK         0.0600 
    198 H198       -4.2318  -24.4763  -44.4300 H         1 UNK         0.0600 
    199 H199       -2.5819  -25.0924  -44.4015 H         1 UNK         0.0600 
    200 H200       -0.9671  -25.3454  -46.4959 H         1 UNK         0.3000 
    201 H201       -0.5930  -28.0845  -47.1628 H         1 UNK         0.0600 
    202 H202        1.1625  -26.6695  -46.1183 H         1 UNK         0.0600 
    203 H203        1.2717  -25.6862  -47.5757 H         1 UNK         0.0600 
    204 H204        1.7522  -27.3773  -47.6151 H         1 UNK         0.0600 
    205 H205       -1.1133  -25.2356  -49.1809 H         1 UNK         0.3000 
    206 H206       -0.7121  -26.6598  -51.7176 H         1 UNK         0.0600 
    207 H207        0.0803  -24.3483  -51.4671 H         1 UNK         0.0600 
    208 H208       -1.1846  -24.4049  -52.6794 H         1 UNK         0.0600 
    209 H209       -1.5433  -23.7906  -51.0666 H         1 UNK         0.0600 
    210 H210       -3.0221  -27.2063  -49.6610 H         1 UNK         0.3000 
    211 H211       -5.0355  -28.0726  -49.7104 H         1 UNK         0.0600 
    212 H212       -4.8483  -28.1404  -52.7652 H         1 UNK         0.0600 
    213 H213       -5.9352  -29.0840  -51.7584 H         1 UNK         0.0600 
    214 H214       -4.2047  -29.3681  -51.6752 H         1 UNK         0.0600 
    215 H215       -4.9327  -25.4195  -49.2944 H         1 UNK         0.3000 
    216 H216       -6.2897  -23.7993  -48.7326 H         1 UNK         0.0600 
    217 H217       -8.7218  -23.9265  -48.9060 H         1 UNK         0.0600 
    218 H218       -8.1036  -25.5001  -48.4342 H         1 UNK         0.0600 
    219 H219       -8.6326  -25.2171  -50.0931 H         1 UNK         0.0600 
    220 H220       -4.6939  -23.6714  -51.0544 H         1 UNK         0.3000 
    221 H221       -6.0335  -21.8081  -52.9239 H         1 UNK         0.0600 
    222 H222       -3.1459  -22.7876  -52.6370 H         1 UNK         0.0600 
    223 H223       -4.3152  -23.3010  -53.8437 H         1 UNK         0.0600 
    224 H224       -3.6973  -21.6544  -53.8648 H         1 UNK         0.0600 
    225 H225       -6.7607  -20.2612  -51.4805 H         1 UNK         0.3000 
    226 H226       -5.6284  -19.2887  -49.1910 H         1 UNK         0.0600 
    227 H227       -8.0062  -19.1463  -49.7490 H         1 UNK         0.0600 
    228 H228       -7.4054  -17.5445  -49.3560 H         1 UNK         0.0600 
    229 H229       -7.6819  -17.9864  -51.0372 H         1 UNK         0.0600 
    230 H230       -3.3888  -18.9698  -49.9108 H         1 UNK         0.3000 
    231 H231       -1.5823  -17.7207  -49.8648 H         1 UNK         0.0600 
    232 H232       -1.6071  -15.3574  -49.3051 H         1 UNK         0.0600 
    233 H233       -2.8371  -16.1554  -48.3428 H         1 UNK         0.0600 
    234 H234       -3.3006  -15.1936  -49.7493 H         1 UNK         0.0600 
    235 H235       -3.3767  -18.1160  -52.4103 H         1 UNK         0.3000 
    236 H236       -1.3868  -17.3329  -54.3070 H         1 UNK         0.0600 
    237 H237       -2.9755  -15.9480  -55.7133 H         1 UNK         0.0600 
    238 H238       -4.1300  -15.9560  -54.3877 H         1 UNK         0.0600 
    239 H239       -2.5712  -15.1571  -54.2009 H         1 UNK         0.0600 
    240 H240       -3.0663  -20.1200  -55.9993 H         1 UNK         0.3000 
    241 H241       -1.1465  -20.0922  -56.9247 H         1 UNK         0.0600 
    242 H242        0.5908  -16.7792  -57.6715 H         1 UNK         0.3800 
    243 H243        1.1859  -18.0901  -56.6996 H         1 UNK         0.3800 
    244 H244        0.9038  -19.8387  -55.6492 H         1 UNK         0.0800 
    245 H245        0.1202  -18.9129  -54.4135 H         1 UNK         0.0800 
    246 H246       -1.2596  -21.5442  -52.0556 H         1 UNK         0.0800 
    247 H247       -1.5049  -19.9216  -52.6246 H         1 UNK         0.0800 
@<TRIPOS>BOND
     1    1    2 1    
     2    1  127 1    
     3    1  128 1    
     4    1  129 1    
     5    2    3 2    
     6    2    4 am   BACKBONE|DICT|INTERRES
     7    4    5 1    
     8    4  130 1    
     9    5    6 1    
    10    5   65 1    
    11    5  131 1    
    12    6    7 1    
    13    6  132 1    
    14    6  133 1    
    15    7    8 1    
    16    8    9 1    
    17    8  134 1    
    18    8  135 1    
    19    9   10 ar   
    20    9   14 ar   
    21   10   11 ar   
    22   10  136 1    
    23   11   12 ar   
    24   11  126 1    
    25   12   13 ar   
    26   12  137 1    
    27   13   14 ar   
    28   13   15 1    
    29   14  138 1    
    30   15   16 1    
    31   15  139 1    
    32   15  140 1    
    33   16   17 1    
    34   17   18 1    
    35   17  141 1    
    36   17  142 1    
    37   18   19 1    
    38   18   67 1    
    39   18  143 1    
    40   19   20 am   BACKBONE|DICT|INTERRES
    41   19  144 1    
    42   20   21 2    
    43   20   22 1    
    44   22   23 1    
    45   22   24 1    
    46   22  145 1    
    47   23  146 1    
    48   23  147 1    
    49   23  148 1    
    50   24   25 am   BACKBONE|DICT|INTERRES
    51   24  149 1    
    52   25   26 2    
    53   25   27 1    
    54   27   28 1    
    55   27   29 1    
    56   27  150 1    
    57   28  151 1    
    58   28  152 1    
    59   28  153 1    
    60   29   30 am   BACKBONE|DICT|INTERRES
    61   29  154 1    
    62   30   31 2    
    63   30   32 1    
    64   32   33 1    
    65   32   34 1    
    66   32  155 1    
    67   33  156 1    
    68   33  157 1    
    69   33  158 1    
    70   34   35 am   BACKBONE|DICT|INTERRES
    71   34  159 1    
    72   35   36 2    
    73   35   37 1    
    74   37   38 1    
    75   37   39 1    
    76   37  160 1    
    77   38  161 1    
    78   38  162 1    
    79   38  163 1    
    80   39   40 am   BACKBONE|DICT|INTERRES
    81   39  164 1    
    82   40   41 2    
    83   40   42 1    
    84   42   43 1    
    85   42   44 1    
    86   42  165 1    
    87   43  166 1    
    88   43  167 1    
    89   43  168 1    
    90   44   45 am   BACKBONE|DICT|INTERRES
    91   44  169 1    
    92   45   46 2    
    93   45   47 1    
    94   47   48 1    
    95   47   49 1    
    96   47  170 1    
    97   48  171 1    
    98   48  172 1    
    99   48  173 1    
   100   49   50 am   BACKBONE|DICT|INTERRES
   101   49  174 1    
   102   50   51 2    
   103   50   52 1    
   104   52   53 1    
   105   52   54 1    
   106   52  175 1    
   107   53  176 1    
   108   53  177 1    
   109   53  178 1    
   110   54   55 am   BACKBONE|DICT|INTERRES
   111   54  179 1    
   112   55   56 2    
   113   55   57 1    
   114   57   58 1    
   115   57   59 1    
   116   57  180 1    
   117   58  181 1    
   118   58  182 1    
   119   58  183 1    
   120   59   60 am   BACKBONE|DICT|INTERRES
   121   59  184 1    
   122   60   61 2    
   123   60   62 1    
   124   62   63 1    
   125   62   64 1    
   126   62  185 1    
   127   63  186 1    
   128   63  187 1    
   129   63  188 1    
   130   64   65 am   BACKBONE|DICT|INTERRES
   131   64  189 1    
   132   65   66 2    
   133   67   68 2    
   134   67   69 am   BACKBONE|DICT|INTERRES
   135   69   70 1    
   136   69  190 1    
   137   70   71 1    
   138   70   72 1    
   139   70  191 1    
   140   71  192 1    
   141   71  193 1    
   142   71  194 1    
   143   72   73 2    
   144   72   74 am   BACKBONE|DICT|INTERRES
   145   74   75 1    
   146   74  195 1    
   147   75   76 1    
   148   75   77 1    
   149   75  196 1    
   150   76  197 1    
   151   76  198 1    
   152   76  199 1    
   153   77   78 2    
   154   77   79 am   BACKBONE|DICT|INTERRES
   155   79   80 1    
   156   79  200 1    
   157   80   81 1    
   158   80   82 1    
   159   80  201 1    
   160   81  202 1    
   161   81  203 1    
   162   81  204 1    
   163   82   83 2    
   164   82   84 am   BACKBONE|DICT|INTERRES
   165   84   85 1    
   166   84  205 1    
   167   85   86 1    
   168   85   87 1    
   169   85  206 1    
   170   86  207 1    
   171   86  208 1    
   172   86  209 1    
   173   87   88 2    
   174   87   89 am   BACKBONE|DICT|INTERRES
   175   89   90 1    
   176   89  210 1    
   177   90   91 1    
   178   90   92 1    
   179   90  211 1    
   180   91  212 1    
   181   91  213 1    
   182   91  214 1    
   183   92   93 2    
   184   92   94 am   BACKBONE|DICT|INTERRES
   185   94   95 1    
   186   94  215 1    
   187   95   96 1    
   188   95   97 1    
   189   95  216 1    
   190   96  217 1    
   191   96  218 1    
   192   96  219 1    
   193   97   98 2    
   194   97   99 am   BACKBONE|DICT|INTERRES
   195   99  100 1    
   196   99  220 1    
   197  100  101 1    
   198  100  102 1    
   199  100  221 1    
   200  101  222 1    
   201  101  223 1    
   202  101  224 1    
   203  102  103 2    
   204  102  104 am   BACKBONE|DICT|INTERRES
   205  104  105 1    
   206  104  225 1    
   207  105  106 1    
   208  105  107 1    
   209  105  226 1    
   210  106  227 1    
   211  106  228 1    
   212  106  229 1    
   213  107  108 2    
   214  107  109 am   BACKBONE|DICT|INTERRES
   215  109  110 1    
   216  109  230 1    
   217  110  111 1    
   218  110  112 1    
   219  110  231 1    
   220  111  232 1    
   221  111  233 1    
   222  111  234 1    
   223  112  113 2    
   224  112  114 am   BACKBONE|DICT|INTERRES
   225  114  115 1    
   226  114  235 1    
   227  115  116 1    
   228  115  117 1    
   229  115  236 1    
   230  116  237 1    
   231  116  238 1    
   232  116  239 1    
   233  117  118 2    
   234  117  119 am   BACKBONE|DICT|INTERRES
   235  119  120 1    
   236  119  240 1    
   237  120  121 1    
   238  120  124 1    
   239  120  241 1    
   240  121  122 am   BACKBONE|DICT|INTERRES
   241  121  123 2    
   242  122  242 1    
   243  122  243 1    
   244  124  125 1    
   245  124  244 1    
   246  124  245 1    
   247  125  126 1    
   248  126  246 1    
   249  126  247 1    
@<TRIPOS>SUBSTRUCTURE
     1 UNK         1 GROUP             0       ****    0 ROOT    
