@<TRIPOS>MOLECULE
3R540
247   249    1
SMALL
USER_CHARGES


@<TRIPOS>ATOM
      1 CA          2.9743   -9.7449  -47.6154 C.3       0 UNK        -0.1800 
      2 C           2.1942  -10.8177  -46.8711 C.2       0 UNK         0.5000 
      3 O           2.4957  -11.0990  -45.7108 O.2       0 UNK        -0.5000 
      4 N           1.1808  -11.4054  -47.5227 N.am      1 UNK        -0.5000 
      5 CA          0.3404  -12.4902  -46.9946 C.3       1 UNK         0.1400 
      6 C6         -0.6661  -13.0171  -48.0481 C.3       23 UNK        -0.0398 
      7 S7          0.1730  -13.7779  -49.4815 S.3       23 UNK        -0.2404 
      8 C8         -0.7687  -15.3277  -49.6793 C.3       23 UNK        -0.0205 
      9 C9         -0.0221  -16.3527  -50.5227 C.ar      23 UNK        -0.0193 
     10 C10        -0.5935  -16.8491  -51.6986 C.ar      23 UNK        -0.1150 
     11 C11         0.0663  -17.8231  -52.4537 C.ar      23 UNK        -0.0193 
     12 C12         1.3179  -18.2837  -52.0374 C.ar      23 UNK        -0.1150 
     13 C13         1.8895  -17.8167  -50.8506 C.ar      23 UNK        -0.0193 
     14 C14         1.2182  -16.8464  -50.1025 C.ar      23 UNK        -0.1150 
     15 C15         3.2152  -18.3898  -50.3647 C.3       23 UNK        -0.0205 
     16 S16         2.9970  -19.6458  -49.0562 S.3       23 UNK        -0.2404 
     17 C17         1.7365  -20.7301  -49.8050 C.3       23 UNK        -0.0398 
     18 CA          1.5538  -22.0840  -49.0824 C.3       11 UNK         0.1400 
     19 N           1.1044  -21.9398  -47.6897 N.am      11 UNK        -0.5000 
     20 C           1.0480  -22.9587  -46.8157 C.2       10 UNK         0.5000 
     21 O           1.4980  -24.0774  -47.0681 O.2       10 UNK        -0.5000 
     22 CA          0.3771  -22.7323  -45.4434 C.3       10 UNK         0.1400 
     23 CB          1.3929  -22.9267  -44.3060 C.3       10 UNK        -0.1800 
     24 N          -0.2750  -21.4359  -45.2628 N.am      10 UNK        -0.5000 
     25 C          -1.3492  -20.9779  -45.9199 C.2       9 UNK         0.5000 
     26 O          -1.9384  -21.5927  -46.8121 O.2       9 UNK        -0.5000 
     27 CA         -1.7830  -19.5439  -45.5615 C.3       9 UNK         0.1400 
     28 CB         -2.5917  -19.5172  -44.2580 C.3       9 UNK        -0.1800 
     29 N          -0.6410  -18.6343  -45.4513 N.am      9 UNK        -0.5000 
     30 C           0.2310  -18.3913  -46.4401 C.2       8 UNK         0.5000 
     31 O           0.1105  -18.8559  -47.5717 O.2       8 UNK        -0.5000 
     32 CA          1.4587  -17.5324  -46.1003 C.3       8 UNK         0.1400 
     33 CB          1.1657  -16.0408  -46.2851 C.3       8 UNK        -0.1800 
     34 N           1.9259  -17.7663  -44.7363 N.am      8 UNK        -0.5000 
     35 C           2.7564  -18.7549  -44.3803 C.2       7 UNK         0.5000 
     36 O           3.2773  -19.5353  -45.1764 O.2       7 UNK        -0.5000 
     37 CA          3.0391  -18.9132  -42.8744 C.3       7 UNK         0.1400 
     38 CB          4.2838  -18.1099  -42.4689 C.3       7 UNK        -0.1800 
     39 N           1.9067  -18.5125  -42.0369 N.am      7 UNK        -0.5000 
     40 C           0.7500  -19.1881  -41.9702 C.2       6 UNK         0.5000 
     41 O           0.5272  -20.2204  -42.6026 O.2       6 UNK        -0.5000 
     42 CA         -0.3636  -18.5894  -41.0891 C.3       6 UNK         0.1400 
     43 CB         -0.2507  -19.1171  -39.6514 C.3       6 UNK        -0.1800 
     44 N          -0.3865  -17.1251  -41.0634 N.am      6 UNK        -0.5000 
     45 C          -0.5054  -16.3276  -42.1337 C.2       5 UNK         0.5000 
     46 O          -0.5820  -16.7491  -43.2883 O.2       5 UNK        -0.5000 
     47 CA         -0.5066  -14.8055  -41.8905 C.3       5 UNK         0.1400 
     48 CB         -0.6733  -14.3985  -40.4096 C.3       5 UNK        -0.1800 
     49 N           0.6794  -14.1614  -42.4569 N.am      5 UNK        -0.5000 
     50 C           1.9648  -14.4454  -42.1976 C.2       4 UNK         0.5000 
     51 O           2.3338  -15.3703  -41.4716 O.2       4 UNK        -0.5000 
     52 CA          3.0214  -13.5282  -42.8425 C.3       4 UNK         0.1400 
     53 CB          3.4561  -14.0654  -44.2112 C.3       4 UNK        -0.1800 
     54 N           2.5688  -12.1457  -43.0034 N.am      4 UNK        -0.5000 
     55 C           2.3656  -11.2833  -41.9980 C.2       3 UNK         0.5000 
     56 O           2.5617  -11.5510  -40.8121 O.2       3 UNK        -0.5000 
     57 CA          1.8470   -9.8894  -42.3867 C.3       3 UNK         0.1400 
     58 CB          2.9935   -8.9998  -42.8931 C.3       3 UNK        -0.1800 
     59 N           0.8077   -9.9751  -43.4122 N.am      3 UNK        -0.5000 
     60 C          -0.4913  -10.1816  -43.1551 C.2       2 UNK         0.5000 
     61 O          -0.9551  -10.2843  -42.0190 O.2       2 UNK        -0.5000 
     62 CA         -1.4380  -10.2917  -44.3671 C.3       2 UNK         0.1400 
     63 CB         -2.0365   -8.9183  -44.7072 C.3       2 UNK        -0.1800 
     64 N          -0.7930  -10.8396  -45.5619 N.am      2 UNK        -0.5000 
     65 C          -0.3903  -12.1116  -45.6887 C.2       1 UNK         0.5000 
     66 O          -0.5383  -12.9615  -44.8115 O.2       1 UNK        -0.5000 
     67 C           0.5890  -22.9656  -49.9068 C.2       11 UNK         0.5000 
     68 O           1.0244  -23.6084  -50.8625 O.2       11 UNK        -0.5000 
     69 N          -0.6968  -22.9726  -49.5312 N.am      12 UNK        -0.5000 
     70 CA         -1.7200  -23.8394  -50.1006 C.3       12 UNK         0.1400 
     71 CB         -3.0516  -23.0748  -50.1229 C.3       12 UNK        -0.1800 
     72 C          -1.8692  -25.0981  -49.2382 C.2       12 UNK         0.5000 
     73 O          -1.8154  -25.0040  -48.0105 O.2       12 UNK        -0.5000 
     74 N          -2.1628  -26.2339  -49.8849 N.am      13 UNK        -0.5000 
     75 CA         -2.5056  -27.5049  -49.2334 C.3       13 UNK         0.1400 
     76 CB         -2.6154  -28.6002  -50.3049 C.3       13 UNK        -0.1800 
     77 C          -3.8025  -27.4340  -48.3982 C.2       13 UNK         0.5000 
     78 O          -3.9587  -28.1962  -47.4443 O.2       13 UNK        -0.5000 
     79 N          -4.6879  -26.4922  -48.7544 N.am      14 UNK        -0.5000 
     80 CA         -5.8959  -26.1303  -48.0126 C.3       14 UNK         0.1400 
     81 CB         -6.7916  -25.2841  -48.9332 C.3       14 UNK        -0.1800 
     82 C          -5.6128  -25.3657  -46.7008 C.2       14 UNK         0.5000 
     83 O          -6.5232  -25.2410  -45.8814 O.2       14 UNK        -0.5000 
     84 N          -4.3812  -24.8523  -46.5348 N.am      15 UNK        -0.5000 
     85 CA         -3.8952  -24.0496  -45.4068 C.3       15 UNK         0.1400 
     86 CB         -3.8294  -24.8942  -44.1178 C.3       15 UNK        -0.1800 
     87 C          -4.6734  -22.7274  -45.2317 C.2       15 UNK         0.5000 
     88 O          -4.9522  -22.3162  -44.1042 O.2       15 UNK        -0.5000 
     89 N          -5.0187  -22.0934  -46.3605 N.am      16 UNK        -0.5000 
     90 CA         -5.8338  -20.8790  -46.4251 C.3       16 UNK         0.1400 
     91 CB         -7.3187  -21.2824  -46.5127 C.3       16 UNK        -0.1800 
     92 C          -5.4246  -19.9425  -47.5807 C.2       16 UNK         0.5000 
     93 O          -6.1948  -19.0406  -47.9114 O.2       16 UNK        -0.5000 
     94 N          -4.2453  -20.1684  -48.1881 N.am      17 UNK        -0.5000 
     95 CA         -3.7110  -19.4489  -49.3595 C.3       17 UNK         0.1400 
     96 CB         -3.2797  -18.0135  -48.9873 C.3       17 UNK        -0.1800 
     97 C          -4.6517  -19.4855  -50.5885 C.2       17 UNK         0.5000 
     98 O          -4.7948  -18.4866  -51.2961 O.2       17 UNK        -0.5000 
     99 N          -5.2964  -20.6408  -50.8067 N.am      18 UNK        -0.5000 
    100 CA        -6.1662  -20.9152  -51.9483 C.3       18 UNK         0.1400 
    101 CB        -6.8799  -22.2580  -51.7226 C.3       18 UNK        -0.1800 
    102 C         -5.3542  -20.9404  -53.2541 C.2       18 UNK         0.5000 
    103 O         -4.4555  -21.7748  -53.3835 O.2       18 UNK        -0.5000 
    104 N         -5.6833  -20.0362  -54.1872 N.am      19 UNK        -0.5000 
    105 CA        -4.9481  -19.7804  -55.4325 C.3       19 UNK         0.1400 
    106 CB        -5.6543  -18.6623  -56.2139 C.3       19 UNK        -0.1800 
    107 C         -4.7487  -21.0171  -56.3267 C.2       19 UNK         0.5000 
    108 O         -3.6915  -21.1636  -56.9406 O.2       19 UNK        -0.5000 
    109 N         -5.7526  -21.9031  -56.3491 N.am      20 UNK        -0.5000 
    110 CA        -5.7280  -23.1731  -57.0754 C.3       20 UNK         0.1400 
    111 CB        -7.1455  -23.7661  -57.0810 C.3       20 UNK        -0.1800 
    112 C         -4.7209  -24.1938  -56.5071 C.2       20 UNK         0.5000 
    113 O         -4.3066  -25.0938  -57.2391 O.2       20 UNK        -0.5000 
    114 N         -4.3546  -24.0469  -55.2267 N.am      21 UNK        -0.5000 
    115 CA        -3.4087  -24.9113  -54.5299 C.3       21 UNK         0.1400 
    116 CB        -3.9567  -25.2363  -53.1326 C.3       21 UNK        -0.1800 
    117 C         -2.0164  -24.2659  -54.4433 C.2       21 UNK         0.5000 
    118 O         -1.0297  -24.9520  -54.7125 O.2       21 UNK        -0.5000 
    119 N         -1.9462  -22.9787  -54.0690 N.am      22 UNK        -0.5000 
    120 CA        -0.6739  -22.2435  -53.9476 C.3       22 UNK         0.1400 
    121 C         -0.0530  -21.7697  -55.2938 C.2       22 UNK         0.5000 
    122 N         -0.8016  -21.6899  -56.3873 N.am      22 UNK        -0.7600 
    123 O          1.1392  -21.4812  -55.3488 O.2       22 UNK        -0.5000 
    124 C124       -0.7277  -21.1096  -52.8916 C.3       23 UNK        -0.0398 
    125 S125       -1.7949  -19.6904  -53.3142 S.3       23 UNK        -0.2404 
    126 C126       -0.5825  -18.3882  -53.7086 C.3       23 UNK        -0.0205 
    127 H127        2.9173   -8.7993  -47.0765 H         1 UNK         0.0600 
    128 H128        2.5883   -9.5880  -48.6229 H         1 UNK         0.0600 
    129 H129        4.0229  -10.0319  -47.6926 H         1 UNK         0.0600 
    130 H130        0.9911  -11.1386  -48.4784 H         1 UNK         0.3000 
    131 H131        1.0179  -13.3050  -46.7388 H         1 UNK         0.0600 
    132 H132       -1.3332  -13.7542  -47.5974 H         1 UNK         0.0800 
    133 H133       -1.3067  -12.2102  -48.4078 H         1 UNK         0.0800 
    134 H134       -0.9917  -15.7762  -48.7120 H         1 UNK         0.0800 
    135 H135       -1.7341  -15.0884  -50.1278 H         1 UNK         0.0800 
    136 H136       -1.5638  -16.4957  -52.0186 H         1 UNK         0.1150 
    137 H137        1.8354  -19.0314  -52.6215 H         1 UNK         0.1150 
    138 H138        1.6567  -16.4883  -49.1829 H         1 UNK         0.1150 
    139 H139        3.7644  -18.8344  -51.1960 H         1 UNK         0.0800 
    140 H140        3.8432  -17.5844  -49.9813 H         1 UNK         0.0800 
    141 H141        2.0313  -20.8988  -50.8423 H         1 UNK         0.0800 
    142 H142        0.7886  -20.1889  -49.8352 H         1 UNK         0.0800 
    143 H143        2.5211  -22.5908  -49.0687 H         1 UNK         0.0600 
    144 H144        0.7442  -21.0311  -47.4254 H         1 UNK         0.3000 
    145 H145       -0.3921  -23.5006  -45.3452 H         1 UNK         0.0600 
    146 H146        0.9059  -22.8857  -43.3316 H         1 UNK         0.0600 
    147 H147        1.8883  -23.8959  -44.3766 H         1 UNK         0.0600 
    148 H148        2.1669  -22.1583  -44.3267 H         1 UNK         0.0600 
    149 H149        0.1159  -20.8495  -44.5326 H         1 UNK         0.3000 
    150 H150       -2.4252  -19.1733  -46.3573 H         1 UNK         0.0600 
    151 H151       -3.5363  -20.0445  -44.3779 H         1 UNK         0.0600 
    152 H152       -2.8288  -18.4966  -43.9566 H         1 UNK         0.0600 
    153 H153       -2.0563  -19.9961  -43.4392 H         1 UNK         0.0600 
    154 H154       -0.5242  -18.1439  -44.5692 H         1 UNK         0.3000 
    155 H155        2.2462  -17.8025  -46.8065 H         1 UNK         0.0600 
    156 H156        2.0968  -15.4869  -46.3833 H         1 UNK         0.0600 
    157 H157        0.5952  -15.6221  -45.4555 H         1 UNK         0.0600 
    158 H158        0.5992  -15.8587  -47.1933 H         1 UNK         0.0600 
    159 H159        1.4881  -17.2158  -44.0096 H         1 UNK         0.3000 
    160 H160        3.2418  -19.9699  -42.6864 H         1 UNK         0.0600 
    161 H161        4.1475  -17.0414  -42.6360 H         1 UNK         0.0600 
    162 H162        5.1546  -18.4229  -43.0464 H         1 UNK         0.0600 
    163 H163        4.5226  -18.2566  -41.4155 H         1 UNK         0.0600 
    164 H164        1.9986  -17.6423  -41.5263 H         1 UNK         0.3000 
    165 H165       -1.3200  -18.9207  -41.4957 H         1 UNK         0.0600 
    166 H166       -1.0884  -18.7809  -39.0401 H         1 UNK         0.0600 
    167 H167       -0.2553  -20.2079  -39.6343 H         1 UNK         0.0600 
    168 H168        0.6710  -18.7848  -39.1721 H         1 UNK         0.0600 
    169 H169       -0.2942  -16.6908  -40.1568 H         1 UNK         0.3000 
    170 H170       -1.3629  -14.4119  -42.4400 H         1 UNK         0.0600 
    171 H171       -1.5817  -14.8247  -39.9819 H         1 UNK         0.0600 
    172 H172        0.1699  -14.7158  -39.7950 H         1 UNK         0.0600 
    173 H173       -0.7546  -13.3152  -40.3160 H         1 UNK         0.0600 
    174 H174        0.4779  -13.4511  -43.1527 H         1 UNK         0.3000 
    175 H175        3.8936  -13.5295  -42.1855 H         1 UNK         0.0600 
    176 H176        2.6780  -13.9014  -44.9543 H         1 UNK         0.0600 
    177 H177        4.3557  -13.5594  -44.5617 H         1 UNK         0.0600 
    178 H178        3.6727  -15.1338  -44.1770 H         1 UNK         0.0600 
    179 H179        2.4324  -11.8198  -43.9569 H         1 UNK         0.3000 
    180 H180        1.4334   -9.4215  -41.4906 H         1 UNK         0.0600 
    181 H181        2.6387   -7.9956  -43.1254 H         1 UNK         0.0600 
    182 H182        3.4585   -9.4064  -43.7918 H         1 UNK         0.0600 
    183 H183        3.7732   -8.9021  -42.1367 H         1 UNK         0.0600 
    184 H184        1.1206   -9.9658  -44.3738 H         1 UNK         0.3000 
    185 H185       -2.2556  -10.9591  -44.0859 H         1 UNK         0.0600 
    186 H186       -1.2676   -8.2092  -45.0166 H         1 UNK         0.0600 
    187 H187       -2.7677   -8.9946  -45.5122 H         1 UNK         0.0600 
    188 H188       -2.5488   -8.4910  -43.8441 H         1 UNK         0.0600 
    189 H189       -0.6185  -10.1986  -46.3223 H         1 UNK         0.3000 
    190 H190       -0.9534  -22.4828  -48.6823 H         1 UNK         0.3000 
    191 H191       -1.4607  -24.1263  -51.1222 H         1 UNK         0.0600 
    192 H192       -3.8829  -23.7224  -50.3989 H         1 UNK         0.0600 
    193 H193       -3.0192  -22.2615  -50.8465 H         1 UNK         0.0600 
    194 H194       -3.2839  -22.6553  -49.1448 H         1 UNK         0.0600 
    195 H195       -2.1748  -26.2370  -50.8937 H         1 UNK         0.3000 
    196 H196       -1.6913  -27.7657  -48.5541 H         1 UNK         0.0600 
    197 H197       -3.4025  -28.3801  -51.0273 H         1 UNK         0.0600 
    198 H198       -1.6789  -28.7135  -50.8515 H         1 UNK         0.0600 
    199 H199       -2.8449  -29.5665  -49.8537 H         1 UNK         0.0600 
    200 H200       -4.4848  -25.9423  -49.5742 H         1 UNK         0.3000 
    201 H201       -6.4306  -27.0462  -47.7530 H         1 UNK         0.0600 
    202 H202       -6.3063  -24.3512  -49.2227 H         1 UNK         0.0600 
    203 H203       -7.7284  -25.0247  -48.4380 H         1 UNK         0.0600 
    204 H204       -7.0480  -25.8262  -49.8437 H         1 UNK         0.0600 
    205 H205       -3.6809  -25.0372  -47.2447 H         1 UNK         0.3000 
    206 H206       -2.8722  -23.7702  -45.6575 H         1 UNK         0.0600 
    207 H207       -3.2607  -25.8103  -44.2772 H         1 UNK         0.0600 
    208 H208       -3.3374  -24.3434  -43.3153 H         1 UNK         0.0600 
    209 H209       -4.8221  -25.1723  -43.7630 H         1 UNK         0.0600 
    210 H210       -4.7631  -22.5169  -47.2391 H         1 UNK         0.3000 
    211 H211       -5.6922  -20.2978  -45.5120 H         1 UNK         0.0600 
    212 H212       -7.9705  -20.4080  -46.5026 H         1 UNK         0.0600 
    213 H213       -7.6085  -21.9072  -45.6675 H         1 UNK         0.0600 
    214 H214       -7.5271  -21.8404  -47.4263 H         1 UNK         0.0600 
    215 H215       -3.6288  -20.8696  -47.7924 H         1 UNK         0.3000 
    216 H216       -2.8089  -19.9822  -49.6638 H         1 UNK         0.0600 
    217 H217       -2.8811  -17.4890  -49.8557 H         1 UNK         0.0600 
    218 H218       -4.1112  -17.4227  -48.6033 H         1 UNK         0.0600 
    219 H219       -2.4884  -18.0126  -48.2411 H         1 UNK         0.0600 
    220 H220       -5.1267  -21.4099  -50.1796 H         1 UNK         0.3000 
    221 H221       -6.9206  -20.1278  -52.0041 H         1 UNK         0.0600 
    222 H222       -7.4850  -22.2360  -50.8160 H         1 UNK         0.0600 
    223 H223       -6.1731  -23.0838  -51.6330 H         1 UNK         0.0600 
    224 H224       -7.5480  -22.4887  -52.5532 H         1 UNK         0.0600 
    225 H225       -6.4325  -19.3913  -53.9822 H         1 UNK         0.3000 
    226 H226       -3.9570  -19.4186  -55.1592 H         1 UNK         0.0600 
    227 H227       -6.6741  -18.9406  -56.4826 H         1 UNK         0.0600 
    228 H228       -5.6985  -17.7416  -55.6318 H         1 UNK         0.0600 
    229 H229       -5.1213  -18.4344  -57.1381 H         1 UNK         0.0600 
    230 H230       -6.5789  -21.7047  -55.8046 H         1 UNK         0.3000 
    231 H231       -5.4382  -22.9671  -58.1079 H         1 UNK         0.0600 
    232 H232       -7.4968  -23.9772  -56.0701 H         1 UNK         0.0600 
    233 H233       -7.1759  -24.7017  -57.6411 H         1 UNK         0.0600 
    234 H234       -7.8567  -23.0857  -57.5498 H         1 UNK         0.0600 
    235 H235       -4.6892  -23.2428  -54.7074 H         1 UNK         0.3000 
    236 H236       -3.2995  -25.8579  -55.0637 H         1 UNK         0.0600 
    237 H237       -3.2585  -25.8578  -52.5728 H         1 UNK         0.0600 
    238 H238       -4.1402  -24.3306  -52.5582 H         1 UNK         0.0600 
    239 H239       -4.8977  -25.7825  -53.1988 H         1 UNK         0.0600 
    240 H240       -2.7971  -22.4631  -53.8559 H         1 UNK         0.3000 
    241 H241        0.0525  -22.9558  -53.5501 H         1 UNK         0.0600 
    242 H242       -0.3778  -21.3878  -57.2495 H         1 UNK         0.3800 
    243 H243       -1.8031  -21.8361  -56.3554 H         1 UNK         0.3800 
    244 H244        0.2823  -20.7611  -52.6835 H         1 UNK         0.0800 
    245 H245       -1.0878  -21.5120  -51.9472 H         1 UNK         0.0800 
    246 H246       -1.0925  -17.5867  -54.2448 H         1 UNK         0.0800 
    247 H247        0.1714  -18.7796  -54.3935 H         1 UNK         0.0800 
@<TRIPOS>BOND
     1    1    2 1    
     2    1  127 1    
     3    1  128 1    
     4    1  129 1    
     5    2    3 2    
     6    2    4 am   BACKBONE|DICT|INTERRES
     7    4    5 1    
     8    4  130 1    
     9    5    6 1    
    10    5   65 1    
    11    5  131 1    
    12    6    7 1    
    13    6  132 1    
    14    6  133 1    
    15    7    8 1    
    16    8    9 1    
    17    8  134 1    
    18    8  135 1    
    19    9   10 ar   
    20    9   14 ar   
    21   10   11 ar   
    22   10  136 1    
    23   11   12 ar   
    24   11  126 1    
    25   12   13 ar   
    26   12  137 1    
    27   13   14 ar   
    28   13   15 1    
    29   14  138 1    
    30   15   16 1    
    31   15  139 1    
    32   15  140 1    
    33   16   17 1    
    34   17   18 1    
    35   17  141 1    
    36   17  142 1    
    37   18   19 1    
    38   18   67 1    
    39   18  143 1    
    40   19   20 am   BACKBONE|DICT|INTERRES
    41   19  144 1    
    42   20   21 2    
    43   20   22 1    
    44   22   23 1    
    45   22   24 1    
    46   22  145 1    
    47   23  146 1    
    48   23  147 1    
    49   23  148 1    
    50   24   25 am   BACKBONE|DICT|INTERRES
    51   24  149 1    
    52   25   26 2    
    53   25   27 1    
    54   27   28 1    
    55   27   29 1    
    56   27  150 1    
    57   28  151 1    
    58   28  152 1    
    59   28  153 1    
    60   29   30 am   BACKBONE|DICT|INTERRES
    61   29  154 1    
    62   30   31 2    
    63   30   32 1    
    64   32   33 1    
    65   32   34 1    
    66   32  155 1    
    67   33  156 1    
    68   33  157 1    
    69   33  158 1    
    70   34   35 am   BACKBONE|DICT|INTERRES
    71   34  159 1    
    72   35   36 2    
    73   35   37 1    
    74   37   38 1    
    75   37   39 1    
    76   37  160 1    
    77   38  161 1    
    78   38  162 1    
    79   38  163 1    
    80   39   40 am   BACKBONE|DICT|INTERRES
    81   39  164 1    
    82   40   41 2    
    83   40   42 1    
    84   42   43 1    
    85   42   44 1    
    86   42  165 1    
    87   43  166 1    
    88   43  167 1    
    89   43  168 1    
    90   44   45 am   BACKBONE|DICT|INTERRES
    91   44  169 1    
    92   45   46 2    
    93   45   47 1    
    94   47   48 1    
    95   47   49 1    
    96   47  170 1    
    97   48  171 1    
    98   48  172 1    
    99   48  173 1    
   100   49   50 am   BACKBONE|DICT|INTERRES
   101   49  174 1    
   102   50   51 2    
   103   50   52 1    
   104   52   53 1    
   105   52   54 1    
   106   52  175 1    
   107   53  176 1    
   108   53  177 1    
   109   53  178 1    
   110   54   55 am   BACKBONE|DICT|INTERRES
   111   54  179 1    
   112   55   56 2    
   113   55   57 1    
   114   57   58 1    
   115   57   59 1    
   116   57  180 1    
   117   58  181 1    
   118   58  182 1    
   119   58  183 1    
   120   59   60 am   BACKBONE|DICT|INTERRES
   121   59  184 1    
   122   60   61 2    
   123   60   62 1    
   124   62   63 1    
   125   62   64 1    
   126   62  185 1    
   127   63  186 1    
   128   63  187 1    
   129   63  188 1    
   130   64   65 am   BACKBONE|DICT|INTERRES
   131   64  189 1    
   132   65   66 2    
   133   67   68 2    
   134   67   69 am   BACKBONE|DICT|INTERRES
   135   69   70 1    
   136   69  190 1    
   137   70   71 1    
   138   70   72 1    
   139   70  191 1    
   140   71  192 1    
   141   71  193 1    
   142   71  194 1    
   143   72   73 2    
   144   72   74 am   BACKBONE|DICT|INTERRES
   145   74   75 1    
   146   74  195 1    
   147   75   76 1    
   148   75   77 1    
   149   75  196 1    
   150   76  197 1    
   151   76  198 1    
   152   76  199 1    
   153   77   78 2    
   154   77   79 am   BACKBONE|DICT|INTERRES
   155   79   80 1    
   156   79  200 1    
   157   80   81 1    
   158   80   82 1    
   159   80  201 1    
   160   81  202 1    
   161   81  203 1    
   162   81  204 1    
   163   82   83 2    
   164   82   84 am   BACKBONE|DICT|INTERRES
   165   84   85 1    
   166   84  205 1    
   167   85   86 1    
   168   85   87 1    
   169   85  206 1    
   170   86  207 1    
   171   86  208 1    
   172   86  209 1    
   173   87   88 2    
   174   87   89 am   BACKBONE|DICT|INTERRES
   175   89   90 1    
   176   89  210 1    
   177   90   91 1    
   178   90   92 1    
   179   90  211 1    
   180   91  212 1    
   181   91  213 1    
   182   91  214 1    
   183   92   93 2    
   184   92   94 am   BACKBONE|DICT|INTERRES
   185   94   95 1    
   186   94  215 1    
   187   95   96 1    
   188   95   97 1    
   189   95  216 1    
   190   96  217 1    
   191   96  218 1    
   192   96  219 1    
   193   97   98 2    
   194   97   99 am   BACKBONE|DICT|INTERRES
   195   99  100 1    
   196   99  220 1    
   197  100  101 1    
   198  100  102 1    
   199  100  221 1    
   200  101  222 1    
   201  101  223 1    
   202  101  224 1    
   203  102  103 2    
   204  102  104 am   BACKBONE|DICT|INTERRES
   205  104  105 1    
   206  104  225 1    
   207  105  106 1    
   208  105  107 1    
   209  105  226 1    
   210  106  227 1    
   211  106  228 1    
   212  106  229 1    
   213  107  108 2    
   214  107  109 am   BACKBONE|DICT|INTERRES
   215  109  110 1    
   216  109  230 1    
   217  110  111 1    
   218  110  112 1    
   219  110  231 1    
   220  111  232 1    
   221  111  233 1    
   222  111  234 1    
   223  112  113 2    
   224  112  114 am   BACKBONE|DICT|INTERRES
   225  114  115 1    
   226  114  235 1    
   227  115  116 1    
   228  115  117 1    
   229  115  236 1    
   230  116  237 1    
   231  116  238 1    
   232  116  239 1    
   233  117  118 2    
   234  117  119 am   BACKBONE|DICT|INTERRES
   235  119  120 1    
   236  119  240 1    
   237  120  121 1    
   238  120  124 1    
   239  120  241 1    
   240  121  122 am   BACKBONE|DICT|INTERRES
   241  121  123 2    
   242  122  242 1    
   243  122  243 1    
   244  124  125 1    
   245  124  244 1    
   246  124  245 1    
   247  125  126 1    
   248  126  246 1    
   249  126  247 1    
@<TRIPOS>SUBSTRUCTURE
     1 UNK         1 GROUP             0       ****    0 ROOT    
