@<TRIPOS>MOLECULE
3R540
247   249    1
SMALL
USER_CHARGES


@<TRIPOS>ATOM
      1 CA         -4.9044  -14.1189  -51.5594 C.3       0 UNK        -0.1800 
      2 C          -3.4819  -13.9247  -51.0575 C.2       0 UNK         0.5000 
      3 O          -2.7767  -13.0490  -51.5598 O.2       0 UNK        -0.5000 
      4 N          -3.0566  -14.7250  -50.0709 N.am      1 UNK        -0.5000 
      5 CA         -1.7730  -14.5834  -49.3772 C.3       1 UNK         0.1400 
      6 C6         -1.3934  -15.8385  -48.5531 C.3       23 UNK        -0.0398 
      7 S7         -1.0667  -17.3233  -49.5559 S.3       23 UNK        -0.2404 
      8 C8          0.7314  -17.1842  -49.8406 C.3       23 UNK        -0.0205 
      9 C9          1.3278  -18.5241  -50.2478 C.ar      23 UNK        -0.0193 
     10 C10         1.0081  -19.0883  -51.4857 C.ar      23 UNK        -0.1150 
     11 C11         1.4448  -20.3737  -51.8138 C.ar      23 UNK        -0.0193 
     12 C12         2.2914  -21.0560  -50.9373 C.ar      23 UNK        -0.1150 
     13 C13         2.6572  -20.4856  -49.7161 C.ar      23 UNK        -0.0193 
     14 C14         2.1630  -19.2238  -49.3707 C.ar      23 UNK        -0.1150 
     15 C15         3.5604  -21.2540  -48.7636 C.3       23 UNK        -0.0205 
     16 S16         2.6923  -22.6542  -47.9886 S.3       23 UNK        -0.2404 
     17 C17         1.6070  -21.7699  -46.8228 C.3       23 UNK        -0.0398 
     18 CA          0.6749  -22.7135  -46.0215 C.3       11 UNK         0.1400 
     19 N           0.4400  -22.1776  -44.6792 N.am      11 UNK        -0.5000 
     20 C           0.6636  -22.8227  -43.5269 C.2       10 UNK         0.5000 
     21 O           1.0824  -23.9788  -43.4623 O.2       10 UNK        -0.5000 
     22 CA          0.3725  -22.0570  -42.2180 C.3       10 UNK         0.1400 
     23 CB          1.6839  -21.5695  -41.5873 C.3       10 UNK        -0.1800 
     24 N          -0.5221  -20.9096  -42.3837 N.am      10 UNK        -0.5000 
     25 C          -1.8064  -20.9880  -42.7510 C.2       9 UNK         0.5000 
     26 O          -2.3890  -22.0522  -42.9538 O.2       9 UNK        -0.5000 
     27 CA         -2.5453  -19.6588  -42.9900 C.3       9 UNK         0.1400 
     28 CB         -3.1745  -19.1470  -41.6858 C.3       9 UNK        -0.1800 
     29 N          -1.7097  -18.6039  -43.5731 N.am      9 UNK        -0.5000 
     30 C          -1.0744  -18.6702  -44.7519 C.2       8 UNK         0.5000 
     31 O          -1.0402  -19.6808  -45.4540 O.2       8 UNK        -0.5000 
     32 CA         -0.3693  -17.3861  -45.2229 C.3       8 UNK         0.1400 
     33 CB         -1.2264  -16.1267  -44.9919 C.3       8 UNK        -0.1800 
     34 N           0.9208  -17.2064  -44.5644 N.am      8 UNK        -0.5000 
     35 C           2.0490  -17.8478  -44.8958 C.2       7 UNK         0.5000 
     36 O           2.1200  -18.6865  -45.7911 O.2       7 UNK        -0.5000 
     37 CA          3.3185  -17.4839  -44.1092 C.3       7 UNK         0.1400 
     38 CB          3.9194  -16.1727  -44.6379 C.3       7 UNK        -0.1800 
     39 N           3.0343  -17.3356  -42.6833 N.am      7 UNK        -0.5000 
     40 C           3.4691  -18.1615  -41.7226 C.2       6 UNK         0.5000 
     41 O           4.2225  -19.1131  -41.9306 O.2       6 UNK        -0.5000 
     42 CA          2.9966  -17.8888  -40.2778 C.3       6 UNK         0.1400 
     43 CB          4.1230  -17.2367  -39.4610 C.3       6 UNK        -0.1800 
     44 N           1.8036  -17.0451  -40.1841 N.am      6 UNK        -0.5000 
     45 C           0.5790  -17.3878  -40.6047 C.2       5 UNK         0.5000 
     46 O           0.3048  -18.4821  -41.0947 O.2       5 UNK        -0.5000 
     47 CA         -0.5130  -16.3026  -40.5211 C.3       5 UNK         0.1400 
     48 CB         -1.2821  -16.4192  -39.1972 C.3       5 UNK        -0.1800 
     49 N          -0.0257  -14.9257  -40.6775 N.am      5 UNK        -0.5000 
     50 C           0.6809  -14.4635  -41.7181 C.2       4 UNK         0.5000 
     51 O           1.0818  -15.1794  -42.6393 O.2       4 UNK        -0.5000 
     52 CA          1.0436  -12.9667  -41.6952 C.3       4 UNK         0.1400 
     53 CB          2.2566  -12.7316  -40.7814 C.3       4 UNK        -0.1800 
     54 N           1.3607  -12.4588  -43.0311 N.am      4 UNK        -0.5000 
     55 C           0.4869  -12.3604  -44.0404 C.2       3 UNK         0.5000 
     56 O          -0.7211  -12.5893  -43.9290 O.2       3 UNK        -0.5000 
     57 CA          1.0723  -11.9451  -45.3991 C.3       3 UNK         0.1400 
     58 CB          2.0223  -13.0235  -45.9545 C.3       3 UNK        -0.1800 
     59 N          -0.0134  -11.7297  -46.3475 N.am      3 UNK        -0.5000 
     60 C           0.0104  -10.9056  -47.3976 C.2       2 UNK         0.5000 
     61 O           0.9784  -10.2006  -47.6900 O.2       2 UNK        -0.5000 
     62 CA         -1.2474  -10.9164  -48.2902 C.3       2 UNK         0.1400 
     63 CB         -1.2548   -9.7751  -49.3231 C.3       2 UNK        -0.1800 
     64 N          -1.3659  -12.1908  -48.9993 N.am      2 UNK        -0.5000 
     65 C          -1.8118  -13.3359  -48.4692 C.2       1 UNK         0.5000 
     66 O          -2.2477  -13.4265  -47.3195 O.2       1 UNK        -0.5000 
     67 C          -0.6559  -22.9827  -46.7607 C.2       11 UNK         0.5000 
     68 O          -0.6339  -23.3060  -47.9491 O.2       11 UNK        -0.5000 
     69 N          -1.7988  -22.8681  -46.0632 N.am      12 UNK        -0.5000 
     70 CA         -3.1535  -22.9587  -46.6190 C.3       12 UNK         0.1400 
     71 CB         -4.1788  -22.7103  -45.5054 C.3       12 UNK        -0.1800 
     72 C          -3.4787  -24.2688  -47.3613 C.2       12 UNK         0.5000 
     73 O          -4.3174  -24.2506  -48.2624 O.2       12 UNK        -0.5000 
     74 N          -2.8026  -25.3661  -46.9980 N.am      13 UNK        -0.5000 
     75 CA         -2.9112  -26.6636  -47.6665 C.3       13 UNK         0.1400 
     76 CB         -2.2285  -27.7327  -46.8002 C.3       13 UNK        -0.1800 
     77 C          -2.3199  -26.6641  -49.0909 C.2       13 UNK         0.5000 
     78 O          -2.8328  -27.3755  -49.9552 O.2       13 UNK        -0.5000 
     79 N          -1.2650  -25.8680  -49.3120 N.am      14 UNK        -0.5000 
     80 CA         -0.6090  -25.7007  -50.6097 C.3       14 UNK         0.1400 
     81 CB          0.8970  -25.4896  -50.3894 C.3       14 UNK        -0.1800 
     82 C          -1.1986  -24.5148  -51.3891 C.2       14 UNK         0.5000 
     83 O          -1.2911  -24.5815  -52.6151 O.2       14 UNK        -0.5000 
     84 N          -1.5745  -23.4562  -50.6589 N.am      15 UNK        -0.5000 
     85 CA         -2.0733  -22.1856  -51.1822 C.3       15 UNK         0.1400 
     86 CB         -1.6952  -21.0805  -50.1844 C.3       15 UNK        -0.1800 
     87 C          -3.5836  -22.1603  -51.4765 C.2       15 UNK         0.5000 
     88 O          -4.0816  -21.1140  -51.8969 O.2       15 UNK        -0.5000 
     89 N          -4.2769  -23.2818  -51.2339 N.am      16 UNK        -0.5000 
     90 CA         -5.7075  -23.5141  -51.4527 C.3       16 UNK         0.1400 
     91 CB         -6.0489  -23.4376  -52.9544 C.3       16 UNK        -0.1800 
     92 C          -6.5776  -22.5782  -50.5933 C.2       16 UNK         0.5000 
     93 O          -7.2540  -21.6942  -51.1187 O.2       16 UNK        -0.5000 
     94 N          -6.5018  -22.7740  -49.2702 N.am      17 UNK        -0.5000 
     95 CA         -7.1775  -21.9961  -48.2233 C.3       17 UNK         0.1400 
     96 CB         -8.7134  -22.0711  -48.3606 C.3       17 UNK        -0.1800 
     97 C          -6.6432  -20.5514  -48.1212 C.2       17 UNK         0.5000 
     98 O          -7.3954  -19.6349  -47.7883 O.2       17 UNK        -0.5000 
     99 N          -5.3433  -20.3889  -48.4153 N.am      18 UNK        -0.5000 
    100 CA        -4.5829  -19.1326  -48.4338 C.3       18 UNK         0.1400 
    101 CB        -4.5097  -18.4991  -47.0286 C.3       18 UNK        -0.1800 
    102 C         -5.0443  -18.1463  -49.5297 C.2       18 UNK         0.5000 
    103 O         -4.8209  -16.9413  -49.4044 O.2       18 UNK        -0.5000 
    104 N         -5.6363  -18.6796  -50.6097 N.am      19 UNK        -0.5000 
    105 CA        -6.0356  -17.9423  -51.8128 C.3       19 UNK         0.1400 
    106 CB        -7.0756  -18.7749  -52.5776 C.3       19 UNK        -0.1800 
    107 C         -4.8473  -17.6000  -52.7359 C.2       19 UNK         0.5000 
    108 O         -5.0232  -16.8502  -53.6959 O.2       19 UNK        -0.5000 
    109 N         -3.6751  -18.1732  -52.4354 N.am      20 UNK        -0.5000 
    110 CA        -2.3999  -18.0670  -53.1440 C.3       20 UNK         0.1400 
    111 CB        -1.8872  -16.6136  -53.2028 C.3       20 UNK        -0.1800 
    112 C         -2.3892  -18.7712  -54.5130 C.2       20 UNK         0.5000 
    113 O         -1.5575  -18.4523  -55.3641 O.2       20 UNK        -0.5000 
    114 N         -3.2805  -19.7528  -54.6883 N.am      21 UNK        -0.5000 
    115 CA        -3.3249  -20.6338  -55.8480 C.3       21 UNK         0.1400 
    116 CB        -4.7915  -20.9835  -56.1536 C.3       21 UNK        -0.1800 
    117 C         -2.4673  -21.8686  -55.5339 C.2       21 UNK         0.5000 
    118 O         -3.0009  -22.8822  -55.0829 O.2       21 UNK        -0.5000 
    119 N         -1.1460  -21.7254  -55.7082 N.am      22 UNK        -0.5000 
    120 CA        -0.1365  -22.7583  -55.4317 C.3       22 UNK         0.1400 
    121 C         -0.3669  -24.0624  -56.2450 C.2       22 UNK         0.5000 
    122 N         -0.6917  -25.1621  -55.5780 N.am      22 UNK        -0.7600 
    123 O         -0.2235  -24.0842  -57.4651 O.2       22 UNK        -0.5000 
    124 C124        1.3133  -22.2252  -55.6346 C.3       23 UNK        -0.0398 
    125 S125        1.8996  -20.8785  -54.5300 S.3       23 UNK        -0.2404 
    126 C126        0.8939  -21.0878  -53.0348 C.3       23 UNK        -0.0205 
    127 H127       -5.4706  -13.1951  -51.4426 H         1 UNK         0.0600 
    128 H128       -4.8960  -14.3807  -52.6170 H         1 UNK         0.0600 
    129 H129       -5.4246  -14.9034  -51.0122 H         1 UNK         0.0600 
    130 H130       -3.6749  -15.4524  -49.7182 H         1 UNK         0.3000 
    131 H131       -0.9913  -14.4338  -50.1252 H         1 UNK         0.0600 
    132 H132       -0.5146  -15.6399  -47.9378 H         1 UNK         0.0800 
    133 H133       -2.1970  -16.0838  -47.8581 H         1 UNK         0.0800 
    134 H134        0.9190  -16.4448  -50.6202 H         1 UNK         0.0800 
    135 H135        1.2221  -16.8189  -48.9372 H         1 UNK         0.0800 
    136 H136        0.3725  -18.5464  -52.1661 H         1 UNK         0.1150 
    137 H137        2.6307  -22.0528  -51.1826 H         1 UNK         0.1150 
    138 H138        2.4143  -18.7954  -48.4108 H         1 UNK         0.1150 
    139 H139        4.4206  -21.6344  -49.3161 H         1 UNK         0.0800 
    140 H140        3.9593  -20.5966  -47.9893 H         1 UNK         0.0800 
    141 H141        2.2751  -21.2453  -46.1392 H         1 UNK         0.0800 
    142 H142        1.0426  -20.9922  -47.3415 H         1 UNK         0.0800 
    143 H143        1.1657  -23.6846  -45.9348 H         1 UNK         0.0600 
    144 H144        0.0607  -21.2363  -44.6536 H         1 UNK         0.3000 
    145 H145       -0.1026  -22.7562  -41.5270 H         1 UNK         0.0600 
    146 H146        1.5052  -21.0673  -40.6364 H         1 UNK         0.0600 
    147 H147        2.3619  -22.4017  -41.3942 H         1 UNK         0.0600 
    148 H148        2.1997  -20.8712  -42.2462 H         1 UNK         0.0600 
    149 H149       -0.1395  -19.9934  -42.1625 H         1 UNK         0.3000 
    150 H150       -3.3518  -19.8571  -43.6981 H         1 UNK         0.0600 
    151 H151       -3.8511  -19.8906  -41.2627 H         1 UNK         0.0600 
    152 H152       -3.7548  -18.2397  -41.8539 H         1 UNK         0.0600 
    153 H153       -2.4178  -18.9292  -40.9322 H         1 UNK         0.0600 
    154 H154       -1.6558  -17.7426  -43.0537 H         1 UNK         0.3000 
    155 H155       -0.2043  -17.4858  -46.2978 H         1 UNK         0.0600 
    156 H156       -1.3426  -15.8921  -43.9336 H         1 UNK         0.0600 
    157 H157       -2.2249  -16.2441  -45.4144 H         1 UNK         0.0600 
    158 H158       -0.7752  -15.2546  -45.4655 H         1 UNK         0.0600 
    159 H159        0.9587  -16.4981  -43.8349 H         1 UNK         0.3000 
    160 H160        4.0465  -18.2798  -44.2791 H         1 UNK         0.0600 
    161 H161        4.8728  -15.9563  -44.1558 H         1 UNK         0.0600 
    162 H162        3.2553  -15.3281  -44.4559 H         1 UNK         0.0600 
    163 H163        4.1009  -16.2269  -45.7121 H         1 UNK         0.0600 
    164 H164        2.4036  -16.5818  -42.4316 H         1 UNK         0.3000 
    165 H165        2.7606  -18.8549  -39.8269 H         1 UNK         0.0600 
    166 H166        3.8336  -17.1130  -38.4172 H         1 UNK         0.0600 
    167 H167        5.0240  -17.8514  -39.4755 H         1 UNK         0.0600 
    168 H168        4.3887  -16.2552  -39.8558 H         1 UNK         0.0600 
    169 H169        1.9345  -16.1186  -39.8061 H         1 UNK         0.3000 
    170 H170       -1.2140  -16.4895  -41.3361 H         1 UNK         0.0600 
    171 H171       -1.6678  -17.4294  -39.0536 H         1 UNK         0.0600 
    172 H172       -0.6467  -16.1869  -38.3417 H         1 UNK         0.0600 
    173 H173       -2.1362  -15.7421  -39.1757 H         1 UNK         0.0600 
    174 H174       -0.2949  -14.2773  -39.9513 H         1 UNK         0.3000 
    175 H175        0.1899  -12.4070  -41.3074 H         1 UNK         0.0600 
    176 H176        3.1345  -13.2783  -41.1292 H         1 UNK         0.0600 
    177 H177        2.5168  -11.6739  -40.7355 H         1 UNK         0.0600 
    178 H178        2.0513  -13.0565  -39.7606 H         1 UNK         0.0600 
    179 H179        2.3359  -12.2757  -43.2146 H         1 UNK         0.3000 
    180 H180        1.6202  -11.0114  -45.2561 H         1 UNK         0.0600 
    181 H181        1.5297  -13.9944  -46.0264 H         1 UNK         0.0600 
    182 H182        2.8974  -13.1416  -45.3157 H         1 UNK         0.0600 
    183 H183        2.3870  -12.7597  -46.9473 H         1 UNK         0.0600 
    184 H184       -0.8539  -12.2696  -46.1620 H         1 UNK         0.3000 
    185 H185       -2.1165  -10.7837  -47.6421 H         1 UNK         0.0600 
    186 H186       -1.1793   -8.8038  -48.8326 H         1 UNK         0.0600 
    187 H187       -0.4223   -9.8568  -50.0233 H         1 UNK         0.0600 
    188 H188       -2.1788   -9.7752  -49.9017 H         1 UNK         0.0600 
    189 H189       -1.0720  -12.1919  -49.9666 H         1 UNK         0.3000 
    190 H190       -1.7370  -22.6197  -45.0841 H         1 UNK         0.3000 
    191 H191       -3.2519  -22.1529  -47.3466 H         1 UNK         0.0600 
    192 H192       -4.0451  -23.4055  -44.6759 H         1 UNK         0.0600 
    193 H193       -5.1989  -22.8317  -45.8653 H         1 UNK         0.0600 
    194 H194       -4.0953  -21.6965  -45.1153 H         1 UNK         0.0600 
    195 H195       -2.1367  -25.2923  -46.2432 H         1 UNK         0.3000 
    196 H196       -3.9707  -26.9161  -47.7481 H         1 UNK         0.0600 
    197 H197       -2.3119  -28.7188  -47.2592 H         1 UNK         0.0600 
    198 H198       -2.6892  -27.7948  -45.8141 H         1 UNK         0.0600 
    199 H199       -1.1669  -27.5230  -46.6632 H         1 UNK         0.0600 
    200 H200       -0.9404  -25.2653  -48.5651 H         1 UNK         0.3000 
    201 H201       -0.7395  -26.6013  -51.2135 H         1 UNK         0.0600 
    202 H202        1.3422  -26.3379  -49.8697 H         1 UNK         0.0600 
    203 H203        1.0968  -24.5937  -49.8002 H         1 UNK         0.0600 
    204 H204        1.4194  -25.3789  -51.3405 H         1 UNK         0.0600 
    205 H205       -1.3838  -23.4772  -49.6604 H         1 UNK         0.3000 
    206 H206       -1.5814  -21.9846  -52.1317 H         1 UNK         0.0600 
    207 H207       -1.9591  -20.0932  -50.5619 H         1 UNK         0.0600 
    208 H208       -0.6238  -21.0753  -49.9861 H         1 UNK         0.0600 
    209 H209       -2.1963  -21.2183  -49.2279 H         1 UNK         0.0600 
    210 H210       -3.7671  -24.0568  -50.8339 H         1 UNK         0.3000 
    211 H211       -5.9114  -24.5333  -51.1207 H         1 UNK         0.0600 
    212 H212       -5.9269  -22.4276  -53.3433 H         1 UNK         0.0600 
    213 H213       -7.0834  -23.7320  -53.1334 H         1 UNK         0.0600 
    214 H214       -5.4118  -24.1003  -53.5403 H         1 UNK         0.0600 
    215 H215       -5.8536  -23.4854  -48.9355 H         1 UNK         0.3000 
    216 H216       -6.9242  -22.4795  -47.2808 H         1 UNK         0.0600 
    217 H217       -9.2031  -21.6441  -47.4847 H         1 UNK         0.0600 
    218 H218       -9.0520  -23.1033  -48.4488 H         1 UNK         0.0600 
    219 H219       -9.0740  -21.5228  -49.2312 H         1 UNK         0.0600 
    220 H220       -4.8420  -21.2106  -48.7172 H         1 UNK         0.3000 
    221 H221       -3.5628  -19.4012  -48.7049 H         1 UNK         0.0600 
    222 H222       -5.4798  -18.1289  -46.6971 H         1 UNK         0.0600 
    223 H223       -4.1516  -19.2176  -46.2910 H         1 UNK         0.0600 
    224 H224       -3.8190  -17.6562  -47.0150 H         1 UNK         0.0600 
    225 H225       -5.7785  -19.6812  -50.6425 H         1 UNK         0.3000 
    226 H226       -6.5041  -17.0047  -51.5090 H         1 UNK         0.0600 
    227 H227       -7.9330  -19.0125  -51.9476 H         1 UNK         0.0600 
    228 H228       -7.4509  -18.2334  -53.4468 H         1 UNK         0.0600 
    229 H229       -6.6510  -19.7145  -52.9346 H         1 UNK         0.0600 
    230 H230       -3.6904  -18.8377  -51.6741 H         1 UNK         0.3000 
    231 H231       -1.7098  -18.6370  -52.5282 H         1 UNK         0.0600 
    232 H232       -1.8573  -16.1674  -52.2108 H         1 UNK         0.0600 
    233 H233       -2.5129  -15.9849  -53.8362 H         1 UNK         0.0600 
    234 H234       -0.8730  -16.5711  -53.6010 H         1 UNK         0.0600 
    235 H235       -3.8733  -20.0072  -53.9075 H         1 UNK         0.3000 
    236 H236       -2.9116  -20.1371  -56.7285 H         1 UNK         0.0600 
    237 H237       -4.8601  -21.6726  -56.9960 H         1 UNK         0.0600 
    238 H238       -5.2842  -21.4529  -55.3033 H         1 UNK         0.0600 
    239 H239       -5.3602  -20.0909  -56.4146 H         1 UNK         0.0600 
    240 H240       -0.7956  -20.8424  -56.0527 H         1 UNK         0.3000 
    241 H241       -0.2624  -23.0338  -54.3888 H         1 UNK         0.0600 
    242 H242       -0.8415  -26.0237  -56.0787 H         1 UNK         0.3800 
    243 H243       -0.8837  -25.1168  -54.5821 H         1 UNK         0.3800 
    244 H244        2.0221  -23.0456  -55.5075 H         1 UNK         0.0800 
    245 H245        1.4420  -21.8879  -56.6644 H         1 UNK         0.0800 
    246 H246        0.8212  -22.1465  -52.7858 H         1 UNK         0.0800 
    247 H247       -0.1141  -20.7320  -53.2461 H         1 UNK         0.0800 
@<TRIPOS>BOND
     1    1    2 1    
     2    1  127 1    
     3    1  128 1    
     4    1  129 1    
     5    2    3 2    
     6    2    4 am   BACKBONE|DICT|INTERRES
     7    4    5 1    
     8    4  130 1    
     9    5    6 1    
    10    5   65 1    
    11    5  131 1    
    12    6    7 1    
    13    6  132 1    
    14    6  133 1    
    15    7    8 1    
    16    8    9 1    
    17    8  134 1    
    18    8  135 1    
    19    9   10 ar   
    20    9   14 ar   
    21   10   11 ar   
    22   10  136 1    
    23   11   12 ar   
    24   11  126 1    
    25   12   13 ar   
    26   12  137 1    
    27   13   14 ar   
    28   13   15 1    
    29   14  138 1    
    30   15   16 1    
    31   15  139 1    
    32   15  140 1    
    33   16   17 1    
    34   17   18 1    
    35   17  141 1    
    36   17  142 1    
    37   18   19 1    
    38   18   67 1    
    39   18  143 1    
    40   19   20 am   BACKBONE|DICT|INTERRES
    41   19  144 1    
    42   20   21 2    
    43   20   22 1    
    44   22   23 1    
    45   22   24 1    
    46   22  145 1    
    47   23  146 1    
    48   23  147 1    
    49   23  148 1    
    50   24   25 am   BACKBONE|DICT|INTERRES
    51   24  149 1    
    52   25   26 2    
    53   25   27 1    
    54   27   28 1    
    55   27   29 1    
    56   27  150 1    
    57   28  151 1    
    58   28  152 1    
    59   28  153 1    
    60   29   30 am   BACKBONE|DICT|INTERRES
    61   29  154 1    
    62   30   31 2    
    63   30   32 1    
    64   32   33 1    
    65   32   34 1    
    66   32  155 1    
    67   33  156 1    
    68   33  157 1    
    69   33  158 1    
    70   34   35 am   BACKBONE|DICT|INTERRES
    71   34  159 1    
    72   35   36 2    
    73   35   37 1    
    74   37   38 1    
    75   37   39 1    
    76   37  160 1    
    77   38  161 1    
    78   38  162 1    
    79   38  163 1    
    80   39   40 am   BACKBONE|DICT|INTERRES
    81   39  164 1    
    82   40   41 2    
    83   40   42 1    
    84   42   43 1    
    85   42   44 1    
    86   42  165 1    
    87   43  166 1    
    88   43  167 1    
    89   43  168 1    
    90   44   45 am   BACKBONE|DICT|INTERRES
    91   44  169 1    
    92   45   46 2    
    93   45   47 1    
    94   47   48 1    
    95   47   49 1    
    96   47  170 1    
    97   48  171 1    
    98   48  172 1    
    99   48  173 1    
   100   49   50 am   BACKBONE|DICT|INTERRES
   101   49  174 1    
   102   50   51 2    
   103   50   52 1    
   104   52   53 1    
   105   52   54 1    
   106   52  175 1    
   107   53  176 1    
   108   53  177 1    
   109   53  178 1    
   110   54   55 am   BACKBONE|DICT|INTERRES
   111   54  179 1    
   112   55   56 2    
   113   55   57 1    
   114   57   58 1    
   115   57   59 1    
   116   57  180 1    
   117   58  181 1    
   118   58  182 1    
   119   58  183 1    
   120   59   60 am   BACKBONE|DICT|INTERRES
   121   59  184 1    
   122   60   61 2    
   123   60   62 1    
   124   62   63 1    
   125   62   64 1    
   126   62  185 1    
   127   63  186 1    
   128   63  187 1    
   129   63  188 1    
   130   64   65 am   BACKBONE|DICT|INTERRES
   131   64  189 1    
   132   65   66 2    
   133   67   68 2    
   134   67   69 am   BACKBONE|DICT|INTERRES
   135   69   70 1    
   136   69  190 1    
   137   70   71 1    
   138   70   72 1    
   139   70  191 1    
   140   71  192 1    
   141   71  193 1    
   142   71  194 1    
   143   72   73 2    
   144   72   74 am   BACKBONE|DICT|INTERRES
   145   74   75 1    
   146   74  195 1    
   147   75   76 1    
   148   75   77 1    
   149   75  196 1    
   150   76  197 1    
   151   76  198 1    
   152   76  199 1    
   153   77   78 2    
   154   77   79 am   BACKBONE|DICT|INTERRES
   155   79   80 1    
   156   79  200 1    
   157   80   81 1    
   158   80   82 1    
   159   80  201 1    
   160   81  202 1    
   161   81  203 1    
   162   81  204 1    
   163   82   83 2    
   164   82   84 am   BACKBONE|DICT|INTERRES
   165   84   85 1    
   166   84  205 1    
   167   85   86 1    
   168   85   87 1    
   169   85  206 1    
   170   86  207 1    
   171   86  208 1    
   172   86  209 1    
   173   87   88 2    
   174   87   89 am   BACKBONE|DICT|INTERRES
   175   89   90 1    
   176   89  210 1    
   177   90   91 1    
   178   90   92 1    
   179   90  211 1    
   180   91  212 1    
   181   91  213 1    
   182   91  214 1    
   183   92   93 2    
   184   92   94 am   BACKBONE|DICT|INTERRES
   185   94   95 1    
   186   94  215 1    
   187   95   96 1    
   188   95   97 1    
   189   95  216 1    
   190   96  217 1    
   191   96  218 1    
   192   96  219 1    
   193   97   98 2    
   194   97   99 am   BACKBONE|DICT|INTERRES
   195   99  100 1    
   196   99  220 1    
   197  100  101 1    
   198  100  102 1    
   199  100  221 1    
   200  101  222 1    
   201  101  223 1    
   202  101  224 1    
   203  102  103 2    
   204  102  104 am   BACKBONE|DICT|INTERRES
   205  104  105 1    
   206  104  225 1    
   207  105  106 1    
   208  105  107 1    
   209  105  226 1    
   210  106  227 1    
   211  106  228 1    
   212  106  229 1    
   213  107  108 2    
   214  107  109 am   BACKBONE|DICT|INTERRES
   215  109  110 1    
   216  109  230 1    
   217  110  111 1    
   218  110  112 1    
   219  110  231 1    
   220  111  232 1    
   221  111  233 1    
   222  111  234 1    
   223  112  113 2    
   224  112  114 am   BACKBONE|DICT|INTERRES
   225  114  115 1    
   226  114  235 1    
   227  115  116 1    
   228  115  117 1    
   229  115  236 1    
   230  116  237 1    
   231  116  238 1    
   232  116  239 1    
   233  117  118 2    
   234  117  119 am   BACKBONE|DICT|INTERRES
   235  119  120 1    
   236  119  240 1    
   237  120  121 1    
   238  120  124 1    
   239  120  241 1    
   240  121  122 am   BACKBONE|DICT|INTERRES
   241  121  123 2    
   242  122  242 1    
   243  122  243 1    
   244  124  125 1    
   245  124  244 1    
   246  124  245 1    
   247  125  126 1    
   248  126  246 1    
   249  126  247 1    
@<TRIPOS>SUBSTRUCTURE
     1 UNK         1 GROUP             0       ****    0 ROOT    
