@<TRIPOS>MOLECULE
3R540
247   249    1
SMALL
USER_CHARGES


@<TRIPOS>ATOM
      1 CA          2.1335  -14.0710  -47.1812 C.3       0 UNK        -0.1800 
      2 C           1.1617  -13.7303  -46.0617 C.2       0 UNK         0.5000 
      3 O           1.5832  -13.5249  -44.9231 O.2       0 UNK        -0.5000 
      4 N          -0.1368  -13.6634  -46.3815 N.am      1 UNK        -0.5000 
      5 CA         -1.2373  -13.4428  -45.4310 C.3       1 UNK         0.1400 
      6 C6         -2.6290  -13.6361  -46.0816 C.3       23 UNK        -0.0398 
      7 S7         -2.7943  -15.2219  -46.9710 S.3       23 UNK        -0.2404 
      8 C8         -3.3489  -14.6348  -48.6035 C.3       23 UNK        -0.0205 
      9 C9         -3.5588  -15.7846  -49.5766 C.ar      23 UNK        -0.0193 
     10 C10        -2.7699  -15.8971  -50.7263 C.ar      23 UNK        -0.1150 
     11 C11        -2.9720  -16.9495  -51.6247 C.ar      23 UNK        -0.0193 
     12 C12        -3.9670  -17.8957  -51.3587 C.ar      23 UNK        -0.1150 
     13 C13        -4.7574  -17.7985  -50.2111 C.ar      23 UNK        -0.0193 
     14 C14        -4.5550  -16.7336  -49.3302 C.ar      23 UNK        -0.1150 
     15 C15        -5.8213  -18.8461  -49.9117 C.3       23 UNK        -0.0205 
     16 S16        -5.1321  -20.5242  -49.7257 S.3       23 UNK        -0.2404 
     17 C17        -3.9615  -20.3080  -48.3401 C.3       23 UNK        -0.0398 
     18 CA         -2.8407  -21.3822  -48.3710 C.3       11 UNK         0.1400 
     19 N          -1.4965  -20.7956  -48.3722 N.am      11 UNK        -0.5000 
     20 C          -0.3774  -21.4791  -48.6479 C.2       10 UNK         0.5000 
     21 O          -0.3701  -22.6721  -48.9471 O.2       10 UNK        -0.5000 
     22 CA          0.9620  -20.7263  -48.5403 C.3       10 UNK         0.1400 
     23 CB          1.3558  -20.1634  -49.9141 C.3       10 UNK        -0.1800 
     24 N           1.0148  -19.6452  -47.5475 N.am      10 UNK        -0.5000 
     25 C           0.6649  -19.7313  -46.2560 C.2       9 UNK         0.5000 
     26 O           0.0985  -20.7112  -45.7654 O.2       9 UNK        -0.5000 
     27 CA          0.9861  -18.4982  -45.3857 C.3       9 UNK         0.1400 
     28 CB          0.0616  -17.3244  -45.7406 C.3       9 UNK        -0.1800 
     29 N           0.8708  -18.7721  -43.9514 N.am      9 UNK        -0.5000 
     30 C           1.6458  -19.6257  -43.2651 C.2       8 UNK         0.5000 
     31 O           2.6327  -20.1794  -43.7533 O.2       8 UNK        -0.5000 
     32 CA          1.2709  -19.9078  -41.7949 C.3       8 UNK         0.1400 
     33 CB          2.5181  -20.0200  -40.8997 C.3       8 UNK        -0.1800 
     34 N           0.3854  -18.8819  -41.2421 N.am      8 UNK        -0.5000 
     35 C          -0.9456  -18.9830  -41.1245 C.2       7 UNK         0.5000 
     36 O          -1.5844  -19.9803  -41.4586 O.2       7 UNK        -0.5000 
     37 CA         -1.7019  -17.7691  -40.5441 C.3       7 UNK         0.1400 
     38 CB         -2.0601  -18.0152  -39.0705 C.3       7 UNK        -0.1800 
     39 N          -0.9645  -16.5078  -40.6450 N.am      7 UNK        -0.5000 
     40 C          -0.6894  -15.8686  -41.7895 C.2       6 UNK         0.5000 
     41 O          -1.0689  -16.2635  -42.8911 O.2       6 UNK        -0.5000 
     42 CA          0.1806  -14.5975  -41.6991 C.3       6 UNK         0.1400 
     43 CB          0.2414  -13.9766  -40.2861 C.3       6 UNK        -0.1800 
     44 N           1.5361  -14.8160  -42.2086 N.am      6 UNK        -0.5000 
     45 C           2.4097  -15.7516  -41.8066 C.2       5 UNK         0.5000 
     46 O           2.1588  -16.6170  -40.9676 O.2       5 UNK        -0.5000 
     47 CA          3.8241  -15.6744  -42.4075 C.3       5 UNK         0.1400 
     48 CB          3.8479  -16.1980  -43.8511 C.3       5 UNK        -0.1800 
     49 N           4.3629  -14.3138  -42.3586 N.am      5 UNK        -0.5000 
     50 C           4.6925  -13.6738  -41.2254 C.2       4 UNK         0.5000 
     51 O           4.6445  -14.1952  -40.1105 O.2       4 UNK        -0.5000 
     52 CA          5.1668  -12.2104  -41.3415 C.3       4 UNK         0.1400 
     53 CB          6.6963  -12.1308  -41.2133 C.3       4 UNK        -0.1800 
     54 N           4.7629  -11.5411  -42.5802 N.am      4 UNK        -0.5000 
     55 C           3.5039  -11.2258  -42.9103 C.2       3 UNK         0.5000 
     56 O           2.5318  -11.4751  -42.1932 O.2       3 UNK        -0.5000 
     57 CA          3.3174  -10.5157  -44.2651 C.3       3 UNK         0.1400 
     58 CB          4.1280  -11.1911  -45.3888 C.3       3 UNK        -0.1800 
     59 N           1.9083  -10.5165  -44.6478 N.am      3 UNK        -0.5000 
     60 C           1.0590   -9.4921  -44.4971 C.2       2 UNK         0.5000 
     61 O           1.3894   -8.3971  -44.0387 O.2       2 UNK        -0.5000 
     62 CA         -0.3995   -9.7060  -44.9541 C.3       2 UNK         0.1400 
     63 CB         -0.7692   -8.7152  -46.0710 C.3       2 UNK        -0.1800 
     64 N          -0.6353  -11.0641  -45.4485 N.am      2 UNK        -0.5000 
     65 C          -1.1713  -12.0643  -44.7371 C.2       1 UNK         0.5000 
     66 O          -1.5945  -11.9399  -43.5878 O.2       1 UNK        -0.5000 
     67 C          -3.0346  -22.4449  -47.2681 C.2       11 UNK         0.5000 
     68 O          -3.8120  -23.3776  -47.4691 O.2       11 UNK        -0.5000 
     69 N          -2.3109  -22.3221  -46.1449 N.am      12 UNK        -0.5000 
     70 CA         -2.3116  -23.3149  -45.0696 C.3       12 UNK         0.1400 
     71 CB         -1.7127  -22.7038  -43.7936 C.3       12 UNK        -0.1800 
     72 C          -1.5520  -24.5895  -45.4760 C.2       12 UNK         0.5000 
     73 O          -2.0096  -25.6915  -45.1741 O.2       12 UNK        -0.5000 
     74 N          -0.4297  -24.4162  -46.1890 N.am      13 UNK        -0.5000 
     75 CA          0.3851  -25.5034  -46.7349 C.3       13 UNK         0.1400 
     76 CB          1.7474  -24.9478  -47.1777 C.3       13 UNK        -0.1800 
     77 C          -0.3164  -26.2322  -47.8961 C.2       13 UNK         0.5000 
     78 O          -0.2451  -27.4585  -47.9797 O.2       13 UNK        -0.5000 
     79 N          -1.0071  -25.4651  -48.7502 N.am      14 UNK        -0.5000 
     80 CA         -1.8015  -25.9591  -49.8764 C.3       14 UNK         0.1400 
     81 CB         -2.0439  -24.7962  -50.8495 C.3       14 UNK        -0.1800 
     82 C          -3.1468  -26.5887  -49.4592 C.2       14 UNK         0.5000 
     83 O          -3.8042  -27.1956  -50.3035 O.2       14 UNK        -0.5000 
     84 N          -3.5455  -26.4170  -48.1897 N.am      15 UNK        -0.5000 
     85 CA         -4.8050  -26.8632  -47.5849 C.3       15 UNK         0.1400 
     86 CB         -4.8784  -28.4036  -47.5317 C.3       15 UNK        -0.1800 
     87 C          -6.0329  -26.2120  -48.2558 C.2       15 UNK         0.5000 
     88 O          -6.9660  -26.9037  -48.6663 O.2       15 UNK        -0.5000 
     89 N          -5.9811  -24.8772  -48.3622 N.am      16 UNK        -0.5000 
     90 CA         -6.9821  -23.9640  -48.9246 C.3       16 UNK         0.1400 
     91 CB         -8.3391  -24.0972  -48.2027 C.3       16 UNK        -0.1800 
     92 C          -7.1233  -24.0221  -50.4601 C.2       16 UNK         0.5000 
     93 O          -8.0202  -23.3751  -51.0050 O.2       16 UNK        -0.5000 
     94 N          -6.2327  -24.7499  -51.1486 N.am      17 UNK        -0.5000 
     95 CA         -6.1422  -24.7846  -52.6072 C.3       17 UNK         0.1400 
     96 CB         -5.4424  -26.0805  -53.0497 C.3       17 UNK        -0.1800 
     97 C          -5.4174  -23.5257  -53.1154 C.2       17 UNK         0.5000 
     98 O          -4.2152  -23.5676  -53.3835 O.2       17 UNK        -0.5000 
     99 N          -6.1609  -22.4159  -53.2142 N.am      18 UNK        -0.5000 
    100 CA        -5.6657  -21.0872  -53.5866 C.3       18 UNK         0.1400 
    101 CB        -6.8331  -20.0905  -53.5832 C.3       18 UNK        -0.1800 
    102 C         -4.9244  -21.0468  -54.9364 C.2       18 UNK         0.5000 
    103 O         -3.9160  -20.3529  -55.0582 O.2       18 UNK        -0.5000 
    104 N         -5.4069  -21.8366  -55.9057 N.am      19 UNK        -0.5000 
    105 CA        -4.8059  -21.9976  -57.2308 C.3       19 UNK         0.1400 
    106 CB        -5.7567  -22.8198  -58.1139 C.3       19 UNK        -0.1800 
    107 C         -3.4048  -22.6409  -57.2021 C.2       19 UNK         0.5000 
    108 O         -2.5932  -22.3498  -58.0813 O.2       19 UNK        -0.5000 
    109 N         -3.1418  -23.4886  -56.1975 N.am      20 UNK        -0.5000 
    110 CA        -1.8266  -24.0710  -55.9417 C.3       20 UNK         0.1400 
    111 CB        -1.9877  -25.4349  -55.2510 C.3       20 UNK        -0.1800 
    112 C         -0.9688  -23.1192  -55.0927 C.2       20 UNK         0.5000 
    113 O          0.2016  -22.9106  -55.4141 O.2       20 UNK        -0.5000 
    114 N         -1.5748  -22.5438  -54.0430 N.am      21 UNK        -0.5000 
    115 CA        -0.9460  -21.6293  -53.0875 C.3       21 UNK         0.1400 
    116 CB        -1.9825  -21.2012  -52.0403 C.3       21 UNK        -0.1800 
    117 C         -0.3328  -20.3794  -53.7392 C.2       21 UNK         0.5000 
    118 O          0.8006  -20.0207  -53.4196 O.2       21 UNK        -0.5000 
    119 N         -1.0972  -19.7391  -54.6321 N.am      22 UNK        -0.5000 
    120 CA        -0.6951  -18.5142  -55.3410 C.3       22 UNK         0.1400 
    121 C          0.2308  -18.7706  -56.5698 C.2       22 UNK         0.5000 
    122 N          0.5987  -20.0053  -56.8934 N.am      22 UNK        -0.7600 
    123 O          0.6372  -17.8253  -57.2402 O.2       22 UNK        -0.5000 
    124 C124       -1.9213  -17.6426  -55.7302 C.3       23 UNK        -0.0398 
    125 S125       -3.0762  -17.1379  -54.3953 S.3       23 UNK        -0.2404 
    126 C126       -2.0915  -17.0963  -52.8579 C.3       23 UNK        -0.0205 
    127 H127        1.6123  -14.3644  -48.0927 H         1 UNK         0.0600 
    128 H128        2.7783  -14.8964  -46.8804 H         1 UNK         0.0600 
    129 H129        2.7614  -13.2103  -47.4092 H         1 UNK         0.0600 
    130 H130       -0.4216  -13.8581  -47.3305 H         1 UNK         0.3000 
    131 H131       -1.1316  -14.1981  -44.6506 H         1 UNK         0.0600 
    132 H132       -2.8454  -12.8137  -46.7660 H         1 UNK         0.0800 
    133 H133       -3.4081  -13.6043  -45.3178 H         1 UNK         0.0800 
    134 H134       -2.6193  -13.9262  -48.9986 H         1 UNK         0.0800 
    135 H135       -4.2866  -14.0882  -48.4922 H         1 UNK         0.0800 
    136 H136       -1.9964  -15.1674  -50.9203 H         1 UNK         0.1150 
    137 H137       -4.1212  -18.7150  -52.0448 H         1 UNK         0.1150 
    138 H138       -5.1617  -16.6473  -48.4395 H         1 UNK         0.1150 
    139 H139       -6.3724  -18.5924  -49.0049 H         1 UNK         0.0800 
    140 H140       -6.5509  -18.8486  -50.7213 H         1 UNK         0.0800 
    141 H141       -4.5263  -20.3149  -47.4057 H         1 UNK         0.0800 
    142 H142       -3.5272  -19.3104  -48.4005 H         1 UNK         0.0800 
    143 H143       -2.9154  -21.9342  -49.3083 H         1 UNK         0.0600 
    144 H144       -1.4165  -19.8233  -48.1150 H         1 UNK         0.3000 
    145 H145        1.7136  -21.4618  -48.2469 H         1 UNK         0.0600 
    146 H146        2.3576  -19.7342  -49.8951 H         1 UNK         0.0600 
    147 H147        1.3569  -20.9470  -50.6733 H         1 UNK         0.0600 
    148 H148        0.6637  -19.3883  -50.2460 H         1 UNK         0.0600 
    149 H149        1.4481  -18.7903  -47.8646 H         1 UNK         0.3000 
    150 H150        2.0168  -18.2038  -45.5915 H         1 UNK         0.0600 
    151 H151        0.1360  -17.0547  -46.7946 H         1 UNK         0.0600 
    152 H152        0.3239  -16.4374  -45.1651 H         1 UNK         0.0600 
    153 H153       -0.9837  -17.5579  -45.5335 H         1 UNK         0.0600 
    154 H154        0.0826  -18.3528  -43.4778 H         1 UNK         0.3000 
    155 H155        0.7679  -20.8767  -41.7817 H         1 UNK         0.0600 
    156 H156        3.1246  -19.1147  -40.9363 H         1 UNK         0.0600 
    157 H157        3.1519  -20.8511  -41.2111 H         1 UNK         0.0600 
    158 H158        2.2428  -20.1975  -39.8601 H         1 UNK         0.0600 
    159 H159        0.8396  -18.0098  -40.9812 H         1 UNK         0.3000 
    160 H160       -2.6306  -17.6637  -41.1088 H         1 UNK         0.0600 
    161 H161       -1.1676  -18.1124  -38.4509 H         1 UNK         0.0600 
    162 H162       -2.6400  -18.9322  -38.9567 H         1 UNK         0.0600 
    163 H163       -2.6622  -17.2001  -38.6686 H         1 UNK         0.0600 
    164 H164       -0.5861  -16.1355  -39.7862 H         1 UNK         0.3000 
    165 H165       -0.2792  -13.8631  -42.3582 H         1 UNK         0.0600 
    166 H166        0.7579  -14.6182  -39.5714 H         1 UNK         0.0600 
    167 H167        0.7703  -13.0234  -40.3093 H         1 UNK         0.0600 
    168 H168       -0.7589  -13.7778  -39.8992 H         1 UNK         0.0600 
    169 H169        1.8177  -14.1861  -42.9527 H         1 UNK         0.3000 
    170 H170        4.4752  -16.3160  -41.8098 H         1 UNK         0.0600 
    171 H171        3.5228  -17.2376  -43.8879 H         1 UNK         0.0600 
    172 H172        3.1909  -15.6250  -44.5040 H         1 UNK         0.0600 
    173 H173        4.8539  -16.1597  -44.2691 H         1 UNK         0.0600 
    174 H174        4.4230  -13.8109  -43.2310 H         1 UNK         0.3000 
    175 H175        4.7265  -11.6621  -40.5059 H         1 UNK         0.0600 
    176 H176        7.1960  -12.6459  -42.0346 H         1 UNK         0.0600 
    177 H177        7.0391  -11.0959  -41.2061 H         1 UNK         0.0600 
    178 H178        7.0359  -12.5894  -40.2836 H         1 UNK         0.0600 
    179 H179        5.5067  -11.3019  -43.2198 H         1 UNK         0.3000 
    180 H180        3.6764   -9.4907  -44.1539 H         1 UNK         0.0600 
    181 H181        3.8741  -10.7742  -46.3636 H         1 UNK         0.0600 
    182 H182        3.9486  -12.2656  -45.4288 H         1 UNK         0.0600 
    183 H183        5.1993  -11.0421  -45.2514 H         1 UNK         0.0600 
    184 H184        1.5334  -11.4202  -44.9080 H         1 UNK         0.3000 
    185 H185       -1.0410   -9.5019  -44.0944 H         1 UNK         0.0600 
    186 H186       -1.8075   -8.8392  -46.3793 H         1 UNK         0.0600 
    187 H187       -0.6536   -7.6836  -45.7361 H         1 UNK         0.0600 
    188 H188       -0.1392   -8.8474  -46.9515 H         1 UNK         0.0600 
    189 H189       -0.3122  -11.2632  -46.3846 H         1 UNK         0.3000 
    190 H190       -1.6345  -21.5682  -46.0622 H         1 UNK         0.3000 
    191 H191       -3.3464  -23.5919  -44.8561 H         1 UNK         0.0600 
    192 H192       -1.7816  -23.4020  -42.9588 H         1 UNK         0.0600 
    193 H193       -2.2442  -21.7973  -43.5038 H         1 UNK         0.0600 
    194 H194       -0.6601  -22.4481  -43.9179 H         1 UNK         0.0600 
    195 H195       -0.1431  -23.4740  -46.4130 H         1 UNK         0.3000 
    196 H196        0.5583  -26.2316  -45.9397 H         1 UNK         0.0600 
    197 H197        1.6458  -24.2095  -47.9735 H         1 UNK         0.0600 
    198 H198        2.2695  -24.4744  -46.3460 H         1 UNK         0.0600 
    199 H199        2.3894  -25.7459  -47.5525 H         1 UNK         0.0600 
    200 H200       -0.9393  -24.4548  -48.6566 H         1 UNK         0.3000 
    201 H201       -1.2237  -26.7261  -50.3960 H         1 UNK         0.0600 
    202 H202       -2.7013  -24.0465  -50.4101 H         1 UNK         0.0600 
    203 H203       -2.5127  -25.1437  -51.7692 H         1 UNK         0.0600 
    204 H204       -1.1108  -24.3077  -51.1307 H         1 UNK         0.0600 
    205 H205       -2.9429  -25.8754  -47.5857 H         1 UNK         0.3000 
    206 H206       -4.7917  -26.5019  -46.5555 H         1 UNK         0.0600 
    207 H207       -4.0046  -28.8213  -47.0317 H         1 UNK         0.0600 
    208 H208       -5.7579  -28.7315  -46.9765 H         1 UNK         0.0600 
    209 H209       -4.9385  -28.8451  -48.5267 H         1 UNK         0.0600 
    210 H210       -5.1441  -24.4108  -48.0105 H         1 UNK         0.3000 
    211 H211       -6.6048  -22.9645  -48.7071 H         1 UNK         0.0600 
    212 H212       -9.0173  -23.2951  -48.4959 H         1 UNK         0.0600 
    213 H213       -8.2186  -24.0376  -47.1211 H         1 UNK         0.0600 
    214 H214       -8.8340  -25.0400  -48.4360 H         1 UNK         0.0600 
    215 H215       -5.5260  -25.2603  -50.6382 H         1 UNK         0.3000 
    216 H216       -7.1483  -24.7953  -53.0319 H         1 UNK         0.0600 
    217 H217       -4.4225  -26.1440  -52.6732 H         1 UNK         0.0600 
    218 H218       -5.3914  -26.1430  -54.1373 H         1 UNK         0.0600 
    219 H219       -5.9816  -26.9596  -52.6966 H         1 UNK         0.0600 
    220 H220       -7.1227  -22.4671  -52.9029 H         1 UNK         0.3000 
    221 H221       -4.9641  -20.7840  -52.8110 H         1 UNK         0.0600 
    222 H222       -7.3427  -20.0824  -52.6200 H         1 UNK         0.0600 
    223 H223       -7.5712  -20.3317  -54.3490 H         1 UNK         0.0600 
    224 H224       -6.4785  -19.0763  -53.7731 H         1 UNK         0.0600 
    225 H225       -6.2343  -22.3811  -55.7115 H         1 UNK         0.3000 
    226 H226       -4.7008  -21.0042  -57.6721 H         1 UNK         0.0600 
    227 H227       -5.9208  -23.8185  -57.7072 H         1 UNK         0.0600 
    228 H228       -6.7268  -22.3319  -58.2110 H         1 UNK         0.0600 
    229 H229       -5.3517  -22.9375  -59.1199 H         1 UNK         0.0600 
    230 H230       -3.8407  -23.6267  -55.4786 H         1 UNK         0.3000 
    231 H231       -1.3108  -24.2381  -56.8899 H         1 UNK         0.0600 
    232 H232       -2.4809  -25.3488  -54.2831 H         1 UNK         0.0600 
    233 H233       -1.0163  -25.9007  -55.0811 H         1 UNK         0.0600 
    234 H234       -2.5740  -26.1193  -55.8640 H         1 UNK         0.0600 
    235 H235       -2.5383  -22.8016  -53.8480 H         1 UNK         0.3000 
    236 H236       -0.1492  -22.1785  -52.5822 H         1 UNK         0.0600 
    237 H237       -2.4652  -22.0601  -51.5803 H         1 UNK         0.0600 
    238 H238       -1.5194  -20.6118  -51.2498 H         1 UNK         0.0600 
    239 H239       -2.7604  -20.5832  -52.4829 H         1 UNK         0.0600 
    240 H240       -2.0375  -20.0782  -54.8222 H         1 UNK         0.3000 
    241 H241       -0.0857  -17.9174  -54.6606 H         1 UNK         0.0600 
    242 H242        1.2007  -20.1499  -57.6885 H         1 UNK         0.3800 
    243 H243        0.3066  -20.7961  -56.3360 H         1 UNK         0.3800 
    244 H244       -2.5136  -18.1661  -56.4827 H         1 UNK         0.0800 
    245 H245       -1.5832  -16.7224  -56.2095 H         1 UNK         0.0800 
    246 H246       -1.5220  -18.0123  -52.7287 H         1 UNK         0.0800 
    247 H247       -1.3671  -16.2832  -52.9230 H         1 UNK         0.0800 
@<TRIPOS>BOND
     1    1    2 1    
     2    1  127 1    
     3    1  128 1    
     4    1  129 1    
     5    2    3 2    
     6    2    4 am   BACKBONE|DICT|INTERRES
     7    4    5 1    
     8    4  130 1    
     9    5    6 1    
    10    5   65 1    
    11    5  131 1    
    12    6    7 1    
    13    6  132 1    
    14    6  133 1    
    15    7    8 1    
    16    8    9 1    
    17    8  134 1    
    18    8  135 1    
    19    9   10 ar   
    20    9   14 ar   
    21   10   11 ar   
    22   10  136 1    
    23   11   12 ar   
    24   11  126 1    
    25   12   13 ar   
    26   12  137 1    
    27   13   14 ar   
    28   13   15 1    
    29   14  138 1    
    30   15   16 1    
    31   15  139 1    
    32   15  140 1    
    33   16   17 1    
    34   17   18 1    
    35   17  141 1    
    36   17  142 1    
    37   18   19 1    
    38   18   67 1    
    39   18  143 1    
    40   19   20 am   BACKBONE|DICT|INTERRES
    41   19  144 1    
    42   20   21 2    
    43   20   22 1    
    44   22   23 1    
    45   22   24 1    
    46   22  145 1    
    47   23  146 1    
    48   23  147 1    
    49   23  148 1    
    50   24   25 am   BACKBONE|DICT|INTERRES
    51   24  149 1    
    52   25   26 2    
    53   25   27 1    
    54   27   28 1    
    55   27   29 1    
    56   27  150 1    
    57   28  151 1    
    58   28  152 1    
    59   28  153 1    
    60   29   30 am   BACKBONE|DICT|INTERRES
    61   29  154 1    
    62   30   31 2    
    63   30   32 1    
    64   32   33 1    
    65   32   34 1    
    66   32  155 1    
    67   33  156 1    
    68   33  157 1    
    69   33  158 1    
    70   34   35 am   BACKBONE|DICT|INTERRES
    71   34  159 1    
    72   35   36 2    
    73   35   37 1    
    74   37   38 1    
    75   37   39 1    
    76   37  160 1    
    77   38  161 1    
    78   38  162 1    
    79   38  163 1    
    80   39   40 am   BACKBONE|DICT|INTERRES
    81   39  164 1    
    82   40   41 2    
    83   40   42 1    
    84   42   43 1    
    85   42   44 1    
    86   42  165 1    
    87   43  166 1    
    88   43  167 1    
    89   43  168 1    
    90   44   45 am   BACKBONE|DICT|INTERRES
    91   44  169 1    
    92   45   46 2    
    93   45   47 1    
    94   47   48 1    
    95   47   49 1    
    96   47  170 1    
    97   48  171 1    
    98   48  172 1    
    99   48  173 1    
   100   49   50 am   BACKBONE|DICT|INTERRES
   101   49  174 1    
   102   50   51 2    
   103   50   52 1    
   104   52   53 1    
   105   52   54 1    
   106   52  175 1    
   107   53  176 1    
   108   53  177 1    
   109   53  178 1    
   110   54   55 am   BACKBONE|DICT|INTERRES
   111   54  179 1    
   112   55   56 2    
   113   55   57 1    
   114   57   58 1    
   115   57   59 1    
   116   57  180 1    
   117   58  181 1    
   118   58  182 1    
   119   58  183 1    
   120   59   60 am   BACKBONE|DICT|INTERRES
   121   59  184 1    
   122   60   61 2    
   123   60   62 1    
   124   62   63 1    
   125   62   64 1    
   126   62  185 1    
   127   63  186 1    
   128   63  187 1    
   129   63  188 1    
   130   64   65 am   BACKBONE|DICT|INTERRES
   131   64  189 1    
   132   65   66 2    
   133   67   68 2    
   134   67   69 am   BACKBONE|DICT|INTERRES
   135   69   70 1    
   136   69  190 1    
   137   70   71 1    
   138   70   72 1    
   139   70  191 1    
   140   71  192 1    
   141   71  193 1    
   142   71  194 1    
   143   72   73 2    
   144   72   74 am   BACKBONE|DICT|INTERRES
   145   74   75 1    
   146   74  195 1    
   147   75   76 1    
   148   75   77 1    
   149   75  196 1    
   150   76  197 1    
   151   76  198 1    
   152   76  199 1    
   153   77   78 2    
   154   77   79 am   BACKBONE|DICT|INTERRES
   155   79   80 1    
   156   79  200 1    
   157   80   81 1    
   158   80   82 1    
   159   80  201 1    
   160   81  202 1    
   161   81  203 1    
   162   81  204 1    
   163   82   83 2    
   164   82   84 am   BACKBONE|DICT|INTERRES
   165   84   85 1    
   166   84  205 1    
   167   85   86 1    
   168   85   87 1    
   169   85  206 1    
   170   86  207 1    
   171   86  208 1    
   172   86  209 1    
   173   87   88 2    
   174   87   89 am   BACKBONE|DICT|INTERRES
   175   89   90 1    
   176   89  210 1    
   177   90   91 1    
   178   90   92 1    
   179   90  211 1    
   180   91  212 1    
   181   91  213 1    
   182   91  214 1    
   183   92   93 2    
   184   92   94 am   BACKBONE|DICT|INTERRES
   185   94   95 1    
   186   94  215 1    
   187   95   96 1    
   188   95   97 1    
   189   95  216 1    
   190   96  217 1    
   191   96  218 1    
   192   96  219 1    
   193   97   98 2    
   194   97   99 am   BACKBONE|DICT|INTERRES
   195   99  100 1    
   196   99  220 1    
   197  100  101 1    
   198  100  102 1    
   199  100  221 1    
   200  101  222 1    
   201  101  223 1    
   202  101  224 1    
   203  102  103 2    
   204  102  104 am   BACKBONE|DICT|INTERRES
   205  104  105 1    
   206  104  225 1    
   207  105  106 1    
   208  105  107 1    
   209  105  226 1    
   210  106  227 1    
   211  106  228 1    
   212  106  229 1    
   213  107  108 2    
   214  107  109 am   BACKBONE|DICT|INTERRES
   215  109  110 1    
   216  109  230 1    
   217  110  111 1    
   218  110  112 1    
   219  110  231 1    
   220  111  232 1    
   221  111  233 1    
   222  111  234 1    
   223  112  113 2    
   224  112  114 am   BACKBONE|DICT|INTERRES
   225  114  115 1    
   226  114  235 1    
   227  115  116 1    
   228  115  117 1    
   229  115  236 1    
   230  116  237 1    
   231  116  238 1    
   232  116  239 1    
   233  117  118 2    
   234  117  119 am   BACKBONE|DICT|INTERRES
   235  119  120 1    
   236  119  240 1    
   237  120  121 1    
   238  120  124 1    
   239  120  241 1    
   240  121  122 am   BACKBONE|DICT|INTERRES
   241  121  123 2    
   242  122  242 1    
   243  122  243 1    
   244  124  125 1    
   245  124  244 1    
   246  124  245 1    
   247  125  126 1    
   248  126  246 1    
   249  126  247 1    
@<TRIPOS>SUBSTRUCTURE
     1 UNK         1 GROUP             0       ****    0 ROOT    
