@<TRIPOS>MOLECULE
3R540
247   249    1
SMALL
USER_CHARGES


@<TRIPOS>ATOM
      1 CA         -4.2046   -8.4012  -45.0427 C.3       0 UNK        -0.1800 
      2 C          -3.3798   -9.3965  -45.8456 C.2       0 UNK         0.5000 
      3 O          -2.2779   -9.0676  -46.2861 O.2       0 UNK        -0.5000 
      4 N          -3.8991  -10.6189  -46.0270 N.am      1 UNK        -0.5000 
      5 CA         -3.2554  -11.7044  -46.7807 C.3       1 UNK         0.1400 
      6 C6         -4.2428  -12.8545  -47.1024 C.3       23 UNK        -0.0398 
      7 S7         -4.9542  -13.7123  -45.6463 S.3       23 UNK        -0.2404 
      8 C8         -3.7979  -15.0965  -45.3538 C.3       23 UNK        -0.0205 
      9 C9         -3.8312  -16.1447  -46.4564 C.ar      23 UNK        -0.0193 
     10 C10        -2.9636  -16.0507  -47.5476 C.ar      23 UNK        -0.1150 
     11 C11        -3.0085  -16.9968  -48.5728 C.ar      23 UNK        -0.0193 
     12 C12        -3.9050  -18.0644  -48.4869 C.ar      23 UNK        -0.1150 
     13 C13        -4.7369  -18.2077  -47.3695 C.ar      23 UNK        -0.0193 
     14 C14        -4.7063  -17.2306  -46.3691 C.ar      23 UNK        -0.1150 
     15 C15        -5.6720  -19.4064  -47.2122 C.3       23 UNK        -0.0205 
     16 S16        -4.9823  -20.9985  -47.7872 S.3       23 UNK        -0.2404 
     17 C17        -3.3055  -20.9840  -47.0728 C.3       23 UNK        -0.0398 
     18 CA         -2.8084  -22.3822  -46.6438 C.3       11 UNK         0.1400 
     19 N          -1.3468  -22.4194  -46.5852 N.am      11 UNK        -0.5000 
     20 C          -0.6018  -23.5158  -46.4013 C.2       10 UNK         0.5000 
     21 O          -1.0659  -24.6520  -46.2998 O.2       10 UNK        -0.5000 
     22 CA          0.9158  -23.2919  -46.2562 C.3       10 UNK         0.1400 
     23 CB          1.5845  -23.1575  -47.6324 C.3       10 UNK        -0.1800 
     24 N           1.2390  -22.1219  -45.4332 N.am      10 UNK        -0.5000 
     25 C           0.9362  -22.0120  -44.1311 C.2       9 UNK         0.5000 
     26 O           0.3878  -22.9026  -43.4840 O.2       9 UNK        -0.5000 
     27 CA          1.2507  -20.6723  -43.4419 C.3       9 UNK         0.1400 
     28 CB          2.7410  -20.5763  -43.0838 C.3       9 UNK        -0.1800 
     29 N           0.8564  -19.5152  -44.2447 N.am      9 UNK        -0.5000 
     30 C          -0.4045  -19.2275  -44.5999 C.2       8 UNK         0.5000 
     31 O          -1.3820  -19.8861  -44.2455 O.2       8 UNK        -0.5000 
     32 CA         -0.5996  -18.0419  -45.5635 C.3       8 UNK         0.1400 
     33 CB         -0.5490  -16.7040  -44.8100 C.3       8 UNK        -0.1800 
     34 N           0.3858  -18.0302  -46.6449 N.am      8 UNK        -0.5000 
     35 C           0.5530  -19.0171  -47.5352 C.2       7 UNK         0.5000 
     36 O          -0.1407  -20.0303  -47.5616 O.2       7 UNK        -0.5000 
     37 CA          1.7364  -18.8875  -48.5081 C.3       7 UNK         0.1400 
     38 CB          1.4045  -17.9660  -49.6891 C.3       7 UNK        -0.1800 
     39 N           2.9314  -18.3971  -47.8284 N.am      7 UNK        -0.5000 
     40 C           3.6613  -19.1241  -46.9728 C.2       6 UNK         0.5000 
     41 O           3.4254  -20.3016  -46.6991 O.2       6 UNK        -0.5000 
     42 CA          4.8291  -18.3955  -46.2832 C.3       6 UNK         0.1400 
     43 CB          6.0789  -18.4065  -47.1758 C.3       6 UNK        -0.1800 
     44 N           4.4983  -17.0136  -45.9258 N.am      6 UNK        -0.5000 
     45 C           3.6023  -16.6798  -44.9872 C.2       5 UNK         0.5000 
     46 O           2.9692  -17.5022  -44.3262 O.2       5 UNK        -0.5000 
     47 CA          3.3481  -15.1782  -44.7673 C.3       5 UNK         0.1400 
     48 CB          4.4261  -14.5819  -43.8497 C.3       5 UNK        -0.1800 
     49 N           3.2600  -14.3766  -45.9918 N.am      5 UNK        -0.5000 
     50 C           2.4194  -14.5905  -47.0136 C.2       4 UNK         0.5000 
     51 O           1.7260  -15.6010  -47.1248 O.2       4 UNK        -0.5000 
     52 CA          2.3009  -13.4517  -48.0444 C.3       4 UNK         0.1400 
     53 CB          1.3541  -13.7990  -49.2087 C.3       4 UNK        -0.1800 
     54 N           1.7979  -12.2581  -47.3671 N.am      4 UNK        -0.5000 
     55 C           2.5601  -11.3001  -46.8191 C.2       3 UNK         0.5000 
     56 O           3.7851  -11.2571  -46.9368 O.2       3 UNK        -0.5000 
     57 CA          1.8464  -10.2486  -45.9426 C.3       3 UNK         0.1400 
     58 CB          1.4323   -9.0336  -46.7856 C.3       3 UNK        -0.1800 
     59 N           0.6648  -10.7828  -45.2633 N.am      3 UNK        -0.5000 
     60 C           0.6765  -11.7844  -44.3707 C.2       2 UNK         0.5000 
     61 O           1.7086  -12.2491  -43.8879 O.2       2 UNK        -0.5000 
     62 CA         -0.6804  -12.3994  -43.9688 C.3       2 UNK         0.1400 
     63 CB         -1.0138  -12.0715  -42.5056 C.3       2 UNK        -0.1800 
     64 N          -1.8125  -11.9967  -44.8079 N.am      2 UNK        -0.5000 
     65 C          -1.9590  -12.2274  -46.1217 C.2       1 UNK         0.5000 
     66 O          -1.1174  -12.8071  -46.8085 O.2       1 UNK        -0.5000 
     67 C          -3.4568  -22.8330  -45.3174 C.2       11 UNK         0.5000 
     68 O          -4.4508  -23.5566  -45.3442 O.2       11 UNK        -0.5000 
     69 N          -2.8740  -22.4186  -44.1837 N.am      12 UNK        -0.5000 
     70 CA         -3.3000  -22.8209  -42.8443 C.3       12 UNK         0.1400 
     71 CB         -2.6720  -21.8799  -41.8047 C.3       12 UNK        -0.1800 
     72 C          -2.9612  -24.2901  -42.5289 C.2       12 UNK         0.5000 
     73 O          -3.7834  -24.9841  -41.9293 O.2       12 UNK        -0.5000 
     74 N          -1.7602  -24.7341  -42.9255 N.am      13 UNK        -0.5000 
     75 CA         -1.2570  -26.0899  -42.6989 C.3       13 UNK         0.1400 
     76 CB          0.2531  -26.1267  -42.9797 C.3       13 UNK        -0.1800 
     77 C          -1.9831  -27.1599  -43.5338 C.2       13 UNK         0.5000 
     78 O          -2.2283  -28.2560  -43.0274 O.2       13 UNK        -0.5000 
     79 N          -2.3031  -26.8282  -44.7889 N.am      14 UNK        -0.5000 
     80 CA         -2.9852  -27.6959  -45.7410 C.3       14 UNK         0.1400 
     81 CB         -1.9547  -28.2405  -46.7529 C.3       14 UNK        -0.1800 
     82 C          -4.1409  -26.9044  -46.3731 C.2       14 UNK         0.5000 
     83 O          -5.1486  -26.6788  -45.7022 O.2       14 UNK        -0.5000 
     84 N          -3.9752  -26.5035  -47.6374 N.am      15 UNK        -0.5000 
     85 CA         -4.8766  -25.6595  -48.4164 C.3       15 UNK         0.1400 
     86 CB         -6.2286  -26.3483  -48.6938 C.3       15 UNK        -0.1800 
     87 C          -4.1543  -25.3030  -49.7182 C.2       15 UNK         0.5000 
     88 O          -3.8957  -24.1277  -49.9706 O.2       15 UNK        -0.5000 
     89 N          -3.7981  -26.3418  -50.4919 N.am      16 UNK        -0.5000 
     90 CA         -2.9506  -26.3118  -51.6915 C.3       16 UNK         0.1400 
     91 CB         -1.4793  -26.1025  -51.2754 C.3       16 UNK        -0.1800 
     92 C          -3.4179  -25.3122  -52.7731 C.2       16 UNK         0.5000 
     93 O          -2.5946  -24.5960  -53.3435 O.2       16 UNK        -0.5000 
     94 N          -4.7384  -25.2586  -53.0099 N.am      17 UNK        -0.5000 
     95 CA         -5.4276  -24.3294  -53.9191 C.3       17 UNK         0.1400 
     96 CB         -5.0651  -24.6279  -55.3895 C.3       17 UNK        -0.1800 
     97 C          -5.1907  -22.8546  -53.5273 C.2       17 UNK         0.5000 
     98 O          -4.7999  -22.0374  -54.3635 O.2       17 UNK        -0.5000 
     99 N          -5.3829  -22.5691  -52.2314 N.am      18 UNK        -0.5000 
    100 CA        -5.0788  -21.3085  -51.5463 C.3       18 UNK         0.1400 
    101 CB        -6.0068  -20.1729  -52.0248 C.3       18 UNK        -0.1800 
    102 C         -3.5808  -20.9513  -51.6323 C.2       18 UNK         0.5000 
    103 O         -3.2321  -19.8076  -51.9237 O.2       18 UNK        -0.5000 
    104 N         -2.7288  -21.9667  -51.4281 N.am      19 UNK        -0.5000 
    105 CA        -1.2749  -21.9611  -51.6123 C.3       19 UNK         0.1400 
    106 CB        -0.6015  -21.1938  -50.4641 C.3       19 UNK        -0.1800 
    107 C         -0.8648  -21.4650  -53.0146 C.2       19 UNK         0.5000 
    108 O         -0.0727  -20.5297  -53.1385 O.2       19 UNK        -0.5000 
    109 N         -1.4645  -22.0918  -54.0377 N.am      20 UNK        -0.5000 
    110 CA        -1.3847  -21.7674  -55.4644 C.3       20 UNK         0.1400 
    111 CB         0.0158  -22.1044  -56.0158 C.3       20 UNK        -0.1800 
    112 C         -1.8195  -20.3158  -55.7551 C.2       20 UNK         0.5000 
    113 O         -1.0706  -19.5558  -56.3733 O.2       20 UNK        -0.5000 
    114 N         -3.0096  -19.9489  -55.2539 N.am      21 UNK        -0.5000 
    115 CA        -3.6167  -18.6104  -55.2946 C.3       21 UNK         0.1400 
    116 CB        -4.1092  -18.2934  -56.7211 C.3       21 UNK        -0.1800 
    117 C         -2.6962  -17.5111  -54.7154 C.2       21 UNK         0.5000 
    118 O         -2.6032  -16.4146  -55.2708 O.2       21 UNK        -0.5000 
    119 N         -2.0037  -17.8580  -53.6255 N.am      22 UNK        -0.5000 
    120 CA        -0.9477  -17.0890  -52.9517 C.3       22 UNK         0.1400 
    121 C          0.3439  -16.8508  -53.7954 C.2       22 UNK         0.5000 
    122 N          0.5516  -17.5261  -54.9198 N.am      22 UNK        -0.7600 
    123 O          1.1966  -16.0551  -53.4106 O.2       22 UNK        -0.5000 
    124 C124       -1.4622  -15.7853  -52.2761 C.3       23 UNK        -0.0398 
    125 S125       -2.8833  -16.0334  -51.1559 S.3       23 UNK        -0.2404 
    126 C126       -2.0744  -16.8732  -49.7620 C.3       23 UNK        -0.0205 
    127 H127       -3.6497   -8.0791  -44.1615 H         1 UNK         0.0600 
    128 H128       -5.1498   -8.8319  -44.7113 H         1 UNK         0.0600 
    129 H129       -4.4249   -7.5223  -45.6485 H         1 UNK         0.0600 
    130 H130       -4.8029  -10.8405  -45.6326 H         1 UNK         0.3000 
    131 H131       -2.9483  -11.2776  -47.7381 H         1 UNK         0.0600 
    132 H132       -5.0812  -12.4445  -47.6669 H         1 UNK         0.0800 
    133 H133       -3.7853  -13.5680  -47.7838 H         1 UNK         0.0800 
    134 H134       -2.7847  -14.7211  -45.2240 H         1 UNK         0.0800 
    135 H135       -4.0579  -15.5638  -44.4029 H         1 UNK         0.0800 
    136 H136       -2.2556  -15.2357  -47.6054 H         1 UNK         0.1150 
    137 H137       -3.9327  -18.7962  -49.2819 H         1 UNK         0.1150 
    138 H138       -5.3596  -17.3183  -45.5122 H         1 UNK         0.1150 
    139 H139       -5.9544  -19.5257  -46.1651 H         1 UNK         0.0800 
    140 H140       -6.5934  -19.2054  -47.7597 H         1 UNK         0.0800 
    141 H141       -3.2476  -20.2768  -46.2436 H         1 UNK         0.0800 
    142 H142       -2.6548  -20.5863  -47.8519 H         1 UNK         0.0800 
    143 H143       -3.1005  -23.0998  -47.4134 H         1 UNK         0.0600 
    144 H144       -0.8696  -21.5300  -46.7155 H         1 UNK         0.3000 
    145 H145        1.3327  -24.1722  -45.7629 H         1 UNK         0.0600 
    146 H146        2.6682  -23.0871  -47.5374 H         1 UNK         0.0600 
    147 H147        1.3669  -24.0231  -48.2594 H         1 UNK         0.0600 
    148 H148        1.2400  -22.2715  -48.1650 H         1 UNK         0.0600 
    149 H149        1.7128  -21.3538  -45.8946 H         1 UNK         0.3000 
    150 H150        0.6787  -20.6384  -42.5125 H         1 UNK         0.0600 
    151 H151        3.0526  -21.4271  -42.4766 H         1 UNK         0.0600 
    152 H152        2.9499  -19.6736  -42.5097 H         1 UNK         0.0600 
    153 H153        3.3704  -20.5589  -43.9736 H         1 UNK         0.0600 
    154 H154        1.6009  -18.8870  -44.5328 H         1 UNK         0.3000 
    155 H155       -1.5858  -18.1445  -46.0199 H         1 UNK         0.0600 
    156 H156       -0.6687  -15.8622  -45.4922 H         1 UNK         0.0600 
    157 H157        0.3967  -16.5715  -44.2853 H         1 UNK         0.0600 
    158 H158       -1.3468  -16.6451  -44.0690 H         1 UNK         0.0600 
    159 H159        0.9745  -17.2028  -46.7192 H         1 UNK         0.3000 
    160 H160        1.9526  -19.8806  -48.9076 H         1 UNK         0.0600 
    161 H161        1.1326  -16.9644  -49.3590 H         1 UNK         0.0600 
    162 H162        0.5708  -18.3644  -50.2631 H         1 UNK         0.0600 
    163 H163        2.2494  -17.8764  -50.3720 H         1 UNK         0.0600 
    164 H164        3.1456  -17.4165  -47.9376 H         1 UNK         0.3000 
    165 H165        5.0620  -18.9387  -45.3647 H         1 UNK         0.0600 
    166 H166        6.9325  -17.9615  -46.6642 H         1 UNK         0.0600 
    167 H167        6.3575  -19.4267  -47.4436 H         1 UNK         0.0600 
    168 H168        5.9181  -17.8558  -48.1034 H         1 UNK         0.0600 
    169 H169        4.9715  -16.2778  -46.4294 H         1 UNK         0.3000 
    170 H170        2.3866  -15.0848  -44.2588 H         1 UNK         0.0600 
    171 H171        4.5002  -15.1428  -42.9170 H         1 UNK         0.0600 
    172 H172        5.4094  -14.5949  -44.3211 H         1 UNK         0.0600 
    173 H173        4.1935  -13.5496  -43.5874 H         1 UNK         0.0600 
    174 H174        3.7733  -13.5059  -45.9861 H         1 UNK         0.3000 
    175 H175        3.2935  -13.2667  -48.4598 H         1 UNK         0.0600 
    176 H176        0.3505  -14.0434  -48.8575 H         1 UNK         0.0600 
    177 H177        1.2686  -12.9670  -49.9076 H         1 UNK         0.0600 
    178 H178        1.7256  -14.6561  -49.7709 H         1 UNK         0.0600 
    179 H179        0.8019  -12.2612  -47.1691 H         1 UNK         0.3000 
    180 H180        2.5526   -9.9161  -45.1792 H         1 UNK         0.0600 
    181 H181        0.7033   -9.3048  -47.5505 H         1 UNK         0.0600 
    182 H182        2.2940   -8.5961  -47.2914 H         1 UNK         0.0600 
    183 H183        0.9899   -8.2546  -46.1641 H         1 UNK         0.0600 
    184 H184       -0.2314  -10.4460  -45.5881 H         1 UNK         0.3000 
    185 H185       -0.5745  -13.4822  -44.0613 H         1 UNK         0.0600 
    186 H186       -0.2122  -12.3919  -41.8387 H         1 UNK         0.0600 
    187 H187       -1.1562  -11.0004  -42.3572 H         1 UNK         0.0600 
    188 H188       -1.9228  -12.5803  -42.1840 H         1 UNK         0.0600 
    189 H189       -2.5581  -11.5026  -44.3398 H         1 UNK         0.3000 
    190 H190       -2.0976  -21.7669  -44.2391 H         1 UNK         0.3000 
    191 H191       -4.3848  -22.7096  -42.7849 H         1 UNK         0.0600 
    192 H192       -2.9682  -20.8455  -41.9808 H         1 UNK         0.0600 
    193 H193       -2.9915  -22.1433  -40.7957 H         1 UNK         0.0600 
    194 H194       -1.5828  -21.9225  -41.8265 H         1 UNK         0.0600 
    195 H195       -1.1118  -24.0762  -43.3499 H         1 UNK         0.3000 
    196 H196       -1.4092  -26.3332  -41.6453 H         1 UNK         0.0600 
    197 H197        0.6595  -27.1246  -42.8100 H         1 UNK         0.0600 
    198 H198        0.7923  -25.4410  -42.3260 H         1 UNK         0.0600 
    199 H199        0.4761  -25.8511  -44.0111 H         1 UNK         0.0600 
    200 H200       -2.0463  -25.9081  -45.1363 H         1 UNK         0.3000 
    201 H201       -3.4407  -28.5465  -45.2298 H         1 UNK         0.0600 
    202 H202       -1.2179  -28.8681  -46.2513 H         1 UNK         0.0600 
    203 H203       -1.4107  -27.4400  -47.2565 H         1 UNK         0.0600 
    204 H204       -2.4341  -28.8573  -47.5141 H         1 UNK         0.0600 
    205 H205       -3.0932  -26.7108  -48.0862 H         1 UNK         0.3000 
    206 H206       -5.0554  -24.7350  -47.8637 H         1 UNK         0.0600 
    207 H207       -6.8114  -26.4624  -47.7801 H         1 UNK         0.0600 
    208 H208       -6.8332  -25.7575  -49.3832 H         1 UNK         0.0600 
    209 H209       -6.1014  -27.3390  -49.1308 H         1 UNK         0.0600 
    210 H210       -4.0982  -27.2630  -50.2045 H         1 UNK         0.3000 
    211 H211       -3.0238  -27.2989  -52.1502 H         1 UNK         0.0600 
    212 H212       -1.3357  -25.1513  -50.7638 H         1 UNK         0.0600 
    213 H213       -0.8140  -26.1190  -52.1395 H         1 UNK         0.0600 
    214 H214       -1.1481  -26.8924  -50.6012 H         1 UNK         0.0600 
    215 H215       -5.3344  -25.8813  -52.4829 H         1 UNK         0.3000 
    216 H216       -6.4969  -24.5108  -53.8011 H         1 UNK         0.0600 
    217 H217       -5.6581  -24.0139  -56.0683 H         1 UNK         0.0600 
    218 H218       -5.2617  -25.6703  -55.6397 H         1 UNK         0.0600 
    219 H219       -4.0151  -24.4247  -55.6018 H         1 UNK         0.0600 
    220 H220       -5.6425  -23.3310  -51.6211 H         1 UNK         0.3000 
    221 H221       -5.2942  -21.4859  -50.4957 H         1 UNK         0.0600 
    222 H222       -5.8399  -19.9239  -53.0723 H         1 UNK         0.0600 
    223 H223       -7.0551  -20.4468  -51.9082 H         1 UNK         0.0600 
    224 H224       -5.8420  -19.2654  -51.4424 H         1 UNK         0.0600 
    225 H225       -3.1290  -22.8541  -51.1341 H         1 UNK         0.3000 
    226 H226       -0.9449  -22.9976  -51.5508 H         1 UNK         0.0600 
    227 H227       -0.8404  -21.6560  -49.5069 H         1 UNK         0.0600 
    228 H228        0.4839  -21.1967  -50.5665 H         1 UNK         0.0600 
    229 H229       -0.9314  -20.1566  -50.4253 H         1 UNK         0.0600 
    230 H230       -2.0673  -22.8798  -53.8077 H         1 UNK         0.3000 
    231 H231       -2.1051  -22.4136  -55.9681 H         1 UNK         0.0600 
    232 H232        0.7893  -21.4786  -55.5693 H         1 UNK         0.0600 
    233 H233        0.0562  -21.9547  -57.0952 H         1 UNK         0.0600 
    234 H234        0.2741  -23.1456  -55.8225 H         1 UNK         0.0600 
    235 H235       -3.5591  -20.6596  -54.7751 H         1 UNK         0.3000 
    236 H236       -4.4897  -18.6493  -54.6425 H         1 UNK         0.0600 
    237 H237       -4.7775  -19.0722  -57.0885 H         1 UNK         0.0600 
    238 H238       -4.6631  -17.3542  -56.7447 H         1 UNK         0.0600 
    239 H239       -3.2800  -18.2035  -57.4236 H         1 UNK         0.0600 
    240 H240       -2.2117  -18.7578  -53.2012 H         1 UNK         0.3000 
    241 H241       -0.6113  -17.7504  -52.1556 H         1 UNK         0.0600 
    242 H242        1.3976  -17.3650  -55.4416 H         1 UNK         0.3800 
    243 H243       -0.1224  -18.2051  -55.2590 H         1 UNK         0.3800 
    244 H244       -0.6654  -15.3092  -51.7021 H         1 UNK         0.0800 
    245 H245       -1.7558  -15.0607  -53.0367 H         1 UNK         0.0800 
    246 H246       -1.7565  -17.8678  -50.0749 H         1 UNK         0.0800 
    247 H247       -1.1758  -16.3260  -49.4743 H         1 UNK         0.0800 
@<TRIPOS>BOND
     1    1    2 1    
     2    1  127 1    
     3    1  128 1    
     4    1  129 1    
     5    2    3 2    
     6    2    4 am   BACKBONE|DICT|INTERRES
     7    4    5 1    
     8    4  130 1    
     9    5    6 1    
    10    5   65 1    
    11    5  131 1    
    12    6    7 1    
    13    6  132 1    
    14    6  133 1    
    15    7    8 1    
    16    8    9 1    
    17    8  134 1    
    18    8  135 1    
    19    9   10 ar   
    20    9   14 ar   
    21   10   11 ar   
    22   10  136 1    
    23   11   12 ar   
    24   11  126 1    
    25   12   13 ar   
    26   12  137 1    
    27   13   14 ar   
    28   13   15 1    
    29   14  138 1    
    30   15   16 1    
    31   15  139 1    
    32   15  140 1    
    33   16   17 1    
    34   17   18 1    
    35   17  141 1    
    36   17  142 1    
    37   18   19 1    
    38   18   67 1    
    39   18  143 1    
    40   19   20 am   BACKBONE|DICT|INTERRES
    41   19  144 1    
    42   20   21 2    
    43   20   22 1    
    44   22   23 1    
    45   22   24 1    
    46   22  145 1    
    47   23  146 1    
    48   23  147 1    
    49   23  148 1    
    50   24   25 am   BACKBONE|DICT|INTERRES
    51   24  149 1    
    52   25   26 2    
    53   25   27 1    
    54   27   28 1    
    55   27   29 1    
    56   27  150 1    
    57   28  151 1    
    58   28  152 1    
    59   28  153 1    
    60   29   30 am   BACKBONE|DICT|INTERRES
    61   29  154 1    
    62   30   31 2    
    63   30   32 1    
    64   32   33 1    
    65   32   34 1    
    66   32  155 1    
    67   33  156 1    
    68   33  157 1    
    69   33  158 1    
    70   34   35 am   BACKBONE|DICT|INTERRES
    71   34  159 1    
    72   35   36 2    
    73   35   37 1    
    74   37   38 1    
    75   37   39 1    
    76   37  160 1    
    77   38  161 1    
    78   38  162 1    
    79   38  163 1    
    80   39   40 am   BACKBONE|DICT|INTERRES
    81   39  164 1    
    82   40   41 2    
    83   40   42 1    
    84   42   43 1    
    85   42   44 1    
    86   42  165 1    
    87   43  166 1    
    88   43  167 1    
    89   43  168 1    
    90   44   45 am   BACKBONE|DICT|INTERRES
    91   44  169 1    
    92   45   46 2    
    93   45   47 1    
    94   47   48 1    
    95   47   49 1    
    96   47  170 1    
    97   48  171 1    
    98   48  172 1    
    99   48  173 1    
   100   49   50 am   BACKBONE|DICT|INTERRES
   101   49  174 1    
   102   50   51 2    
   103   50   52 1    
   104   52   53 1    
   105   52   54 1    
   106   52  175 1    
   107   53  176 1    
   108   53  177 1    
   109   53  178 1    
   110   54   55 am   BACKBONE|DICT|INTERRES
   111   54  179 1    
   112   55   56 2    
   113   55   57 1    
   114   57   58 1    
   115   57   59 1    
   116   57  180 1    
   117   58  181 1    
   118   58  182 1    
   119   58  183 1    
   120   59   60 am   BACKBONE|DICT|INTERRES
   121   59  184 1    
   122   60   61 2    
   123   60   62 1    
   124   62   63 1    
   125   62   64 1    
   126   62  185 1    
   127   63  186 1    
   128   63  187 1    
   129   63  188 1    
   130   64   65 am   BACKBONE|DICT|INTERRES
   131   64  189 1    
   132   65   66 2    
   133   67   68 2    
   134   67   69 am   BACKBONE|DICT|INTERRES
   135   69   70 1    
   136   69  190 1    
   137   70   71 1    
   138   70   72 1    
   139   70  191 1    
   140   71  192 1    
   141   71  193 1    
   142   71  194 1    
   143   72   73 2    
   144   72   74 am   BACKBONE|DICT|INTERRES
   145   74   75 1    
   146   74  195 1    
   147   75   76 1    
   148   75   77 1    
   149   75  196 1    
   150   76  197 1    
   151   76  198 1    
   152   76  199 1    
   153   77   78 2    
   154   77   79 am   BACKBONE|DICT|INTERRES
   155   79   80 1    
   156   79  200 1    
   157   80   81 1    
   158   80   82 1    
   159   80  201 1    
   160   81  202 1    
   161   81  203 1    
   162   81  204 1    
   163   82   83 2    
   164   82   84 am   BACKBONE|DICT|INTERRES
   165   84   85 1    
   166   84  205 1    
   167   85   86 1    
   168   85   87 1    
   169   85  206 1    
   170   86  207 1    
   171   86  208 1    
   172   86  209 1    
   173   87   88 2    
   174   87   89 am   BACKBONE|DICT|INTERRES
   175   89   90 1    
   176   89  210 1    
   177   90   91 1    
   178   90   92 1    
   179   90  211 1    
   180   91  212 1    
   181   91  213 1    
   182   91  214 1    
   183   92   93 2    
   184   92   94 am   BACKBONE|DICT|INTERRES
   185   94   95 1    
   186   94  215 1    
   187   95   96 1    
   188   95   97 1    
   189   95  216 1    
   190   96  217 1    
   191   96  218 1    
   192   96  219 1    
   193   97   98 2    
   194   97   99 am   BACKBONE|DICT|INTERRES
   195   99  100 1    
   196   99  220 1    
   197  100  101 1    
   198  100  102 1    
   199  100  221 1    
   200  101  222 1    
   201  101  223 1    
   202  101  224 1    
   203  102  103 2    
   204  102  104 am   BACKBONE|DICT|INTERRES
   205  104  105 1    
   206  104  225 1    
   207  105  106 1    
   208  105  107 1    
   209  105  226 1    
   210  106  227 1    
   211  106  228 1    
   212  106  229 1    
   213  107  108 2    
   214  107  109 am   BACKBONE|DICT|INTERRES
   215  109  110 1    
   216  109  230 1    
   217  110  111 1    
   218  110  112 1    
   219  110  231 1    
   220  111  232 1    
   221  111  233 1    
   222  111  234 1    
   223  112  113 2    
   224  112  114 am   BACKBONE|DICT|INTERRES
   225  114  115 1    
   226  114  235 1    
   227  115  116 1    
   228  115  117 1    
   229  115  236 1    
   230  116  237 1    
   231  116  238 1    
   232  116  239 1    
   233  117  118 2    
   234  117  119 am   BACKBONE|DICT|INTERRES
   235  119  120 1    
   236  119  240 1    
   237  120  121 1    
   238  120  124 1    
   239  120  241 1    
   240  121  122 am   BACKBONE|DICT|INTERRES
   241  121  123 2    
   242  122  242 1    
   243  122  243 1    
   244  124  125 1    
   245  124  244 1    
   246  124  245 1    
   247  125  126 1    
   248  126  246 1    
   249  126  247 1    
@<TRIPOS>SUBSTRUCTURE
     1 UNK         1 GROUP             0       ****    0 ROOT    
