@<TRIPOS>MOLECULE
3R540
247   249    1
SMALL
USER_CHARGES


@<TRIPOS>ATOM
      1 CA          5.3859  -16.2773  -50.6450 C.3       0 UNK        -0.1800 
      2 C           5.4470  -14.9854  -49.8418 C.2       0 UNK         0.5000 
      3 O           6.1468  -14.0505  -50.2330 O.2       0 UNK        -0.5000 
      4 N           4.7296  -14.9399  -48.7143 N.am      1 UNK        -0.5000 
      5 CA          4.6275  -13.7860  -47.8148 C.3       1 UNK         0.1400 
      6 C6          3.9762  -14.1514  -46.4527 C.3       23 UNK        -0.0398 
      7 S7          4.6599  -15.6465  -45.6559 S.3       23 UNK        -0.2404 
      8 C8          3.1942  -16.7277  -45.5957 C.3       23 UNK        -0.0205 
      9 C9          2.9528  -17.4455  -46.9167 C.ar      23 UNK        -0.0193 
     10 C10         2.2644  -16.8126  -47.9564 C.ar      23 UNK        -0.1150 
     11 C11         2.0831  -17.4555  -49.1827 C.ar      23 UNK        -0.0193 
     12 C12         2.5417  -18.7654  -49.3472 C.ar      23 UNK        -0.1150 
     13 C13         3.2010  -19.4249  -48.3066 C.ar      23 UNK        -0.0193 
     14 C14         3.4205  -18.7499  -47.1004 C.ar      23 UNK        -0.1150 
     15 C15         3.7252  -20.8405  -48.5180 C.3       23 UNK        -0.0205 
     16 S16         3.3014  -21.9773  -47.1587 S.3       23 UNK        -0.2404 
     17 C17         1.5089  -22.2439  -47.3933 C.3       23 UNK        -0.0398 
     18 CA          1.0963  -23.6860  -47.0077 C.3       11 UNK         0.1400 
     19 N           1.5026  -24.0268  -45.6407 N.am      11 UNK        -0.5000 
     20 C           1.5989  -25.2682  -45.1509 C.2       10 UNK         0.5000 
     21 O           1.3448  -26.2801  -45.8010 O.2       10 UNK        -0.5000 
     22 CA          2.0099  -25.3915  -43.6723 C.3       10 UNK         0.1400 
     23 CB          3.5362  -25.3015  -43.5265 C.3       10 UNK        -0.1800 
     24 N           1.3808  -24.3699  -42.8331 N.am      10 UNK        -0.5000 
     25 C           0.0651  -24.3063  -42.5856 C.2       9 UNK         0.5000 
     26 O          -0.7441  -25.1386  -42.9929 O.2       9 UNK        -0.5000 
     27 CA         -0.4384  -23.0835  -41.7951 C.3       9 UNK         0.1400 
     28 CB         -0.3957  -23.3640  -40.2858 C.3       9 UNK        -0.1800 
     29 N           0.2978  -21.8473  -42.0807 N.am      9 UNK        -0.5000 
     30 C           0.3849  -21.2692  -43.2860 C.2       8 UNK         0.5000 
     31 O          -0.1022  -21.7504  -44.3117 O.2       8 UNK        -0.5000 
     32 CA          1.2061  -19.9695  -43.3639 C.3       8 UNK         0.1400 
     33 CB          2.7030  -20.2993  -43.4755 C.3       8 UNK        -0.1800 
     34 N           0.8158  -19.1473  -44.5097 N.am      8 UNK        -0.5000 
     35 C          -0.3525  -18.5031  -44.6184 C.2       7 UNK         0.5000 
     36 O          -1.1985  -18.4502  -43.7207 O.2       7 UNK        -0.5000 
     37 CA         -0.6172  -17.8083  -45.9613 C.3       7 UNK         0.1400 
     38 CB         -0.7134  -18.8276  -47.1100 C.3       7 UNK        -0.1800 
     39 N          -1.8498  -17.0344  -45.8685 N.am      7 UNK        -0.5000 
     40 C          -2.1421  -15.9633  -46.6127 C.2       6 UNK         0.5000 
     41 O          -1.4049  -15.5258  -47.4991 O.2       6 UNK        -0.5000 
     42 CA         -3.4665  -15.2542  -46.2799 C.3       6 UNK         0.1400 
     43 CB         -3.3437  -14.4721  -44.9616 C.3       6 UNK        -0.1800 
     44 N          -3.8047  -14.3110  -47.3405 N.am      6 UNK        -0.5000 
     45 C          -4.8542  -14.4022  -48.1669 C.2       5 UNK         0.5000 
     46 O          -5.7223  -15.2702  -48.0822 O.2       5 UNK        -0.5000 
     47 CA         -4.9598  -13.3428  -49.2853 C.3       5 UNK         0.1400 
     48 CB         -5.8926  -12.1995  -48.8581 C.3       5 UNK        -0.1800 
     49 N          -3.6643  -12.7793  -49.6664 N.am      5 UNK        -0.5000 
     50 C          -2.6833  -13.4677  -50.2631 C.2       4 UNK         0.5000 
     51 O          -2.8397  -14.6011  -50.7159 O.2       4 UNK        -0.5000 
     52 CA         -1.2976  -12.7983  -50.3852 C.3       4 UNK         0.1400 
     53 CB         -0.9904  -12.4855  -51.8599 C.3       4 UNK        -0.1800 
     54 N          -1.0816  -11.5688  -49.6101 N.am      4 UNK        -0.5000 
     55 C          -1.2239  -11.3834  -48.2893 C.2       3 UNK         0.5000 
     56 O          -1.6855  -12.2224  -47.5149 O.2       3 UNK        -0.5000 
     57 CA         -0.7440  -10.0108  -47.7749 C.3       3 UNK         0.1400 
     58 CB         -1.0966   -9.7501  -46.2944 C.3       3 UNK        -0.1800 
     59 N           0.6907   -9.8298  -48.0369 N.am      3 UNK        -0.5000 
     60 C           1.6960  -10.5520  -47.5202 C.2       2 UNK         0.5000 
     61 O           1.5597  -11.3870  -46.6219 O.2       2 UNK        -0.5000 
     62 CA          3.1003  -10.2830  -48.1040 C.3       2 UNK         0.1400 
     63 CB          3.7255   -9.0357  -47.4595 C.3       2 UNK        -0.1800 
     64 N           3.9937  -11.4235  -47.8875 N.am      2 UNK        -0.5000 
     65 C           3.8317  -12.6266  -48.4549 C.2       1 UNK         0.5000 
     66 O           3.0420  -12.8441  -49.3790 O.2       1 UNK        -0.5000 
     67 C          -0.4159  -23.9201  -47.2028 C.2       11 UNK         0.5000 
     68 O          -0.8355  -24.3820  -48.2657 O.2       11 UNK        -0.5000 
     69 N          -1.2043  -23.6482  -46.1530 N.am      12 UNK        -0.5000 
     70 CA         -2.6240  -23.9798  -46.0620 C.3       12 UNK         0.1400 
     71 CB         -3.2250  -23.3452  -44.8001 C.3       12 UNK        -0.1800 
     72 C          -2.8675  -25.4994  -46.0891 C.2       12 UNK         0.5000 
     73 O          -3.7303  -25.9576  -46.8349 O.2       12 UNK        -0.5000 
     74 N          -2.0805  -26.2608  -45.3182 N.am      13 UNK        -0.5000 
     75 CA         -2.1284  -27.7235  -45.2981 C.3       13 UNK         0.1400 
     76 CB         -1.2583  -28.2512  -44.1471 C.3       13 UNK        -0.1800 
     77 C          -1.7069  -28.3570  -46.6381 C.2       13 UNK         0.5000 
     78 O          -2.3317  -29.3250  -47.0738 O.2       13 UNK        -0.5000 
     79 N          -0.6603  -27.8020  -47.2631 N.am      14 UNK        -0.5000 
     80 CA         -0.0953  -28.2932  -48.5167 C.3       14 UNK         0.1400 
     81 CB          1.3235  -27.7300  -48.6946 C.3       14 UNK        -0.1800 
     82 C          -0.9529  -27.9713  -49.7525 C.2       14 UNK         0.5000 
     83 O          -1.1439  -28.8553  -50.5894 O.2       14 UNK        -0.5000 
     84 N          -1.4067  -26.7158  -49.8765 N.am      15 UNK        -0.5000 
     85 CA         -1.9265  -26.1705  -51.1347 C.3       15 UNK         0.1400 
     86 CB         -0.8057  -25.3473  -51.7977 C.3       15 UNK        -0.1800 
     87 C          -3.2076  -25.3321  -50.9810 C.2       15 UNK         0.5000 
     88 O          -3.6488  -24.7514  -51.9735 O.2       15 UNK        -0.5000 
     89 N          -3.7786  -25.2528  -49.7678 N.am      16 UNK        -0.5000 
     90 CA         -4.9532  -24.4384  -49.4093 C.3       16 UNK         0.1400 
     91 CB         -6.2175  -24.9165  -50.1545 C.3       16 UNK        -0.1800 
     92 C          -4.7194  -22.9205  -49.5618 C.2       16 UNK         0.5000 
     93 O          -5.6833  -22.1652  -49.6904 O.2       16 UNK        -0.5000 
     94 N          -3.4482  -22.4935  -49.5270 N.am      17 UNK        -0.5000 
     95 CA         -2.9870  -21.1395  -49.8453 C.3       17 UNK         0.1400 
     96 CB         -1.4576  -21.1005  -49.7174 C.3       17 UNK        -0.1800 
     97 C          -3.6311  -20.0196  -49.0068 C.2       17 UNK         0.5000 
     98 O          -3.8606  -18.9318  -49.5289 O.2       17 UNK        -0.5000 
     99 N          -3.9455  -20.3094  -47.7375 N.am      18 UNK        -0.5000 
    100 CA        -4.5886  -19.3646  -46.8220 C.3       18 UNK         0.1400 
    101 CB        -4.3158  -19.8048  -45.3761 C.3       18 UNK        -0.1800 
    102 C         -6.1036  -19.2021  -47.0599 C.2       18 UNK         0.5000 
    103 O         -6.6856  -18.2480  -46.5441 O.2       18 UNK        -0.5000 
    104 N         -6.7180  -20.1316  -47.8040 N.am      19 UNK        -0.5000 
    105 CA        -8.1420  -20.1233  -48.1381 C.3       19 UNK         0.1400 
    106 CB        -8.7255  -21.5241  -47.8901 C.3       19 UNK        -0.1800 
    107 C         -8.3594  -19.6978  -49.5982 C.2       19 UNK         0.5000 
    108 O         -9.2382  -18.8798  -49.8715 O.2       19 UNK        -0.5000 
    109 N         -7.5542  -20.2586  -50.5092 N.am      20 UNK        -0.5000 
    110 CA        -7.6245  -20.0208  -51.9505 C.3       20 UNK         0.1400 
    111 CB        -6.9761  -21.2153  -52.6693 C.3       20 UNK        -0.1800 
    112 C         -6.9540  -18.7056  -52.3917 C.2       20 UNK         0.5000 
    113 O         -7.2351  -18.2435  -53.4984 O.2       20 UNK        -0.5000 
    114 N         -6.0837  -18.1519  -51.5327 N.am      21 UNK        -0.5000 
    115 CA        -5.1426  -17.0481  -51.7579 C.3       21 UNK         0.1400 
    116 CB        -5.8385  -15.7851  -52.3064 C.3       21 UNK        -0.1800 
    117 C         -3.9520  -17.4719  -52.6419 C.2       21 UNK         0.5000 
    118 O         -4.0550  -18.3993  -53.4491 O.2       21 UNK        -0.5000 
    119 N         -2.8296  -16.7689  -52.4742 N.am      22 UNK        -0.5000 
    120 CA        -1.5889  -16.9761  -53.2368 C.3       22 UNK         0.1400 
    121 C         -1.5969  -16.3273  -54.6530 C.2       22 UNK         0.5000 
    122 N         -2.5830  -15.5140  -55.0128 N.am      22 UNK        -0.7600 
    123 O         -0.6923  -16.5733  -55.4461 O.2       22 UNK        -0.5000 
    124 C124       -0.3443  -16.5219  -52.4361 C.3       23 UNK        -0.0398 
    125 S125       -0.1319  -17.4147  -50.8619 S.3       23 UNK        -0.2404 
    126 C126        1.4634  -16.7109  -50.3538 C.3       23 UNK        -0.0205 
    127 H127        4.8080  -16.1256  -51.5566 H         1 UNK         0.0600 
    128 H128        4.9239  -17.0843  -50.0761 H         1 UNK         0.0600 
    129 H129        6.3901  -16.5960  -50.9243 H         1 UNK         0.0600 
    130 H130        4.1800  -15.7441  -48.4456 H         1 UNK         0.3000 
    131 H131        5.6431  -13.4330  -47.6233 H         1 UNK         0.0600 
    132 H132        4.1113  -13.3287  -45.7486 H         1 UNK         0.0800 
    133 H133        2.8956  -14.2574  -46.5553 H         1 UNK         0.0800 
    134 H134        3.3464  -17.4572  -44.8005 H         1 UNK         0.0800 
    135 H135        2.3139  -16.1529  -45.3049 H         1 UNK         0.0800 
    136 H136        1.8900  -15.8074  -47.8268 H         1 UNK         0.1150 
    137 H137        2.3999  -19.2612  -50.2973 H         1 UNK         0.1150 
    138 H138        3.9613  -19.2421  -46.3041 H         1 UNK         0.1150 
    139 H139        3.3628  -21.2582  -49.4585 H         1 UNK         0.0800 
    140 H140        4.8114  -20.7926  -48.6028 H         1 UNK         0.0800 
    141 H141        0.9716  -21.5106  -46.7908 H         1 UNK         0.0800 
    142 H142        1.2513  -22.0424  -48.4344 H         1 UNK         0.0800 
    143 H143        1.6126  -24.3681  -47.6865 H         1 UNK         0.0600 
    144 H144        1.6853  -23.2470  -45.0271 H         1 UNK         0.3000 
    145 H145        1.6886  -26.3728  -43.3165 H         1 UNK         0.0600 
    146 H146        3.8433  -25.4575  -42.4922 H         1 UNK         0.0600 
    147 H147        4.0305  -26.0639  -44.1300 H         1 UNK         0.0600 
    148 H148        3.9167  -24.3310  -43.8478 H         1 UNK         0.0600 
    149 H149        1.9790  -23.6493  -42.4575 H         1 UNK         0.3000 
    150 H150       -1.4792  -22.9173  -42.0798 H         1 UNK         0.0600 
    151 H151       -0.9548  -24.2682  -40.0408 H         1 UNK         0.0600 
    152 H152       -0.8409  -22.5458  -39.7194 H         1 UNK         0.0600 
    153 H153        0.6259  -23.5031  -39.9302 H         1 UNK         0.0600 
    154 H154        0.7398  -21.3991  -41.2910 H         1 UNK         0.3000 
    155 H155        1.0372  -19.3950  -42.4508 H         1 UNK         0.0600 
    156 H156        3.3102  -19.3951  -43.4616 H         1 UNK         0.0600 
    157 H157        2.9293  -20.8422  -44.3932 H         1 UNK         0.0600 
    158 H158        3.0348  -20.9173  -42.6403 H         1 UNK         0.0600 
    159 H159        1.4297  -19.1786  -45.3095 H         1 UNK         0.3000 
    160 H160        0.2064  -17.1201  -46.1474 H         1 UNK         0.0600 
    161 H161       -1.3973  -19.6394  -46.8659 H         1 UNK         0.0600 
    162 H162        0.2589  -19.2707  -47.3222 H         1 UNK         0.0600 
    163 H163       -1.0562  -18.3605  -48.0332 H         1 UNK         0.0600 
    164 H164       -2.4423  -17.3004  -45.0919 H         1 UNK         0.3000 
    165 H165       -4.2451  -16.0121  -46.1721 H         1 UNK         0.0600 
    166 H166       -2.5544  -13.7205  -45.0143 H         1 UNK         0.0600 
    167 H167       -4.2757  -13.9606  -44.7205 H         1 UNK         0.0600 
    168 H168       -3.1129  -15.1348  -44.1269 H         1 UNK         0.0600 
    169 H169       -3.0926  -13.6091  -47.5261 H         1 UNK         0.3000 
    170 H170       -5.3938  -13.8277  -50.1606 H         1 UNK         0.0600 
    171 H171       -6.8793  -12.5803  -48.5913 H         1 UNK         0.0600 
    172 H172       -5.5017  -11.6644  -47.9917 H         1 UNK         0.0600 
    173 H173       -6.0305  -11.4796  -49.6651 H         1 UNK         0.0600 
    174 H174       -3.4515  -11.8558  -49.3210 H         1 UNK         0.3000 
    175 H175       -0.5720  -13.5336  -50.0309 H         1 UNK         0.0600 
    176 H176       -1.6004  -11.6594  -52.2272 H         1 UNK         0.0600 
    177 H177        0.0574  -12.2164  -51.9950 H         1 UNK         0.0600 
    178 H178       -1.1898  -13.3398  -52.5067 H         1 UNK         0.0600 
    179 H179       -0.6998  -10.7998  -50.1407 H         1 UNK         0.3000 
    180 H180       -1.2650   -9.2556  -48.3655 H         1 UNK         0.0600 
    181 H181       -0.6702  -10.4998  -45.6278 H         1 UNK         0.0600 
    182 H182       -2.1771   -9.7677  -46.1474 H         1 UNK         0.0600 
    183 H183       -0.7402   -8.7723  -45.9709 H         1 UNK         0.0600 
    184 H184        0.9149   -9.1519  -48.7523 H         1 UNK         0.3000 
    185 H185        3.0065  -10.1171  -49.1793 H         1 UNK         0.0600 
    186 H186        4.7093   -8.8253  -47.8794 H         1 UNK         0.0600 
    187 H187        3.1067   -8.1537  -47.6291 H         1 UNK         0.0600 
    188 H188        3.8383   -9.1537  -46.3809 H         1 UNK         0.0600 
    189 H189        4.6433  -11.3307  -47.1204 H         1 UNK         0.3000 
    190 H190       -0.7874  -23.1960  -45.3436 H         1 UNK         0.3000 
    191 H191       -3.1200  -23.5415  -46.9280 H         1 UNK         0.0600 
    192 H192       -4.3136  -23.4081  -44.8150 H         1 UNK         0.0600 
    193 H193       -2.9543  -22.2934  -44.7182 H         1 UNK         0.0600 
    194 H194       -2.8838  -23.8423  -43.8929 H         1 UNK         0.0600 
    195 H195       -1.4310  -25.8145  -44.6773 H         1 UNK         0.3000 
    196 H196       -3.1608  -28.0209  -45.1026 H         1 UNK         0.0600 
    197 H197       -1.2929  -29.3402  -44.0982 H         1 UNK         0.0600 
    198 H198       -1.6046  -27.8712  -43.1858 H         1 UNK         0.0600 
    199 H199       -0.2142  -27.9603  -44.2642 H         1 UNK         0.0600 
    200 H200       -0.1522  -27.0566  -46.7967 H         1 UNK         0.3000 
    201 H201       -0.0118  -29.3800  -48.4473 H         1 UNK         0.0600 
    202 H202        1.9757  -28.0413  -47.8785 H         1 UNK         0.0600 
    203 H203        1.3232  -26.6399  -48.7257 H         1 UNK         0.0600 
    204 H204        1.7733  -28.0854  -49.6225 H         1 UNK         0.0600 
    205 H205       -1.1928  -26.0337  -49.1530 H         1 UNK         0.3000 
    206 H206       -2.1966  -26.9790  -51.8166 H         1 UNK         0.0600 
    207 H207        0.0805  -25.9572  -51.9732 H         1 UNK         0.0600 
    208 H208       -1.1191  -24.9520  -52.7647 H         1 UNK         0.0600 
    209 H209       -0.5111  -24.5012  -51.1753 H         1 UNK         0.0600 
    210 H210       -3.3719  -25.7779  -49.0030 H         1 UNK         0.3000 
    211 H211       -5.1416  -24.5934  -48.3489 H         1 UNK         0.0600 
    212 H212       -6.1742  -24.6915  -51.2203 H         1 UNK         0.0600 
    213 H213       -7.1106  -24.4312  -49.7591 H         1 UNK         0.0600 
    214 H214       -6.3584  -25.9914  -50.0421 H         1 UNK         0.0600 
    215 H215       -2.7256  -23.1893  -49.4017 H         1 UNK         0.3000 
    216 H216       -3.2462  -20.9479  -50.8887 H         1 UNK         0.0600 
    217 H217       -1.1379  -21.3243  -48.7001 H         1 UNK         0.0600 
    218 H218       -1.0672  -20.1161  -49.9756 H         1 UNK         0.0600 
    219 H219       -0.9847  -21.8217  -50.3842 H         1 UNK         0.0600 
    220 H220       -3.7424  -21.2309  -47.3832 H         1 UNK         0.3000 
    221 H221       -4.1341  -18.3833  -46.9679 H         1 UNK         0.0600 
    222 H222       -4.7040  -19.0735  -44.6661 H         1 UNK         0.0600 
    223 H223       -4.7918  -20.7598  -45.1526 H         1 UNK         0.0600 
    224 H224       -3.2475  -19.9032  -45.1841 H         1 UNK         0.0600 
    225 H225       -6.1625  -20.8651  -48.2286 H         1 UNK         0.3000 
    226 H226       -8.6830  -19.4198  -47.5019 H         1 UNK         0.0600 
    227 H227       -8.6232  -21.8113  -46.8436 H         1 UNK         0.0600 
    228 H228       -9.7885  -21.5525  -48.1327 H         1 UNK         0.0600 
    229 H229       -8.2301  -22.2850  -48.4946 H         1 UNK         0.0600 
    230 H230       -6.8686  -20.9475  -50.2044 H         1 UNK         0.3000 
    231 H231       -8.6743  -19.9734  -52.2475 H         1 UNK         0.0600 
    232 H232       -7.0509  -21.1087  -53.7522 H         1 UNK         0.0600 
    233 H233       -7.4637  -22.1523  -52.3994 H         1 UNK         0.0600 
    234 H234       -5.9176  -21.3056  -52.4210 H         1 UNK         0.0600 
    235 H235       -5.9199  -18.6534  -50.6704 H         1 UNK         0.3000 
    236 H236       -4.7447  -16.7958  -50.7736 H         1 UNK         0.0600 
    237 H237       -6.6999  -15.5125  -51.6968 H         1 UNK         0.0600 
    238 H238       -5.1551  -14.9358  -52.3032 H         1 UNK         0.0600 
    239 H239       -6.1771  -15.9135  -53.3343 H         1 UNK         0.0600 
    240 H240       -2.8097  -16.0186  -51.7835 H         1 UNK         0.3000 
    241 H241       -1.4808  -18.0487  -53.4090 H         1 UNK         0.0600 
    242 H242       -3.3341  -15.3091  -54.3745 H         1 UNK         0.3800 
    243 H243       -2.5792  -15.1054  -55.9342 H         1 UNK         0.3800 
    244 H244        0.5604  -16.6743  -53.0276 H         1 UNK         0.0800 
    245 H245       -0.3948  -15.4554  -52.2209 H         1 UNK         0.0800 
    246 H246        1.3237  -15.6555  -50.1127 H         1 UNK         0.0800 
    247 H247        2.1614  -16.7458  -51.1912 H         1 UNK         0.0800 
@<TRIPOS>BOND
     1    1    2 1    
     2    1  127 1    
     3    1  128 1    
     4    1  129 1    
     5    2    3 2    
     6    2    4 am   BACKBONE|DICT|INTERRES
     7    4    5 1    
     8    4  130 1    
     9    5    6 1    
    10    5   65 1    
    11    5  131 1    
    12    6    7 1    
    13    6  132 1    
    14    6  133 1    
    15    7    8 1    
    16    8    9 1    
    17    8  134 1    
    18    8  135 1    
    19    9   10 ar   
    20    9   14 ar   
    21   10   11 ar   
    22   10  136 1    
    23   11   12 ar   
    24   11  126 1    
    25   12   13 ar   
    26   12  137 1    
    27   13   14 ar   
    28   13   15 1    
    29   14  138 1    
    30   15   16 1    
    31   15  139 1    
    32   15  140 1    
    33   16   17 1    
    34   17   18 1    
    35   17  141 1    
    36   17  142 1    
    37   18   19 1    
    38   18   67 1    
    39   18  143 1    
    40   19   20 am   BACKBONE|DICT|INTERRES
    41   19  144 1    
    42   20   21 2    
    43   20   22 1    
    44   22   23 1    
    45   22   24 1    
    46   22  145 1    
    47   23  146 1    
    48   23  147 1    
    49   23  148 1    
    50   24   25 am   BACKBONE|DICT|INTERRES
    51   24  149 1    
    52   25   26 2    
    53   25   27 1    
    54   27   28 1    
    55   27   29 1    
    56   27  150 1    
    57   28  151 1    
    58   28  152 1    
    59   28  153 1    
    60   29   30 am   BACKBONE|DICT|INTERRES
    61   29  154 1    
    62   30   31 2    
    63   30   32 1    
    64   32   33 1    
    65   32   34 1    
    66   32  155 1    
    67   33  156 1    
    68   33  157 1    
    69   33  158 1    
    70   34   35 am   BACKBONE|DICT|INTERRES
    71   34  159 1    
    72   35   36 2    
    73   35   37 1    
    74   37   38 1    
    75   37   39 1    
    76   37  160 1    
    77   38  161 1    
    78   38  162 1    
    79   38  163 1    
    80   39   40 am   BACKBONE|DICT|INTERRES
    81   39  164 1    
    82   40   41 2    
    83   40   42 1    
    84   42   43 1    
    85   42   44 1    
    86   42  165 1    
    87   43  166 1    
    88   43  167 1    
    89   43  168 1    
    90   44   45 am   BACKBONE|DICT|INTERRES
    91   44  169 1    
    92   45   46 2    
    93   45   47 1    
    94   47   48 1    
    95   47   49 1    
    96   47  170 1    
    97   48  171 1    
    98   48  172 1    
    99   48  173 1    
   100   49   50 am   BACKBONE|DICT|INTERRES
   101   49  174 1    
   102   50   51 2    
   103   50   52 1    
   104   52   53 1    
   105   52   54 1    
   106   52  175 1    
   107   53  176 1    
   108   53  177 1    
   109   53  178 1    
   110   54   55 am   BACKBONE|DICT|INTERRES
   111   54  179 1    
   112   55   56 2    
   113   55   57 1    
   114   57   58 1    
   115   57   59 1    
   116   57  180 1    
   117   58  181 1    
   118   58  182 1    
   119   58  183 1    
   120   59   60 am   BACKBONE|DICT|INTERRES
   121   59  184 1    
   122   60   61 2    
   123   60   62 1    
   124   62   63 1    
   125   62   64 1    
   126   62  185 1    
   127   63  186 1    
   128   63  187 1    
   129   63  188 1    
   130   64   65 am   BACKBONE|DICT|INTERRES
   131   64  189 1    
   132   65   66 2    
   133   67   68 2    
   134   67   69 am   BACKBONE|DICT|INTERRES
   135   69   70 1    
   136   69  190 1    
   137   70   71 1    
   138   70   72 1    
   139   70  191 1    
   140   71  192 1    
   141   71  193 1    
   142   71  194 1    
   143   72   73 2    
   144   72   74 am   BACKBONE|DICT|INTERRES
   145   74   75 1    
   146   74  195 1    
   147   75   76 1    
   148   75   77 1    
   149   75  196 1    
   150   76  197 1    
   151   76  198 1    
   152   76  199 1    
   153   77   78 2    
   154   77   79 am   BACKBONE|DICT|INTERRES
   155   79   80 1    
   156   79  200 1    
   157   80   81 1    
   158   80   82 1    
   159   80  201 1    
   160   81  202 1    
   161   81  203 1    
   162   81  204 1    
   163   82   83 2    
   164   82   84 am   BACKBONE|DICT|INTERRES
   165   84   85 1    
   166   84  205 1    
   167   85   86 1    
   168   85   87 1    
   169   85  206 1    
   170   86  207 1    
   171   86  208 1    
   172   86  209 1    
   173   87   88 2    
   174   87   89 am   BACKBONE|DICT|INTERRES
   175   89   90 1    
   176   89  210 1    
   177   90   91 1    
   178   90   92 1    
   179   90  211 1    
   180   91  212 1    
   181   91  213 1    
   182   91  214 1    
   183   92   93 2    
   184   92   94 am   BACKBONE|DICT|INTERRES
   185   94   95 1    
   186   94  215 1    
   187   95   96 1    
   188   95   97 1    
   189   95  216 1    
   190   96  217 1    
   191   96  218 1    
   192   96  219 1    
   193   97   98 2    
   194   97   99 am   BACKBONE|DICT|INTERRES
   195   99  100 1    
   196   99  220 1    
   197  100  101 1    
   198  100  102 1    
   199  100  221 1    
   200  101  222 1    
   201  101  223 1    
   202  101  224 1    
   203  102  103 2    
   204  102  104 am   BACKBONE|DICT|INTERRES
   205  104  105 1    
   206  104  225 1    
   207  105  106 1    
   208  105  107 1    
   209  105  226 1    
   210  106  227 1    
   211  106  228 1    
   212  106  229 1    
   213  107  108 2    
   214  107  109 am   BACKBONE|DICT|INTERRES
   215  109  110 1    
   216  109  230 1    
   217  110  111 1    
   218  110  112 1    
   219  110  231 1    
   220  111  232 1    
   221  111  233 1    
   222  111  234 1    
   223  112  113 2    
   224  112  114 am   BACKBONE|DICT|INTERRES
   225  114  115 1    
   226  114  235 1    
   227  115  116 1    
   228  115  117 1    
   229  115  236 1    
   230  116  237 1    
   231  116  238 1    
   232  116  239 1    
   233  117  118 2    
   234  117  119 am   BACKBONE|DICT|INTERRES
   235  119  120 1    
   236  119  240 1    
   237  120  121 1    
   238  120  124 1    
   239  120  241 1    
   240  121  122 am   BACKBONE|DICT|INTERRES
   241  121  123 2    
   242  122  242 1    
   243  122  243 1    
   244  124  125 1    
   245  124  244 1    
   246  124  245 1    
   247  125  126 1    
   248  126  246 1    
   249  126  247 1    
@<TRIPOS>SUBSTRUCTURE
     1 UNK         1 GROUP             0       ****    0 ROOT    
