@<TRIPOS>MOLECULE
3R540
247   249    1
SMALL
USER_CHARGES


@<TRIPOS>ATOM
      1 CA         -3.1688  -14.2125  -44.1491 C.3       0 UNK        -0.1800 
      2 C          -3.1014  -13.3321  -45.3869 C.2       0 UNK         0.5000 
      3 O          -3.4754  -12.1610  -45.3329 O.2       0 UNK        -0.5000 
      4 N          -2.6267  -13.8950  -46.5028 N.am      1 UNK        -0.5000 
      5 CA         -2.5056  -13.2301  -47.8057 C.3       1 UNK         0.1400 
      6 C6         -2.5627  -14.2530  -48.9684 C.3       23 UNK        -0.0398 
      7 S7         -1.4091  -15.6644  -48.8099 S.3       23 UNK        -0.2404 
      8 C8          0.0319  -15.0637  -49.7402 C.3       23 UNK        -0.0205 
      9 C9          0.8581  -16.2152  -50.2877 C.ar      23 UNK        -0.0193 
     10 C10         0.6401  -16.6694  -51.5916 C.ar      23 UNK        -0.1150 
     11 C11         1.4116  -17.7052  -52.1251 C.ar      23 UNK        -0.0193 
     12 C12         2.4058  -18.2903  -51.3343 C.ar      23 UNK        -0.1150 
     13 C13         2.6132  -17.8683  -50.0176 C.ar      23 UNK        -0.0193 
     14 C14         1.8455  -16.8189  -49.5031 C.ar      23 UNK        -0.1150 
     15 C15         3.6525  -18.5712  -49.1526 C.3       23 UNK        -0.0205 
     16 S16         2.9152  -19.6508  -47.8756 S.3       23 UNK        -0.2404 
     17 C17         1.4847  -20.3779  -48.7438 C.3       23 UNK        -0.0398 
     18 CA          0.8716  -21.6285  -48.0678 C.3       11 UNK         0.1400 
     19 N           0.5824  -21.4399  -46.6399 N.am      11 UNK        -0.5000 
     20 C           0.1588  -22.4115  -45.8160 C.2       10 UNK         0.5000 
     21 O          -0.0036  -23.5777  -46.1705 O.2       10 UNK        -0.5000 
     22 CA         -0.2041  -22.0229  -44.3704 C.3       10 UNK         0.1400 
     23 CB          0.9844  -22.2454  -43.4242 C.3       10 UNK        -0.1800 
     24 N          -0.7148  -20.6574  -44.2445 N.am      10 UNK        -0.5000 
     25 C          -1.8429  -20.2178  -44.8232 C.2       9 UNK         0.5000 
     26 O          -2.5773  -20.9295  -45.5104 O.2       9 UNK        -0.5000 
     27 CA         -2.1872  -18.7274  -44.6467 C.3       9 UNK         0.1400 
     28 CB         -3.0106  -18.5142  -43.3685 C.3       9 UNK        -0.1800 
     29 N          -1.0051  -17.8645  -44.6176 N.am      9 UNK        -0.5000 
     30 C          -0.1467  -17.7180  -45.6377 C.2       8 UNK         0.5000 
     31 O          -0.2870  -18.2710  -46.7276 O.2       8 UNK        -0.5000 
     32 CA          1.1059  -16.8627  -45.3698 C.3       8 UNK         0.1400 
     33 CB          0.7768  -15.3628  -45.4159 C.3       8 UNK        -0.1800 
     34 N           1.7363  -17.1906  -44.0900 N.am      8 UNK        -0.5000 
     35 C           2.2803  -18.3808  -43.7979 C.2       7 UNK         0.5000 
     36 O           2.3455  -19.3153  -44.5929 O.2       7 UNK        -0.5000 
     37 CA          2.7993  -18.5806  -42.3652 C.3       7 UNK         0.1400 
     38 CB          4.2298  -18.0404  -42.2136 C.3       7 UNK        -0.1800 
     39 N           1.9212  -17.9467  -41.3838 N.am      7 UNK        -0.5000 
     40 C           0.7387  -18.4455  -40.9989 C.2       6 UNK         0.5000 
     41 O           0.2841  -19.5154  -41.4033 O.2       6 UNK        -0.5000 
     42 CA         -0.0897  -17.5917  -40.0202 C.3       6 UNK         0.1400 
     43 CB          0.3351  -17.8655  -38.5698 C.3       6 UNK        -0.1800 
     44 N           0.0038  -16.1556  -40.2895 N.am      6 UNK        -0.5000 
     45 C          -0.4656  -15.5683  -41.3980 C.2       5 UNK         0.5000 
     46 O          -1.0301  -16.1755  -42.3064 O.2       5 UNK        -0.5000 
     47 CA         -0.2306  -14.0546  -41.5390 C.3       5 UNK         0.1400 
     48 CB         -1.3014  -13.2730  -40.7618 C.3       5 UNK        -0.1800 
     49 N           1.0944  -13.5790  -41.1306 N.am      5 UNK        -0.5000 
     50 C           2.2800  -14.0870  -41.4969 C.2       4 UNK         0.5000 
     51 O           2.4203  -15.1393  -42.1202 O.2       4 UNK        -0.5000 
     52 CA          3.4978  -13.2070  -41.1561 C.3       4 UNK         0.1400 
     53 CB          4.8502  -13.9286  -41.3411 C.3       4 UNK        -0.1800 
     54 N           3.4242  -11.9573  -41.9248 N.am      4 UNK        -0.5000 
     55 C           3.4576  -11.8392  -43.2611 C.2       3 UNK         0.5000 
     56 O           3.8171  -12.7309  -44.0339 O.2       3 UNK        -0.5000 
     57 CA          2.9923  -10.4842  -43.8311 C.3       3 UNK         0.1400 
     58 CB          4.1795   -9.5192  -43.9731 C.3       3 UNK        -0.1800 
     59 N           2.3401  -10.6336  -45.1350 N.am      3 UNK        -0.5000 
     60 C           1.2367  -11.3584  -45.3691 C.2       2 UNK         0.5000 
     61 O           0.5603  -11.8923  -44.4841 O.2       2 UNK        -0.5000 
     62 CA          0.8316  -11.5169  -46.8435 C.3       2 UNK         0.1400 
     63 CB          1.9406  -12.1941  -47.6742 C.3       2 UNK        -0.1800 
     64 N          -0.3908  -12.3093  -46.9188 N.am      2 UNK        -0.5000 
     65 C          -1.2767  -12.2977  -47.9201 C.2       1 UNK         0.5000 
     66 O          -1.1528  -11.5895  -48.9206 O.2       1 UNK        -0.5000 
     67 C          -0.3863  -22.0514  -48.8565 C.2       11 UNK         0.5000 
     68 O          -0.2967  -22.8981  -49.7462 O.2       11 UNK        -0.5000 
     69 N          -1.5324  -21.4476  -48.5160 N.am      12 UNK        -0.5000 
     70 CA         -2.8364  -21.7501  -49.1000 C.3       12 UNK         0.1400 
     71 CB         -3.7749  -20.5585  -48.8540 C.3       12 UNK        -0.1800 
     72 C          -3.4153  -23.0551  -48.5247 C.2       12 UNK         0.5000 
     73 O          -3.9020  -23.8980  -49.2812 O.2       12 UNK        -0.5000 
     74 N          -3.3125  -23.2182  -47.1967 N.am      13 UNK        -0.5000 
     75 CA         -3.8031  -24.3831  -46.4577 C.3       13 UNK         0.1400 
     76 CB         -3.6870  -24.1273  -44.9492 C.3       13 UNK        -0.1800 
     77 C          -3.0988  -25.6987  -46.8370 C.2       13 UNK         0.5000 
     78 O          -3.7548  -26.7394  -46.8570 O.2       13 UNK        -0.5000 
     79 N          -1.8014  -25.6332  -47.1721 N.am      14 UNK        -0.5000 
     80 CA         -1.0007  -26.7664  -47.6470 C.3       14 UNK         0.1400 
     81 CB          0.4700  -26.3394  -47.7688 C.3       14 UNK        -0.1800 
     82 C          -1.4977  -27.3524  -48.9826 C.2       14 UNK         0.5000 
     83 O          -1.4081  -28.5640  -49.1840 O.2       14 UNK        -0.5000 
     84 N          -2.0323  -26.4893  -49.8562 N.am      15 UNK        -0.5000 
     85 CA         -2.6715  -26.8758  -51.1150 C.3       15 UNK         0.1400 
     86 CB         -2.5347  -25.7170  -52.1124 C.3       15 UNK        -0.1800 
     87 C          -4.1549  -27.2519  -50.9375 C.2       15 UNK         0.5000 
     88 O          -4.7373  -27.8340  -51.8534 O.2       15 UNK        -0.5000 
     89 N          -4.7377  -26.8936  -49.7824 N.am      16 UNK        -0.5000 
     90 CA         -6.1586  -26.9732  -49.4303 C.3       16 UNK         0.1400 
     91 CB         -6.6085  -28.4416  -49.2864 C.3       16 UNK        -0.1800 
     92 C          -7.0322  -26.1542  -50.4038 C.2       16 UNK         0.5000 
     93 O          -8.0815  -26.6238  -50.8493 O.2       16 UNK        -0.5000 
     94 N          -6.5531  -24.9518  -50.7410 N.am      17 UNK        -0.5000 
     95 CA         -7.1252  -24.0649  -51.7477 C.3       17 UNK         0.1400 
     96 CB         -6.4004  -24.3127  -53.0853 C.3       17 UNK        -0.1800 
     97 C          -6.9994  -22.6031  -51.2908 C.2       17 UNK         0.5000 
     98 O          -6.5588  -22.3359  -50.1708 O.2       17 UNK        -0.5000 
     99 N          -7.3955  -21.6762  -52.1700 N.am      18 UNK        -0.5000 
    100 CA        -7.1677  -20.2405  -52.0157 C.3       18 UNK         0.1400 
    101 CB        -8.0774  -19.4930  -53.0043 C.3       18 UNK        -0.1800 
    102 C         -5.6923  -19.8799  -52.2733 C.2       18 UNK         0.5000 
    103 O         -4.9719  -20.6436  -52.9198 O.2       18 UNK        -0.5000 
    104 N         -5.2833  -18.6864  -51.8232 N.am      19 UNK        -0.5000 
    105 CA        -3.9333  -18.1348  -51.9994 C.3       19 UNK         0.1400 
    106 CB        -3.8382  -16.8002  -51.2493 C.3       19 UNK        -0.1800 
    107 C         -3.5014  -17.9545  -53.4690 C.2       19 UNK         0.5000 
    108 O         -2.3051  -17.9525  -53.7507 O.2       19 UNK        -0.5000 
    109 N         -4.4749  -17.8500  -54.3839 N.am      20 UNK        -0.5000 
    110 CA        -4.2691  -17.8368  -55.8338 C.3       20 UNK         0.1400 
    111 CB        -5.5904  -17.4420  -56.5119 C.3       20 UNK        -0.1800 
    112 C         -3.7515  -19.1771  -56.4026 C.2       20 UNK         0.5000 
    113 O         -3.2319  -19.1923  -57.5192 O.2       20 UNK        -0.5000 
    114 N         -3.8987  -20.2678  -55.6399 N.am      21 UNK        -0.5000 
    115 CA        -3.4562  -21.6166  -55.9782 C.3       21 UNK         0.1400 
    116 CB        -4.6822  -22.4585  -56.3785 C.3       21 UNK        -0.1800 
    117 C         -2.6763  -22.2095  -54.7908 C.2       21 UNK         0.5000 
    118 O         -2.9446  -23.3381  -54.3780 O.2       21 UNK        -0.5000 
    119 N         -1.7422  -21.4182  -54.2457 N.am      22 UNK        -0.5000 
    120 CA        -0.8722  -21.7803  -53.1168 C.3       22 UNK         0.1400 
    121 C          0.0411  -23.0204  -53.3659 C.2       22 UNK         0.5000 
    122 N          0.5061  -23.6712  -52.3083 N.am      22 UNK        -0.7600 
    123 O          0.3662  -23.3746  -54.4979 O.2       22 UNK        -0.5000 
    124 C124       -0.0601  -20.5531  -52.6218 C.3       23 UNK        -0.0398 
    125 S125        1.2088  -19.9630  -53.8025 S.3       23 UNK        -0.2404 
    126 C126        1.1773  -18.1545  -53.5647 C.3       23 UNK        -0.0205 
    127 H127       -2.6885  -13.7092  -43.3128 H         1 UNK         0.0600 
    128 H128       -2.6694  -15.1693  -44.3037 H         1 UNK         0.0600 
    129 H129       -4.2068  -14.4075  -43.8805 H         1 UNK         0.0600 
    130 H130       -2.3375  -14.8631  -46.4941 H         1 UNK         0.3000 
    131 H131       -3.3737  -12.5777  -47.9234 H         1 UNK         0.0600 
    132 H132       -3.5678  -14.6746  -49.0052 H         1 UNK         0.0800 
    133 H133       -2.4308  -13.7647  -49.9354 H         1 UNK         0.0800 
    134 H134       -0.2887  -14.4204  -50.5609 H         1 UNK         0.0800 
    135 H135        0.6458  -14.4450  -49.0862 H         1 UNK         0.0800 
    136 H136       -0.1280  -16.2075  -52.1964 H         1 UNK         0.1150 
    137 H137        3.0079  -19.0914  -51.7392 H         1 UNK         0.1150 
    138 H138        2.0041  -16.4846  -48.4881 H         1 UNK         0.1150 
    139 H139        4.3188  -19.1726  -49.7730 H         1 UNK         0.0800 
    140 H140        4.2828  -17.8264  -48.6650 H         1 UNK         0.0800 
    141 H141        1.8065  -20.6358  -49.7536 H         1 UNK         0.0800 
    142 H142        0.7335  -19.5922  -48.8486 H         1 UNK         0.0800 
    143 H143        1.5957  -22.4423  -48.1443 H         1 UNK         0.0600 
    144 H144        0.7069  -20.5030  -46.2762 H         1 UNK         0.3000 
    145 H145       -1.0017  -22.6895  -44.0433 H         1 UNK         0.0600 
    146 H146        1.3044  -23.2878  -43.4467 H         1 UNK         0.0600 
    147 H147        1.8458  -21.6393  -43.6987 H         1 UNK         0.0600 
    148 H148        0.7203  -22.0117  -42.3931 H         1 UNK         0.0600 
    149 H149       -0.1712  -20.0169  -43.6812 H         1 UNK         0.3000 
    150 H150       -2.7976  -18.4274  -45.5010 H         1 UNK         0.0600 
    151 H151       -3.9013  -19.1439  -43.3662 H         1 UNK         0.0600 
    152 H152       -3.3439  -17.4800  -43.2820 H         1 UNK         0.0600 
    153 H153       -2.4332  -18.7552  -42.4749 H         1 UNK         0.0600 
    154 H154       -0.8442  -17.3475  -43.7560 H         1 UNK         0.3000 
    155 H155        1.8302  -17.0768  -46.1579 H         1 UNK         0.0600 
    156 H156        0.0292  -15.0878  -44.6722 H         1 UNK         0.0600 
    157 H157        1.6649  -14.7567  -45.2334 H         1 UNK         0.0600 
    158 H158        0.3880  -15.0834  -46.3949 H         1 UNK         0.0600 
    159 H159        1.7715  -16.4586  -43.3861 H         1 UNK         0.3000 
    160 H160        2.8248  -19.6540  -42.1647 H         1 UNK         0.0600 
    161 H161        4.2885  -16.9733  -42.4280 H         1 UNK         0.0600 
    162 H162        4.9091  -18.5476  -42.8998 H         1 UNK         0.0600 
    163 H163        4.6075  -18.2010  -41.2038 H         1 UNK         0.0600 
    164 H164        2.1748  -17.0108  -41.0941 H         1 UNK         0.3000 
    165 H165       -1.1355  -17.8869  -40.1301 H         1 UNK         0.0600 
    166 H166       -0.3010  -17.3300  -37.8647 H         1 UNK         0.0600 
    167 H167        0.2569  -18.9278  -38.3345 H         1 UNK         0.0600 
    168 H168        1.3675  -17.5640  -38.3881 H         1 UNK         0.0600 
    169 H169        0.4692  -15.5857  -39.5986 H         1 UNK         0.3000 
    170 H170       -0.3361  -13.8132  -42.5980 H         1 UNK         0.0600 
    171 H171       -2.3045  -13.6340  -40.9920 H         1 UNK         0.0600 
    172 H172       -1.1638  -13.3670  -39.6839 H         1 UNK         0.0600 
    173 H173       -1.2738  -12.2125  -41.0131 H         1 UNK         0.0600 
    174 H174        1.0982  -12.7052  -40.6257 H         1 UNK         0.3000 
    175 H175        3.4148  -12.9367  -40.1022 H         1 UNK         0.0600 
    176 H176        4.9896  -14.3003  -42.3563 H         1 UNK         0.0600 
    177 H177        5.6844  -13.2668  -41.1092 H         1 UNK         0.0600 
    178 H178        4.9205  -14.7884  -40.6740 H         1 UNK         0.0600 
    179 H179        3.1499  -11.1448  -41.3901 H         1 UNK         0.3000 
    180 H180        2.2641  -10.0473  -43.1447 H         1 UNK         0.0600 
    181 H181        4.9282   -9.9031  -44.6673 H         1 UNK         0.0600 
    182 H182        4.6729   -9.3617  -43.0132 H         1 UNK         0.0600 
    183 H183        3.8549   -8.5430  -44.3340 H         1 UNK         0.0600 
    184 H184        2.8401  -10.2495  -45.9229 H         1 UNK         0.3000 
    185 H185        0.6376  -10.5179  -47.2393 H         1 UNK         0.0600 
    186 H186        2.8705  -11.6260  -47.6421 H         1 UNK         0.0600 
    187 H187        2.1574  -13.1985  -47.3086 H         1 UNK         0.0600 
    188 H188        1.6565  -12.2722  -48.7234 H         1 UNK         0.0600 
    189 H189       -0.5919  -12.8431  -46.0830 H         1 UNK         0.3000 
    190 H190       -1.5203  -20.7853  -47.7519 H         1 UNK         0.3000 
    191 H191       -2.7231  -21.8752  -50.1787 H         1 UNK         0.0600 
    192 H192       -3.9842  -20.4167  -47.7934 H         1 UNK         0.0600 
    193 H193       -4.7290  -20.7015  -49.3588 H         1 UNK         0.0600 
    194 H194       -3.3449  -19.6317  -49.2333 H         1 UNK         0.0600 
    195 H195       -2.9246  -22.4599  -46.6422 H         1 UNK         0.3000 
    196 H196       -4.8620  -24.4953  -46.6998 H         1 UNK         0.0600 
    197 H197       -4.1686  -24.9253  -44.3827 H         1 UNK         0.0600 
    198 H198       -4.1658  -23.1902  -44.6644 H         1 UNK         0.0600 
    199 H199       -2.6465  -24.0876  -44.6319 H         1 UNK         0.0600 
    200 H200       -1.3082  -24.7530  -47.0536 H         1 UNK         0.3000 
    201 H201       -1.0654  -27.5578  -46.8974 H         1 UNK         0.0600 
    202 H202        0.8797  -26.0595  -46.7984 H         1 UNK         0.0600 
    203 H203        0.5867  -25.4881  -48.4411 H         1 UNK         0.0600 
    204 H204        1.0856  -27.1526  -48.1556 H         1 UNK         0.0600 
    205 H205       -2.0798  -25.5102  -49.6077 H         1 UNK         0.3000 
    206 H206       -2.1599  -27.7449  -51.5338 H         1 UNK         0.0600 
    207 H207       -1.4886  -25.5257  -52.3438 H         1 UNK         0.0600 
    208 H208       -3.0334  -25.9449  -53.0554 H         1 UNK         0.0600 
    209 H209       -2.9705  -24.7935  -51.7290 H         1 UNK         0.0600 
    210 H210       -4.1540  -26.4335  -49.0973 H         1 UNK         0.3000 
    211 H211       -6.2600  -26.4989  -48.4531 H         1 UNK         0.0600 
    212 H212       -6.5818  -28.9713  -50.2390 H         1 UNK         0.0600 
    213 H213       -7.6295  -28.5009  -48.9080 H         1 UNK         0.0600 
    214 H214       -5.9710  -28.9799  -48.5849 H         1 UNK         0.0600 
    215 H215       -5.7196  -24.5981  -50.2806 H         1 UNK         0.3000 
    216 H216       -8.1898  -24.2739  -51.8695 H         1 UNK         0.0600 
    217 H217       -6.8600  -23.7539  -53.9004 H         1 UNK         0.0600 
    218 H218       -6.4323  -25.3665  -53.3634 H         1 UNK         0.0600 
    219 H219       -5.3516  -24.0163  -53.0316 H         1 UNK         0.0600 
    220 H220       -7.7240  -21.9774  -53.0752 H         1 UNK         0.3000 
    221 H221       -7.4292  -19.9455  -50.9972 H         1 UNK         0.0600 
    222 H222       -7.8376  -19.7403  -54.0396 H         1 UNK         0.0600 
    223 H223       -9.1264  -19.7378  -52.8362 H         1 UNK         0.0600 
    224 H224       -7.9783  -18.4125  -52.8936 H         1 UNK         0.0600 
    225 H225       -5.9371  -18.1059  -51.3177 H         1 UNK         0.3000 
    226 H226       -3.2275  -18.8340  -51.5466 H         1 UNK         0.0600 
    227 H227       -4.0095  -16.9371  -50.1815 H         1 UNK         0.0600 
    228 H228       -2.8473  -16.3594  -51.3656 H         1 UNK         0.0600 
    229 H229       -4.5644  -16.0756  -51.6193 H         1 UNK         0.0600 
    230 H230       -5.4314  -17.8527  -54.0635 H         1 UNK         0.3000 
    231 H231       -3.5223  -17.0741  -56.0639 H         1 UNK         0.0600 
    232 H232       -5.4737  -17.3877  -57.5952 H         1 UNK         0.0600 
    233 H233       -5.9308  -16.4629  -56.1743 H         1 UNK         0.0600 
    234 H234       -6.3806  -18.1643  -56.3028 H         1 UNK         0.0600 
    235 H235       -4.3036  -20.1765  -54.7121 H         1 UNK         0.3000 
    236 H236       -2.7642  -21.5934  -56.8223 H         1 UNK         0.0600 
    237 H237       -5.1956  -22.0230  -57.2357 H         1 UNK         0.0600 
    238 H238       -4.3905  -23.4723  -56.6550 H         1 UNK         0.0600 
    239 H239       -5.3989  -22.5310  -55.5598 H         1 UNK         0.0600 
    240 H240       -1.5859  -20.5050  -54.6472 H         1 UNK         0.3000 
    241 H241       -1.5495  -22.0643  -52.3093 H         1 UNK         0.0600 
    242 H242        0.2350  -23.4094  -51.3608 H         1 UNK         0.3800 
    243 H243        1.1140  -24.4616  -52.4484 H         1 UNK         0.3800 
    244 H244       -0.7412  -19.7344  -52.3862 H         1 UNK         0.0800 
    245 H245        0.4407  -20.7925  -51.6842 H         1 UNK         0.0800 
    246 H246        1.9512  -17.7109  -54.1919 H         1 UNK         0.0800 
    247 H247        0.2291  -17.7707  -53.9394 H         1 UNK         0.0800 
@<TRIPOS>BOND
     1    1    2 1    
     2    1  127 1    
     3    1  128 1    
     4    1  129 1    
     5    2    3 2    
     6    2    4 am   BACKBONE|DICT|INTERRES
     7    4    5 1    
     8    4  130 1    
     9    5    6 1    
    10    5   65 1    
    11    5  131 1    
    12    6    7 1    
    13    6  132 1    
    14    6  133 1    
    15    7    8 1    
    16    8    9 1    
    17    8  134 1    
    18    8  135 1    
    19    9   10 ar   
    20    9   14 ar   
    21   10   11 ar   
    22   10  136 1    
    23   11   12 ar   
    24   11  126 1    
    25   12   13 ar   
    26   12  137 1    
    27   13   14 ar   
    28   13   15 1    
    29   14  138 1    
    30   15   16 1    
    31   15  139 1    
    32   15  140 1    
    33   16   17 1    
    34   17   18 1    
    35   17  141 1    
    36   17  142 1    
    37   18   19 1    
    38   18   67 1    
    39   18  143 1    
    40   19   20 am   BACKBONE|DICT|INTERRES
    41   19  144 1    
    42   20   21 2    
    43   20   22 1    
    44   22   23 1    
    45   22   24 1    
    46   22  145 1    
    47   23  146 1    
    48   23  147 1    
    49   23  148 1    
    50   24   25 am   BACKBONE|DICT|INTERRES
    51   24  149 1    
    52   25   26 2    
    53   25   27 1    
    54   27   28 1    
    55   27   29 1    
    56   27  150 1    
    57   28  151 1    
    58   28  152 1    
    59   28  153 1    
    60   29   30 am   BACKBONE|DICT|INTERRES
    61   29  154 1    
    62   30   31 2    
    63   30   32 1    
    64   32   33 1    
    65   32   34 1    
    66   32  155 1    
    67   33  156 1    
    68   33  157 1    
    69   33  158 1    
    70   34   35 am   BACKBONE|DICT|INTERRES
    71   34  159 1    
    72   35   36 2    
    73   35   37 1    
    74   37   38 1    
    75   37   39 1    
    76   37  160 1    
    77   38  161 1    
    78   38  162 1    
    79   38  163 1    
    80   39   40 am   BACKBONE|DICT|INTERRES
    81   39  164 1    
    82   40   41 2    
    83   40   42 1    
    84   42   43 1    
    85   42   44 1    
    86   42  165 1    
    87   43  166 1    
    88   43  167 1    
    89   43  168 1    
    90   44   45 am   BACKBONE|DICT|INTERRES
    91   44  169 1    
    92   45   46 2    
    93   45   47 1    
    94   47   48 1    
    95   47   49 1    
    96   47  170 1    
    97   48  171 1    
    98   48  172 1    
    99   48  173 1    
   100   49   50 am   BACKBONE|DICT|INTERRES
   101   49  174 1    
   102   50   51 2    
   103   50   52 1    
   104   52   53 1    
   105   52   54 1    
   106   52  175 1    
   107   53  176 1    
   108   53  177 1    
   109   53  178 1    
   110   54   55 am   BACKBONE|DICT|INTERRES
   111   54  179 1    
   112   55   56 2    
   113   55   57 1    
   114   57   58 1    
   115   57   59 1    
   116   57  180 1    
   117   58  181 1    
   118   58  182 1    
   119   58  183 1    
   120   59   60 am   BACKBONE|DICT|INTERRES
   121   59  184 1    
   122   60   61 2    
   123   60   62 1    
   124   62   63 1    
   125   62   64 1    
   126   62  185 1    
   127   63  186 1    
   128   63  187 1    
   129   63  188 1    
   130   64   65 am   BACKBONE|DICT|INTERRES
   131   64  189 1    
   132   65   66 2    
   133   67   68 2    
   134   67   69 am   BACKBONE|DICT|INTERRES
   135   69   70 1    
   136   69  190 1    
   137   70   71 1    
   138   70   72 1    
   139   70  191 1    
   140   71  192 1    
   141   71  193 1    
   142   71  194 1    
   143   72   73 2    
   144   72   74 am   BACKBONE|DICT|INTERRES
   145   74   75 1    
   146   74  195 1    
   147   75   76 1    
   148   75   77 1    
   149   75  196 1    
   150   76  197 1    
   151   76  198 1    
   152   76  199 1    
   153   77   78 2    
   154   77   79 am   BACKBONE|DICT|INTERRES
   155   79   80 1    
   156   79  200 1    
   157   80   81 1    
   158   80   82 1    
   159   80  201 1    
   160   81  202 1    
   161   81  203 1    
   162   81  204 1    
   163   82   83 2    
   164   82   84 am   BACKBONE|DICT|INTERRES
   165   84   85 1    
   166   84  205 1    
   167   85   86 1    
   168   85   87 1    
   169   85  206 1    
   170   86  207 1    
   171   86  208 1    
   172   86  209 1    
   173   87   88 2    
   174   87   89 am   BACKBONE|DICT|INTERRES
   175   89   90 1    
   176   89  210 1    
   177   90   91 1    
   178   90   92 1    
   179   90  211 1    
   180   91  212 1    
   181   91  213 1    
   182   91  214 1    
   183   92   93 2    
   184   92   94 am   BACKBONE|DICT|INTERRES
   185   94   95 1    
   186   94  215 1    
   187   95   96 1    
   188   95   97 1    
   189   95  216 1    
   190   96  217 1    
   191   96  218 1    
   192   96  219 1    
   193   97   98 2    
   194   97   99 am   BACKBONE|DICT|INTERRES
   195   99  100 1    
   196   99  220 1    
   197  100  101 1    
   198  100  102 1    
   199  100  221 1    
   200  101  222 1    
   201  101  223 1    
   202  101  224 1    
   203  102  103 2    
   204  102  104 am   BACKBONE|DICT|INTERRES
   205  104  105 1    
   206  104  225 1    
   207  105  106 1    
   208  105  107 1    
   209  105  226 1    
   210  106  227 1    
   211  106  228 1    
   212  106  229 1    
   213  107  108 2    
   214  107  109 am   BACKBONE|DICT|INTERRES
   215  109  110 1    
   216  109  230 1    
   217  110  111 1    
   218  110  112 1    
   219  110  231 1    
   220  111  232 1    
   221  111  233 1    
   222  111  234 1    
   223  112  113 2    
   224  112  114 am   BACKBONE|DICT|INTERRES
   225  114  115 1    
   226  114  235 1    
   227  115  116 1    
   228  115  117 1    
   229  115  236 1    
   230  116  237 1    
   231  116  238 1    
   232  116  239 1    
   233  117  118 2    
   234  117  119 am   BACKBONE|DICT|INTERRES
   235  119  120 1    
   236  119  240 1    
   237  120  121 1    
   238  120  124 1    
   239  120  241 1    
   240  121  122 am   BACKBONE|DICT|INTERRES
   241  121  123 2    
   242  122  242 1    
   243  122  243 1    
   244  124  125 1    
   245  124  244 1    
   246  124  245 1    
   247  125  126 1    
   248  126  246 1    
   249  126  247 1    
@<TRIPOS>SUBSTRUCTURE
     1 UNK         1 GROUP             0       ****    0 ROOT    
