@<TRIPOS>MOLECULE
3R540
247   249    1
SMALL
USER_CHARGES


@<TRIPOS>ATOM
      1 CA         -1.6259  -13.5266  -49.7474 C.3       0 UNK        -0.1800 
      2 C          -0.3378  -12.8482  -49.3081 C.2       0 UNK         0.5000 
      3 O          -0.3522  -11.6595  -48.9865 O.2       0 UNK        -0.5000 
      4 N           0.7720  -13.5972  -49.2825 N.am      1 UNK        -0.5000 
      5 CA          2.0575  -13.1601  -48.7289 C.3       1 UNK         0.1400 
      6 C6          3.2165  -14.1194  -49.0918 C.3       23 UNK        -0.0398 
      7 S7          3.5802  -14.1332  -50.8791 S.3       23 UNK        -0.2404 
      8 C8          3.1904  -15.8534  -51.3390 C.3       23 UNK        -0.0205 
      9 C9          1.6948  -16.1316  -51.3216 C.ar      23 UNK        -0.0193 
     10 C10         0.8613  -15.5251  -52.2650 C.ar      23 UNK        -0.1150 
     11 C11        -0.5131  -15.7747  -52.2654 C.ar      23 UNK        -0.0193 
     12 C12        -1.0545  -16.6412  -51.3121 C.ar      23 UNK        -0.1150 
     13 C13        -0.2332  -17.2540  -50.3614 C.ar      23 UNK        -0.0193 
     14 C14         1.1428  -17.0006  -50.3759 C.ar      23 UNK        -0.1150 
     15 C15        -0.8349  -18.2005  -49.3335 C.3       23 UNK        -0.0205 
     16 S16        -0.5039  -17.6554  -47.6279 S.3       23 UNK        -0.2404 
     17 C17        -1.7446  -18.5856  -46.6743 C.3       23 UNK        -0.0398 
     18 CA         -1.6602  -20.1345  -46.7854 C.3       11 UNK         0.1400 
     19 N          -0.5014  -20.7194  -46.1049 N.am      11 UNK        -0.5000 
     20 C           0.6331  -21.0882  -46.7205 C.2       10 UNK         0.5000 
     21 O           0.8158  -20.9639  -47.9313 O.2       10 UNK        -0.5000 
     22 CA          1.7581  -21.7241  -45.8774 C.3       10 UNK         0.1400 
     23 CB          3.0428  -20.8816  -45.9201 C.3       10 UNK        -0.1800 
     24 N           1.3887  -21.9133  -44.4769 N.am      10 UNK        -0.5000 
     25 C           1.2029  -23.0961  -43.8790 C.2       9 UNK         0.5000 
     26 O           1.3368  -24.1805  -44.4454 O.2       9 UNK        -0.5000 
     27 CA          0.8156  -23.0796  -42.3872 C.3       9 UNK         0.1400 
     28 CB          2.0218  -23.4792  -41.5233 C.3       9 UNK        -0.1800 
     29 N           0.2991  -21.8028  -41.8865 N.am      9 UNK        -0.5000 
     30 C          -0.7540  -21.1086  -42.3329 C.2       8 UNK         0.5000 
     31 O          -1.4419  -21.4561  -43.2935 O.2       8 UNK        -0.5000 
     32 CA         -1.0651  -19.7746  -41.6300 C.3       8 UNK         0.1400 
     33 CB         -2.0395  -19.9790  -40.4566 C.3       8 UNK        -0.1800 
     34 N           0.1260  -19.0143  -41.2276 N.am      8 UNK        -0.5000 
     35 C           1.0453  -19.2862  -40.2892 C.2       7 UNK         0.5000 
     36 O           1.0219  -20.2872  -39.5728 O.2       7 UNK        -0.5000 
     37 CA          2.2171  -18.2953  -40.1615 C.3       7 UNK         0.1400 
     38 CB          3.3970  -18.7633  -41.0274 C.3       7 UNK        -0.1800 
     39 N           1.8538  -16.9281  -40.5381 N.am      7 UNK        -0.5000 
     40 C           1.0344  -16.1404  -39.8267 C.2       6 UNK         0.5000 
     41 O           0.5564  -16.4566  -38.7365 O.2       6 UNK        -0.5000 
     42 CA          0.6666  -14.7810  -40.4480 C.3       6 UNK         0.1400 
     43 CB          1.7633  -13.7428  -40.1668 C.3       6 UNK        -0.1800 
     44 N           0.4209  -14.8648  -41.8895 N.am      6 UNK        -0.5000 
     45 C          -0.6029  -15.5262  -42.4501 C.2       5 UNK         0.5000 
     46 O          -1.4783  -16.1059  -41.8077 O.2       5 UNK        -0.5000 
     47 CA         -0.6381  -15.5857  -43.9871 C.3       5 UNK         0.1400 
     48 CB         -1.2209  -14.2944  -44.5797 C.3       5 UNK        -0.1800 
     49 N           0.6793  -15.8341  -44.5655 N.am      5 UNK        -0.5000 
     50 C           1.3828  -16.9657  -44.4282 C.2       4 UNK         0.5000 
     51 O           0.9719  -17.9642  -43.8358 O.2       4 UNK        -0.5000 
     52 CA          2.8061  -16.9588  -45.0131 C.3       4 UNK         0.1400 
     53 CB          2.7913  -17.2620  -46.5182 C.3       4 UNK        -0.1800 
     54 N           3.4889  -15.6854  -44.7887 N.am      4 UNK        -0.5000 
     55 C           3.8972  -15.2409  -43.5931 C.2       3 UNK         0.5000 
     56 O           3.7486  -15.8648  -42.5429 O.2       3 UNK        -0.5000 
     57 CA          4.5493  -13.8469  -43.5673 C.3       3 UNK         0.1400 
     58 CB          6.0298  -13.9321  -43.9672 C.3       3 UNK        -0.1800 
     59 N           3.8640  -12.8881  -44.4366 N.am      3 UNK        -0.5000 
     60 C           2.6241  -12.4314  -44.2150 C.2       2 UNK         0.5000 
     61 O           1.9317  -12.7703  -43.2563 O.2       2 UNK        -0.5000 
     62 CA          2.0420  -11.4658  -45.2623 C.3       2 UNK         0.1400 
     63 CB          2.5635  -10.0393  -45.0319 C.3       2 UNK        -0.1800 
     64 N           2.2867  -11.8559  -46.6550 N.am      2 UNK        -0.5000 
     65 C           1.9239  -13.0253  -47.1999 C.2       1 UNK         0.5000 
     66 O           1.4859  -13.9771  -46.5524 O.2       1 UNK        -0.5000 
     67 C          -2.9342  -20.8177  -46.2626 C.2       11 UNK         0.5000 
     68 O          -3.3510  -21.8243  -46.8340 O.2       11 UNK        -0.5000 
     69 N          -3.5419  -20.2577  -45.2069 N.am      12 UNK        -0.5000 
     70 CA         -4.8673  -20.6126  -44.6915 C.3       12 UNK         0.1400 
     71 CB         -5.2032  -19.6885  -43.5109 C.3       12 UNK        -0.1800 
     72 C          -5.0384  -22.0868  -44.2832 C.2       12 UNK         0.5000 
     73 O          -6.0981  -22.6617  -44.5341 O.2       12 UNK        -0.5000 
     74 N          -3.9982  -22.6703  -43.6765 N.am      13 UNK        -0.5000 
     75 CA         -3.9797  -24.0723  -43.2587 C.3       13 UNK         0.1400 
     76 CB         -3.1801  -24.1957  -41.9542 C.3       13 UNK        -0.1800 
     77 C          -3.4172  -25.0039  -44.3491 C.2       13 UNK         0.5000 
     78 O          -3.6386  -26.2130  -44.2716 O.2       13 UNK        -0.5000 
     79 N          -2.7154  -24.4439  -45.3456 N.am      14 UNK        -0.5000 
     80 CA         -2.2340  -25.1752  -46.5188 C.3       14 UNK         0.1400 
     81 CB         -1.0704  -24.4148  -47.1755 C.3       14 UNK        -0.1800 
     82 C          -3.3620  -25.3987  -47.5380 C.2       14 UNK         0.5000 
     83 O          -3.4732  -26.4923  -48.0927 O.2       14 UNK        -0.5000 
     84 N          -4.1586  -24.3454  -47.7755 N.am      15 UNK        -0.5000 
     85 CA         -5.3020  -24.2144  -48.6880 C.3       15 UNK         0.1400 
     86 CB         -6.4272  -25.1988  -48.3220 C.3       15 UNK        -0.1800 
     87 C          -4.9487  -24.3078  -50.1855 C.2       15 UNK         0.5000 
     88 O          -5.4862  -23.5351  -50.9795 O.2       15 UNK        -0.5000 
     89 N          -4.0422  -25.2245  -50.5458 N.am      16 UNK        -0.5000 
     90 CA         -3.5989  -25.5289  -51.9066 C.3       16 UNK         0.1400 
     91 CB         -2.5659  -26.6641  -51.8562 C.3       16 UNK        -0.1800 
     92 C          -3.0332  -24.3197  -52.6710 C.2       16 UNK         0.5000 
     93 O          -3.2941  -24.1930  -53.8649 O.2       16 UNK        -0.5000 
     94 N          -2.3077  -23.4373  -51.9692 N.am      17 UNK        -0.5000 
     95 CA         -1.7428  -22.2027  -52.5219 C.3       17 UNK         0.1400 
     96 CB         -0.8312  -21.5493  -51.4707 C.3       17 UNK        -0.1800 
     97 C          -2.8197  -21.2065  -52.9901 C.2       17 UNK         0.5000 
     98 O          -2.6491  -20.5558  -54.0221 O.2       17 UNK        -0.5000 
     99 N          -3.9189  -21.1215  -52.2302 N.am      18 UNK        -0.5000 
    100 CA        -5.0727  -20.2913  -52.5567 C.3       18 UNK         0.1400 
    101 CB        -5.8777  -20.0017  -51.2810 C.3       18 UNK        -0.1800 
    102 C         -5.9503  -20.9531  -53.6316 C.2       18 UNK         0.5000 
    103 O         -6.3557  -20.2792  -54.5795 O.2       18 UNK        -0.5000 
    104 N         -6.2093  -22.2585  -53.4710 N.am      19 UNK        -0.5000 
    105 CA        -7.0449  -23.0647  -54.3622 C.3       19 UNK         0.1400 
    106 CB        -7.2930  -24.4366  -53.7179 C.3       19 UNK        -0.1800 
    107 C         -6.4590  -23.2300  -55.7764 C.2       19 UNK         0.5000 
    108 O         -7.2166  -23.2271  -56.7474 O.2       19 UNK        -0.5000 
    109 N         -5.1305  -23.3515  -55.8690 N.am      20 UNK        -0.5000 
    110 CA        -4.3757  -23.4728  -57.1091 C.3       20 UNK         0.1400 
    111 CB        -3.9677  -24.9455  -57.3011 C.3       20 UNK        -0.1800 
    112 C         -3.1633  -22.5215  -57.0388 C.2       20 UNK         0.5000 
    113 O         -2.0580  -22.9725  -56.7404 O.2       20 UNK        -0.5000 
    114 N         -3.3275  -21.2133  -57.2768 N.am      21 UNK        -0.5000 
    115 CA        -4.5495  -20.5037  -57.6643 C.3       21 UNK         0.1400 
    116 CB        -4.7524  -20.6087  -59.1915 C.3       21 UNK        -0.1800 
    117 C         -4.4915  -19.0378  -57.1914 C.2       21 UNK         0.5000 
    118 O         -5.0436  -18.1613  -57.8588 O.2       21 UNK        -0.5000 
    119 N         -3.7924  -18.7780  -56.0773 N.am      22 UNK        -0.5000 
    120 CA        -3.5428  -17.4246  -55.5537 C.3       22 UNK         0.1400 
    121 C         -4.7552  -16.7469  -54.8433 C.2       22 UNK         0.5000 
    122 N         -5.8685  -17.4299  -54.6071 N.am      22 UNK        -0.7600 
    123 O         -4.6969  -15.5661  -54.5142 O.2       22 UNK        -0.5000 
    124 C124       -2.2522  -17.3934  -54.6904 C.3       23 UNK        -0.0398 
    125 S125       -1.2843  -15.8631  -54.9239 S.3       23 UNK        -0.2404 
    126 C126       -1.4093  -15.0877  -53.2838 C.3       23 UNK        -0.0205 
    127 H127       -2.4812  -13.0866  -49.2346 H         1 UNK         0.0600 
    128 H128       -1.6098  -14.5901  -49.5109 H         1 UNK         0.0600 
    129 H129       -1.7711  -13.4052  -50.8202 H         1 UNK         0.0600 
    130 H130        0.7236  -14.5665  -49.5648 H         1 UNK         0.3000 
    131 H131        2.2871  -12.1769  -49.1454 H         1 UNK         0.0600 
    132 H132        4.1334  -13.8188  -48.5818 H         1 UNK         0.0800 
    133 H133        3.0013  -15.1327  -48.7534 H         1 UNK         0.0800 
    134 H134        3.5709  -16.0413  -52.3440 H         1 UNK         0.0800 
    135 H135        3.7256  -16.5381  -50.6791 H         1 UNK         0.0800 
    136 H136        1.2839  -14.8532  -52.9991 H         1 UNK         0.1150 
    137 H137       -2.1185  -16.8317  -51.3061 H         1 UNK         0.1150 
    138 H138        1.7794  -17.4799  -49.6450 H         1 UNK         0.1150 
    139 H139       -1.9121  -18.2920  -49.4806 H         1 UNK         0.0800 
    140 H140       -0.4105  -19.1925  -49.4861 H         1 UNK         0.0800 
    141 H141       -2.7213  -18.2266  -47.0053 H         1 UNK         0.0800 
    142 H142       -1.6434  -18.2796  -45.6330 H         1 UNK         0.0800 
    143 H143       -1.6284  -20.3958  -47.8442 H         1 UNK         0.0600 
    144 H144       -0.6236  -20.9306  -45.1212 H         1 UNK         0.3000 
    145 H145        1.9779  -22.6843  -46.3483 H         1 UNK         0.0600 
    146 H146        3.3141  -20.6101  -46.9412 H         1 UNK         0.0600 
    147 H147        3.8828  -21.4344  -45.4993 H         1 UNK         0.0600 
    148 H148        2.9343  -19.9636  -45.3449 H         1 UNK         0.0600 
    149 H149        1.2674  -21.0761  -43.9252 H         1 UNK         0.3000 
    150 H150        0.0421  -23.8343  -42.2516 H         1 UNK         0.0600 
    151 H151        2.8261  -22.7458  -41.5949 H         1 UNK         0.0600 
    152 H152        2.4268  -24.4436  -41.8331 H         1 UNK         0.0600 
    153 H153        1.7427  -23.5688  -40.4732 H         1 UNK         0.0600 
    154 H154        0.7638  -21.4264  -41.0652 H         1 UNK         0.3000 
    155 H155       -1.5698  -19.1490  -42.3679 H         1 UNK         0.0600 
    156 H156       -1.6147  -20.6094  -39.6752 H         1 UNK         0.0600 
    157 H157       -2.9590  -20.4590  -40.7938 H         1 UNK         0.0600 
    158 H158       -2.3157  -19.0253  -40.0066 H         1 UNK         0.0600 
    159 H159        0.3168  -18.2138  -41.8190 H         1 UNK         0.3000 
    160 H160        2.5375  -18.2913  -39.1176 H         1 UNK         0.0600 
    161 H161        3.1420  -18.7645  -42.0879 H         1 UNK         0.0600 
    162 H162        3.7022  -19.7761  -40.7612 H         1 UNK         0.0600 
    163 H163        4.2646  -18.1171  -40.8930 H         1 UNK         0.0600 
    164 H164        2.2700  -16.5645  -41.3899 H         1 UNK         0.3000 
    165 H165       -0.2537  -14.4374  -39.9713 H         1 UNK         0.0600 
    166 H166        1.4664  -12.7532  -40.5143 H         1 UNK         0.0600 
    167 H167        1.9636  -13.6643  -39.0975 H         1 UNK         0.0600 
    168 H168        2.7006  -14.0034  -40.6593 H         1 UNK         0.0600 
    169 H169        1.0663  -14.3580  -42.4882 H         1 UNK         0.3000 
    170 H170       -1.2914  -16.4117  -44.2707 H         1 UNK         0.0600 
    171 H171       -1.3078  -14.3654  -45.6644 H         1 UNK         0.0600 
    172 H172       -0.5974  -13.4294  -44.3519 H         1 UNK         0.0600 
    173 H173       -2.2177  -14.0969  -44.1839 H         1 UNK         0.0600 
    174 H174        1.0713  -15.0883  -45.1362 H         1 UNK         0.3000 
    175 H175        3.3768  -17.7418  -44.5102 H         1 UNK         0.0600 
    176 H176        2.2990  -18.2113  -46.7260 H         1 UNK         0.0600 
    177 H177        2.2486  -16.4977  -47.0722 H         1 UNK         0.0600 
    178 H178        3.8014  -17.3221  -46.9231 H         1 UNK         0.0600 
    179 H179        3.5875  -15.0774  -45.5875 H         1 UNK         0.3000 
    180 H180        4.4954  -13.4748  -42.5419 H         1 UNK         0.0600 
    181 H181        6.1524  -14.2726  -44.9961 H         1 UNK         0.0600 
    182 H182        6.5675  -14.6302  -43.3240 H         1 UNK         0.0600 
    183 H183        6.5197  -12.9628  -43.8734 H         1 UNK         0.0600 
    184 H184        4.3626  -12.5638  -45.2520 H         1 UNK         0.3000 
    185 H185        0.9594  -11.4539  -45.1200 H         1 UNK         0.0600 
    186 H186        2.3810   -9.7173  -44.0057 H         1 UNK         0.0600 
    187 H187        3.6367   -9.9676  -45.2127 H         1 UNK         0.0600 
    188 H188        2.0638   -9.3258  -45.6875 H         1 UNK         0.0600 
    189 H189        2.6401  -11.1290  -47.2605 H         1 UNK         0.3000 
    190 H190       -3.1047  -19.4649  -44.7637 H         1 UNK         0.3000 
    191 H191       -5.5854  -20.4157  -45.4901 H         1 UNK         0.0600 
    192 H192       -5.2082  -18.6420  -43.8163 H         1 UNK         0.0600 
    193 H193       -6.1917  -19.9116  -43.1072 H         1 UNK         0.0600 
    194 H194       -4.4844  -19.7978  -42.6981 H         1 UNK         0.0600 
    195 H195       -3.1445  -22.1364  -43.5293 H         1 UNK         0.3000 
    196 H196       -4.9979  -24.4062  -43.0477 H         1 UNK         0.0600 
    197 H197       -3.1491  -25.2292  -41.6071 H         1 UNK         0.0600 
    198 H198       -3.6285  -23.5982  -41.1604 H         1 UNK         0.0600 
    199 H199       -2.1545  -23.8603  -42.0828 H         1 UNK         0.0600 
    200 H200       -2.6265  -23.4381  -45.3653 H         1 UNK         0.3000 
    201 H201       -1.8617  -26.1518  -46.2016 H         1 UNK         0.0600 
    202 H202       -0.6761  -24.9699  -48.0276 H         1 UNK         0.0600 
    203 H203       -0.2487  -24.2732  -46.4772 H         1 UNK         0.0600 
    204 H204       -1.3714  -23.4328  -47.5397 H         1 UNK         0.0600 
    205 H205       -3.9108  -23.4750  -47.3074 H         1 UNK         0.3000 
    206 H206       -5.6858  -23.2059  -48.5255 H         1 UNK         0.0600 
    207 H207       -6.7268  -25.0821  -47.2803 H         1 UNK         0.0600 
    208 H208       -7.3111  -25.0236  -48.9366 H         1 UNK         0.0600 
    209 H209       -6.1279  -26.2364  -48.4713 H         1 UNK         0.0600 
    210 H210       -3.6852  -25.8229  -49.8053 H         1 UNK         0.3000 
    211 H211       -4.4690  -25.8881  -52.4581 H         1 UNK         0.0600 
    212 H212       -1.6862  -26.3820  -51.2763 H         1 UNK         0.0600 
    213 H213       -2.2285  -26.9314  -52.8585 H         1 UNK         0.0600 
    214 H214       -2.9893  -27.5623  -51.4061 H         1 UNK         0.0600 
    215 H215       -2.1470  -23.6186  -50.9897 H         1 UNK         0.3000 
    216 H216       -1.1363  -22.4664  -53.3910 H         1 UNK         0.0600 
    217 H217       -0.3966  -20.6233  -51.8502 H         1 UNK         0.0600 
    218 H218       -0.0051  -22.2069  -51.1997 H         1 UNK         0.0600 
    219 H219       -1.3767  -21.3056  -50.5581 H         1 UNK         0.0600 
    220 H220       -4.0134  -21.7411  -51.4380 H         1 UNK         0.3000 
    221 H221       -4.7142  -19.3374  -52.9471 H         1 UNK         0.0600 
    222 H222       -6.2623  -20.9146  -50.8252 H         1 UNK         0.0600 
    223 H223       -5.2662  -19.4887  -50.5385 H         1 UNK         0.0600 
    224 H224       -6.7314  -19.3588  -51.4989 H         1 UNK         0.0600 
    225 H225       -5.8547  -22.7252  -52.6399 H         1 UNK         0.3000 
    226 H226       -8.0068  -22.5574  -54.4613 H         1 UNK         0.0600 
    227 H227       -7.9543  -25.0452  -54.3359 H         1 UNK         0.0600 
    228 H228       -6.3635  -24.9905  -53.5872 H         1 UNK         0.0600 
    229 H229       -7.7628  -24.3350  -52.7393 H         1 UNK         0.0600 
    230 H230       -4.5692  -23.3855  -55.0210 H         1 UNK         0.3000 
    231 H231       -4.9902  -23.1958  -57.9646 H         1 UNK         0.0600 
    232 H232       -3.3784  -25.3156  -56.4611 H         1 UNK         0.0600 
    233 H233       -3.3704  -25.0702  -58.2050 H         1 UNK         0.0600 
    234 H234       -4.8446  -25.5855  -57.3989 H         1 UNK         0.0600 
    235 H235       -2.5155  -20.6190  -57.1906 H         1 UNK         0.3000 
    236 H236       -5.4126  -20.9397  -57.1634 H         1 UNK         0.0600 
    237 H237       -4.7649  -21.6393  -59.5420 H         1 UNK         0.0600 
    238 H238       -5.7004  -20.1605  -59.4914 H         1 UNK         0.0600 
    239 H239       -3.9596  -20.0904  -59.7322 H         1 UNK         0.0600 
    240 H240       -3.4093  -19.5439  -55.5296 H         1 UNK         0.3000 
    241 H241       -3.3560  -16.8029  -56.4317 H         1 UNK         0.0600 
    242 H242       -6.6433  -16.9609  -54.1664 H         1 UNK         0.3800 
    243 H243       -5.9565  -18.4092  -54.8588 H         1 UNK         0.3800 
    244 H244       -1.5852  -18.2076  -54.9773 H         1 UNK         0.0800 
    245 H245       -2.4757  -17.5658  -53.6371 H         1 UNK         0.0800 
    246 H246       -2.4489  -15.0868  -52.9524 H         1 UNK         0.0800 
    247 H247       -1.1178  -14.0398  -53.3686 H         1 UNK         0.0800 
@<TRIPOS>BOND
     1    1    2 1    
     2    1  127 1    
     3    1  128 1    
     4    1  129 1    
     5    2    3 2    
     6    2    4 am   BACKBONE|DICT|INTERRES
     7    4    5 1    
     8    4  130 1    
     9    5    6 1    
    10    5   65 1    
    11    5  131 1    
    12    6    7 1    
    13    6  132 1    
    14    6  133 1    
    15    7    8 1    
    16    8    9 1    
    17    8  134 1    
    18    8  135 1    
    19    9   10 ar   
    20    9   14 ar   
    21   10   11 ar   
    22   10  136 1    
    23   11   12 ar   
    24   11  126 1    
    25   12   13 ar   
    26   12  137 1    
    27   13   14 ar   
    28   13   15 1    
    29   14  138 1    
    30   15   16 1    
    31   15  139 1    
    32   15  140 1    
    33   16   17 1    
    34   17   18 1    
    35   17  141 1    
    36   17  142 1    
    37   18   19 1    
    38   18   67 1    
    39   18  143 1    
    40   19   20 am   BACKBONE|DICT|INTERRES
    41   19  144 1    
    42   20   21 2    
    43   20   22 1    
    44   22   23 1    
    45   22   24 1    
    46   22  145 1    
    47   23  146 1    
    48   23  147 1    
    49   23  148 1    
    50   24   25 am   BACKBONE|DICT|INTERRES
    51   24  149 1    
    52   25   26 2    
    53   25   27 1    
    54   27   28 1    
    55   27   29 1    
    56   27  150 1    
    57   28  151 1    
    58   28  152 1    
    59   28  153 1    
    60   29   30 am   BACKBONE|DICT|INTERRES
    61   29  154 1    
    62   30   31 2    
    63   30   32 1    
    64   32   33 1    
    65   32   34 1    
    66   32  155 1    
    67   33  156 1    
    68   33  157 1    
    69   33  158 1    
    70   34   35 am   BACKBONE|DICT|INTERRES
    71   34  159 1    
    72   35   36 2    
    73   35   37 1    
    74   37   38 1    
    75   37   39 1    
    76   37  160 1    
    77   38  161 1    
    78   38  162 1    
    79   38  163 1    
    80   39   40 am   BACKBONE|DICT|INTERRES
    81   39  164 1    
    82   40   41 2    
    83   40   42 1    
    84   42   43 1    
    85   42   44 1    
    86   42  165 1    
    87   43  166 1    
    88   43  167 1    
    89   43  168 1    
    90   44   45 am   BACKBONE|DICT|INTERRES
    91   44  169 1    
    92   45   46 2    
    93   45   47 1    
    94   47   48 1    
    95   47   49 1    
    96   47  170 1    
    97   48  171 1    
    98   48  172 1    
    99   48  173 1    
   100   49   50 am   BACKBONE|DICT|INTERRES
   101   49  174 1    
   102   50   51 2    
   103   50   52 1    
   104   52   53 1    
   105   52   54 1    
   106   52  175 1    
   107   53  176 1    
   108   53  177 1    
   109   53  178 1    
   110   54   55 am   BACKBONE|DICT|INTERRES
   111   54  179 1    
   112   55   56 2    
   113   55   57 1    
   114   57   58 1    
   115   57   59 1    
   116   57  180 1    
   117   58  181 1    
   118   58  182 1    
   119   58  183 1    
   120   59   60 am   BACKBONE|DICT|INTERRES
   121   59  184 1    
   122   60   61 2    
   123   60   62 1    
   124   62   63 1    
   125   62   64 1    
   126   62  185 1    
   127   63  186 1    
   128   63  187 1    
   129   63  188 1    
   130   64   65 am   BACKBONE|DICT|INTERRES
   131   64  189 1    
   132   65   66 2    
   133   67   68 2    
   134   67   69 am   BACKBONE|DICT|INTERRES
   135   69   70 1    
   136   69  190 1    
   137   70   71 1    
   138   70   72 1    
   139   70  191 1    
   140   71  192 1    
   141   71  193 1    
   142   71  194 1    
   143   72   73 2    
   144   72   74 am   BACKBONE|DICT|INTERRES
   145   74   75 1    
   146   74  195 1    
   147   75   76 1    
   148   75   77 1    
   149   75  196 1    
   150   76  197 1    
   151   76  198 1    
   152   76  199 1    
   153   77   78 2    
   154   77   79 am   BACKBONE|DICT|INTERRES
   155   79   80 1    
   156   79  200 1    
   157   80   81 1    
   158   80   82 1    
   159   80  201 1    
   160   81  202 1    
   161   81  203 1    
   162   81  204 1    
   163   82   83 2    
   164   82   84 am   BACKBONE|DICT|INTERRES
   165   84   85 1    
   166   84  205 1    
   167   85   86 1    
   168   85   87 1    
   169   85  206 1    
   170   86  207 1    
   171   86  208 1    
   172   86  209 1    
   173   87   88 2    
   174   87   89 am   BACKBONE|DICT|INTERRES
   175   89   90 1    
   176   89  210 1    
   177   90   91 1    
   178   90   92 1    
   179   90  211 1    
   180   91  212 1    
   181   91  213 1    
   182   91  214 1    
   183   92   93 2    
   184   92   94 am   BACKBONE|DICT|INTERRES
   185   94   95 1    
   186   94  215 1    
   187   95   96 1    
   188   95   97 1    
   189   95  216 1    
   190   96  217 1    
   191   96  218 1    
   192   96  219 1    
   193   97   98 2    
   194   97   99 am   BACKBONE|DICT|INTERRES
   195   99  100 1    
   196   99  220 1    
   197  100  101 1    
   198  100  102 1    
   199  100  221 1    
   200  101  222 1    
   201  101  223 1    
   202  101  224 1    
   203  102  103 2    
   204  102  104 am   BACKBONE|DICT|INTERRES
   205  104  105 1    
   206  104  225 1    
   207  105  106 1    
   208  105  107 1    
   209  105  226 1    
   210  106  227 1    
   211  106  228 1    
   212  106  229 1    
   213  107  108 2    
   214  107  109 am   BACKBONE|DICT|INTERRES
   215  109  110 1    
   216  109  230 1    
   217  110  111 1    
   218  110  112 1    
   219  110  231 1    
   220  111  232 1    
   221  111  233 1    
   222  111  234 1    
   223  112  113 2    
   224  112  114 am   BACKBONE|DICT|INTERRES
   225  114  115 1    
   226  114  235 1    
   227  115  116 1    
   228  115  117 1    
   229  115  236 1    
   230  116  237 1    
   231  116  238 1    
   232  116  239 1    
   233  117  118 2    
   234  117  119 am   BACKBONE|DICT|INTERRES
   235  119  120 1    
   236  119  240 1    
   237  120  121 1    
   238  120  124 1    
   239  120  241 1    
   240  121  122 am   BACKBONE|DICT|INTERRES
   241  121  123 2    
   242  122  242 1    
   243  122  243 1    
   244  124  125 1    
   245  124  244 1    
   246  124  245 1    
   247  125  126 1    
   248  126  246 1    
   249  126  247 1    
@<TRIPOS>SUBSTRUCTURE
     1 UNK         1 GROUP             0       ****    0 ROOT    
