@<TRIPOS>MOLECULE
3R540
247   249    1
SMALL
USER_CHARGES


@<TRIPOS>ATOM
      1 CA          1.1512  -10.5401  -52.4002 C.3       0 UNK        -0.1800 
      2 C           1.5437  -11.7883  -51.6221 C.2       0 UNK         0.5000 
      3 O           1.7439  -12.8453  -52.2209 O.2       0 UNK        -0.5000 
      4 N           1.6454  -11.6711  -50.2928 N.am      1 UNK        -0.5000 
      5 CA          2.0507  -12.7441  -49.3806 C.3       1 UNK         0.1400 
      6 C6          1.8220  -12.3552  -47.9011 C.3       23 UNK        -0.0398 
      7 S7          0.0581  -12.1934  -47.4786 S.3       23 UNK        -0.2404 
      8 C8         -0.2045  -13.7116  -46.5067 C.3       23 UNK        -0.0205 
      9 C9         -0.0492  -14.9662  -47.3542 C.ar      23 UNK        -0.0193 
     10 C10        -1.0604  -15.3265  -48.2504 C.ar      23 UNK        -0.1150 
     11 C11        -0.9202  -16.4583  -49.0561 C.ar      23 UNK        -0.0193 
     12 C12         0.2466  -17.2177  -48.9736 C.ar      23 UNK        -0.1150 
     13 C13         1.2405  -16.9047  -48.0444 C.ar      23 UNK        -0.0193 
     14 C14         1.0917  -15.7711  -47.2381 C.ar      23 UNK        -0.1150 
     15 C15         2.4571  -17.8111  -47.9143 C.3       23 UNK        -0.0205 
     16 S16         2.1880  -19.1606  -46.7176 S.3       23 UNK        -0.2404 
     17 C17         0.7840  -20.0431  -47.4813 C.3       23 UNK        -0.0398 
     18 CA          0.6218  -21.5133  -47.0336 C.3       11 UNK         0.1400 
     19 N           0.5089  -21.6711  -45.5797 N.am      11 UNK        -0.5000 
     20 C           0.4665  -22.8518  -44.9444 C.2       10 UNK         0.5000 
     21 O           0.5901  -23.9370  -45.5104 O.2       10 UNK        -0.5000 
     22 CA          0.1761  -22.8238  -43.4353 C.3       10 UNK         0.1400 
     23 CB          1.4640  -22.6171  -42.6236 C.3       10 UNK        -0.1800 
     24 N          -0.8041  -21.7920  -43.0995 N.am      10 UNK        -0.5000 
     25 C          -2.1133  -21.8832  -43.3743 C.2       9 UNK         0.5000 
     26 O          -2.6330  -22.8721  -43.8907 O.2       9 UNK        -0.5000 
     27 CA         -2.9812  -20.6508  -43.0561 C.3       9 UNK         0.1400 
     28 CB         -3.4293  -20.6690  -41.5874 C.3       9 UNK        -0.1800 
     29 N          -2.2990  -19.3872  -43.3363 N.am      9 UNK        -0.5000 
     30 C          -1.9343  -18.9773  -44.5595 C.2       8 UNK         0.5000 
     31 O          -2.1803  -19.6041  -45.5880 O.2       8 UNK        -0.5000 
     32 CA         -1.1143  -17.6761  -44.6419 C.3       8 UNK         0.1400 
     33 CB         -2.0573  -16.4710  -44.7455 C.3       8 UNK        -0.1800 
     34 N          -0.2001  -17.4708  -43.5136 N.am      8 UNK        -0.5000 
     35 C           0.7415  -18.3333  -43.1012 C.2       7 UNK         0.5000 
     36 O           0.9112  -19.4412  -43.6072 O.2       7 UNK        -0.5000 
     37 CA          1.6239  -17.9214  -41.9093 C.3       7 UNK         0.1400 
     38 CB          3.0787  -17.7090  -42.3559 C.3       7 UNK        -0.1800 
     39 N           1.1433  -16.7155  -41.2332 N.am      7 UNK        -0.5000 
     40 C           0.1818  -16.6989  -40.2987 C.2       6 UNK         0.5000 
     41 O          -0.4058  -17.7094  -39.9118 O.2       6 UNK        -0.5000 
     42 CA         -0.1925  -15.3301  -39.6950 C.3       6 UNK         0.1400 
     43 CB          0.5205  -15.1278  -38.3493 C.3       6 UNK        -0.1800 
     44 N           0.1297  -14.2040  -40.5732 N.am      6 UNK        -0.5000 
     45 C          -0.5460  -13.8874  -41.6864 C.2       5 UNK         0.5000 
     46 O          -1.5481  -14.4889  -42.0705 O.2       5 UNK        -0.5000 
     47 CA          0.0277  -12.7357  -42.5363 C.3       5 UNK         0.1400 
     48 CB         -0.5492  -11.3873  -42.0810 C.3       5 UNK        -0.1800 
     49 N           1.4942  -12.6706  -42.5116 N.am      5 UNK        -0.5000 
     50 C           2.3016  -13.6429  -42.9554 C.2       4 UNK         0.5000 
     51 O           1.8869  -14.6999  -43.4354 O.2       4 UNK        -0.5000 
     52 CA          3.8153  -13.4275  -42.7584 C.3       4 UNK         0.1400 
     53 CB          4.2138  -13.7856  -41.3176 C.3       4 UNK        -0.1800 
     54 N           4.6111  -14.2434  -43.6773 N.am      4 UNK        -0.5000 
     55 C           4.6584  -14.0614  -45.0019 C.2       3 UNK         0.5000 
     56 O           4.1285  -13.1045  -45.5720 O.2       3 UNK        -0.5000 
     57 CA          5.4152  -15.1178  -45.8276 C.3       3 UNK         0.1400 
     58 CB          5.1195  -16.5604  -45.3679 C.3       3 UNK        -0.1800 
     59 N           5.0378  -14.9614  -47.2283 N.am      3 UNK        -0.5000 
     60 C           5.7778  -15.2720  -48.2976 C.2       2 UNK         0.5000 
     61 O           6.9064  -15.7594  -48.2225 O.2       2 UNK        -0.5000 
     62 CA          5.1530  -15.0110  -49.6863 C.3       2 UNK         0.1400 
     63 CB          5.0833  -16.3080  -50.5094 C.3       2 UNK        -0.1800 
     64 N           3.8042  -14.4393  -49.6026 N.am      2 UNK        -0.5000 
     65 C           3.5293  -13.1292  -49.5921 C.2       1 UNK         0.5000 
     66 O           4.3840  -12.2459  -49.6935 O.2       1 UNK        -0.5000 
     67 C          -0.5810  -22.1502  -47.7635 C.2       11 UNK         0.5000 
     68 O          -0.3856  -22.9023  -48.7180 O.2       11 UNK        -0.5000 
     69 N          -1.7982  -21.8719  -47.2746 N.am      12 UNK        -0.5000 
     70 CA         -3.0501  -22.4405  -47.7723 C.3       12 UNK         0.1400 
     71 CB         -4.2355  -21.7549  -47.0796 C.3       12 UNK        -0.1800 
     72 C          -3.1226  -23.9673  -47.5934 C.2       12 UNK         0.5000 
     73 O          -3.5586  -24.6614  -48.5113 O.2       12 UNK        -0.5000 
     74 N          -2.6600  -24.4701  -46.4394 N.am      13 UNK        -0.5000 
     75 CA         -2.5574  -25.9012  -46.1470 C.3       13 UNK         0.1400 
     76 CB         -2.2154  -26.1061  -44.6640 C.3       13 UNK        -0.1800 
     77 C          -1.5392  -26.6257  -47.0477 C.2       13 UNK         0.5000 
     78 O          -1.8059  -27.7494  -47.4737 O.2       13 UNK        -0.5000 
     79 N          -0.4084  -25.9668  -47.3394 N.am      14 UNK        -0.5000 
     80 CA          0.6209  -26.4512  -48.2598 C.3       14 UNK         0.1400 
     81 CB          1.8936  -25.6041  -48.1072 C.3       14 UNK        -0.1800 
     82 C           0.1437  -26.4704  -49.7239 C.2       14 UNK         0.5000 
     83 O           0.4497  -27.4214  -50.4444 O.2       14 UNK        -0.5000 
     84 N          -0.6098  -25.4379  -50.1316 N.am      15 UNK        -0.5000 
     85 CA         -1.2611  -25.3513  -51.4408 C.3       15 UNK         0.1400 
     86 CB         -1.8225  -23.9350  -51.6485 C.3       15 UNK        -0.1800 
     87 C          -2.3704  -26.4059  -51.6123 C.2       15 UNK         0.5000 
     88 O          -2.4674  -27.0166  -52.6772 O.2       15 UNK        -0.5000 
     89 N          -3.1668  -26.6009  -50.5499 N.am      16 UNK        -0.5000 
     90 CA         -4.2629  -27.5658  -50.4090 C.3       16 UNK         0.1400 
     91 CB         -3.7231  -29.0107  -50.4438 C.3       16 UNK        -0.1800 
     92 C          -5.4239  -27.3362  -51.4012 C.2       16 UNK         0.5000 
     93 O          -6.1488  -28.2768  -51.7314 O.2       16 UNK        -0.5000 
     94 N          -5.5863  -26.0889  -51.8543 N.am      17 UNK        -0.5000 
     95 CA         -6.5706  -25.6455  -52.8325 C.3       17 UNK         0.1400 
     96 CB         -6.1594  -26.1133  -54.2427 C.3       17 UNK        -0.1800 
     97 C          -6.6565  -24.1152  -52.7776 C.2       17 UNK         0.5000 
     98 O          -5.7658  -23.4632  -52.2233 O.2       17 UNK        -0.5000 
     99 N          -7.6965  -23.5564  -53.4069 N.am      18 UNK        -0.5000 
    100 CA        -7.9470  -22.1178  -53.5427 C.3       18 UNK         0.1400 
    101 CB        -9.4436  -21.9019  -53.8302 C.3       18 UNK        -0.1800 
    102 C         -7.0391  -21.4336  -54.5924 C.2       18 UNK         0.5000 
    103 O         -7.5013  -20.5669  -55.3374 O.2       18 UNK        -0.5000 
    104 N         -5.7571  -21.8204  -54.6315 N.am      19 UNK        -0.5000 
    105 CA        -4.7084  -21.2401  -55.4682 C.3       19 UNK         0.1400 
    106 CB        -3.4170  -22.0530  -55.2869 C.3       19 UNK        -0.1800 
    107 C         -4.4948  -19.7661  -55.0904 C.2       19 UNK         0.5000 
    108 O         -4.1652  -19.4849  -53.9371 O.2       19 UNK        -0.5000 
    109 N         -4.7832  -18.8569  -56.0327 N.am      20 UNK        -0.5000 
    110 CA        -4.8322  -17.3974  -55.8536 C.3       20 UNK         0.1400 
    111 CB        -3.4137  -16.8340  -55.6252 C.3       20 UNK        -0.1800 
    112 C         -5.8329  -16.9458  -54.7612 C.2       20 UNK         0.5000 
    113 O         -5.6388  -15.8958  -54.1472 O.2       20 UNK        -0.5000 
    114 N         -6.8668  -17.7699  -54.5220 N.am      21 UNK        -0.5000 
    115 CA        -7.8691  -17.6741  -53.4552 C.3       21 UNK         0.1400 
    116 CB        -8.7343  -16.4070  -53.6205 C.3       21 UNK        -0.1800 
    117 C         -7.2890  -17.8212  -52.0286 C.2       21 UNK         0.5000 
    118 O         -7.9509  -17.4244  -51.0682 O.2       21 UNK        -0.5000 
    119 N         -6.0781  -18.3851  -51.9019 N.am      22 UNK        -0.5000 
    120 CA        -5.3864  -18.6004  -50.6231 C.3       22 UNK         0.1400 
    121 C         -6.0440  -19.7188  -49.7683 C.2       22 UNK         0.5000 
    122 N         -6.1690  -20.9359  -50.2853 N.am      22 UNK        -0.7600 
    123 O         -6.4608  -19.4798  -48.6387 O.2       22 UNK        -0.5000 
    124 C124       -3.8706  -18.8394  -50.8404 C.3       23 UNK        -0.0398 
    125 S125       -2.8613  -18.3843  -49.3920 S.3       23 UNK        -0.2404 
    126 C126       -2.0234  -16.8874  -50.0078 C.3       23 UNK        -0.0205 
    127 H127        1.9335  -10.2816  -53.1139 H         1 UNK         0.0600 
    128 H128        0.9946   -9.6845  -51.7428 H         1 UNK         0.0600 
    129 H129        0.2287  -10.7170  -52.9531 H         1 UNK         0.0600 
    130 H130        1.4746  -10.7748  -49.8606 H         1 UNK         0.3000 
    131 H131        1.4347  -13.6178  -49.6062 H         1 UNK         0.0600 
    132 H132        2.2564  -13.1025  -47.2395 H         1 UNK         0.0800 
    133 H133        2.3264  -11.4171  -47.6628 H         1 UNK         0.0800 
    134 H134        0.4862  -13.7309  -45.6627 H         1 UNK         0.0800 
    135 H135       -1.2093  -13.6777  -46.0848 H         1 UNK         0.0800 
    136 H136       -1.9540  -14.7222  -48.3203 H         1 UNK         0.1150 
    137 H137        0.3541  -18.0844  -49.6094 H         1 UNK         0.1150 
    138 H138        1.8570  -15.5211  -46.5162 H         1 UNK         0.1150 
    139 H139        2.7101  -18.2417  -48.8840 H         1 UNK         0.0800 
    140 H140        3.3247  -17.2302  -47.6048 H         1 UNK         0.0800 
    141 H141        0.9232  -20.0207  -48.5629 H         1 UNK         0.0800 
    142 H142       -0.1236  -19.4745  -47.2746 H         1 UNK         0.0800 
    143 H143        1.5163  -22.0568  -47.3452 H         1 UNK         0.0600 
    144 H144        0.4635  -20.8198  -45.0287 H         1 UNK         0.3000 
    145 H145       -0.2399  -23.7938  -43.1555 H         1 UNK         0.0600 
    146 H146        1.2576  -22.5972  -41.5535 H         1 UNK         0.0600 
    147 H147        2.1673  -23.4310  -42.8040 H         1 UNK         0.0600 
    148 H148        1.9706  -21.6886  -42.8858 H         1 UNK         0.0600 
    149 H149       -0.4319  -20.9096  -42.7742 H         1 UNK         0.3000 
    150 H150       -3.8716  -20.7005  -43.6863 H         1 UNK         0.0600 
    151 H151       -3.9538  -21.5958  -41.3509 H         1 UNK         0.0600 
    152 H152       -4.1122  -19.8466  -41.3733 H         1 UNK         0.0600 
    153 H153       -2.5815  -20.5876  -40.9058 H         1 UNK         0.0600 
    154 H154       -2.0461  -18.8162  -42.5429 H         1 UNK         0.3000 
    155 H155       -0.5063  -17.7185  -45.5474 H         1 UNK         0.0600 
    156 H156       -2.7514  -16.4279  -43.9053 H         1 UNK         0.0600 
    157 H157       -1.4987  -15.5374  -44.7560 H         1 UNK         0.0600 
    158 H158       -2.6463  -16.5145  -45.6627 H         1 UNK         0.0600 
    159 H159       -0.2624  -16.5793  -43.0429 H         1 UNK         0.3000 
    160 H160        1.6139  -18.7524  -41.2009 H         1 UNK         0.0600 
    161 H161        3.1613  -16.9118  -43.0925 H         1 UNK         0.0600 
    162 H162        3.4828  -18.6138  -42.8120 H         1 UNK         0.0600 
    163 H163        3.7197  -17.4566  -41.5114 H         1 UNK         0.0600 
    164 H164        1.5263  -15.8394  -41.5616 H         1 UNK         0.3000 
    165 H165       -1.2697  -15.3321  -39.5147 H         1 UNK         0.0600 
    166 H166        0.2137  -14.1947  -37.8764 H         1 UNK         0.0600 
    167 H167        0.2826  -15.9353  -37.6556 H         1 UNK         0.0600 
    168 H168        1.6047  -15.1050  -38.4671 H         1 UNK         0.0600 
    169 H169        0.9380  -13.6519  -40.3276 H         1 UNK         0.3000 
    170 H170       -0.2843  -12.9052  -43.5679 H         1 UNK         0.0600 
    171 H171       -1.6397  -11.4004  -42.1078 H         1 UNK         0.0600 
    172 H172       -0.2486  -11.1432  -41.0614 H         1 UNK         0.0600 
    173 H173       -0.2198  -10.5775  -42.7323 H         1 UNK         0.0600 
    174 H174        1.9008  -11.8331  -42.1200 H         1 UNK         0.3000 
    175 H175        4.0452  -12.3755  -42.9402 H         1 UNK         0.0600 
    176 H176        3.9971  -14.8294  -41.0861 H         1 UNK         0.0600 
    177 H177        5.2784  -13.6200  -41.1507 H         1 UNK         0.0600 
    178 H178        3.6764  -13.1709  -40.5944 H         1 UNK         0.0600 
    179 H179        5.0518  -15.0606  -43.2830 H         1 UNK         0.3000 
    180 H180        6.4822  -14.9141  -45.7180 H         1 UNK         0.0600 
    181 H181        4.0480  -16.7625  -45.3489 H         1 UNK         0.0600 
    182 H182        5.5100  -16.7494  -44.3678 H         1 UNK         0.0600 
    183 H183        5.5827  -17.2917  -46.0305 H         1 UNK         0.0600 
    184 H184        4.1693  -14.4664  -47.3697 H         1 UNK         0.3000 
    185 H185        5.8139  -14.3181  -50.2113 H         1 UNK         0.0600 
    186 H186        6.0767  -16.7343  -50.6547 H         1 UNK         0.0600 
    187 H187        4.4714  -17.0655  -50.0210 H         1 UNK         0.0600 
    188 H188        4.6643  -16.1246  -51.4990 H         1 UNK         0.0600 
    189 H189        3.0445  -15.1012  -49.5306 H         1 UNK         0.3000 
    190 H190       -1.8822  -21.1881  -46.5256 H         1 UNK         0.3000 
    191 H191       -3.1115  -22.2248  -48.8411 H         1 UNK         0.0600 
    192 H192       -4.2204  -21.9130  -46.0011 H         1 UNK         0.0600 
    193 H193       -5.1842  -22.1378  -47.4571 H         1 UNK         0.0600 
    194 H194       -4.2254  -20.6796  -47.2592 H         1 UNK         0.0600 
    195 H195       -2.3707  -23.8326  -45.7056 H         1 UNK         0.3000 
    196 H196       -3.5366  -26.3482  -46.3313 H         1 UNK         0.0600 
    197 H197       -2.1666  -27.1676  -44.4180 H         1 UNK         0.0600 
    198 H198       -2.9713  -25.6577  -44.0191 H         1 UNK         0.0600 
    199 H199       -1.2519  -25.6659  -44.4081 H         1 UNK         0.0600 
    200 H200       -0.2310  -25.0745  -46.8880 H         1 UNK         0.3000 
    201 H201        0.8659  -27.4775  -47.9783 H         1 UNK         0.0600 
    202 H202        2.2766  -25.6501  -47.0877 H         1 UNK         0.0600 
    203 H203        1.7141  -24.5565  -48.3488 H         1 UNK         0.0600 
    204 H204        2.6831  -25.9632  -48.7683 H         1 UNK         0.0600 
    205 H205       -0.7466  -24.6551  -49.4987 H         1 UNK         0.3000 
    206 H206       -0.5046  -25.5327  -52.2070 H         1 UNK         0.0600 
    207 H207       -1.0323  -23.1858  -51.5962 H         1 UNK         0.0600 
    208 H208       -2.2959  -23.8431  -52.6267 H         1 UNK         0.0600 
    209 H209       -2.5720  -23.6814  -50.8985 H         1 UNK         0.0600 
    210 H210       -3.0476  -25.9803  -49.7526 H         1 UNK         0.3000 
    211 H211       -4.6799  -27.3961  -49.4154 H         1 UNK         0.0600 
    212 H212       -3.3515  -29.2805  -51.4327 H         1 UNK         0.0600 
    213 H213       -4.5018  -29.7272  -50.1800 H         1 UNK         0.0600 
    214 H214       -2.9082  -29.1430  -49.7319 H         1 UNK         0.0600 
    215 H215       -4.9870  -25.3500  -51.5066 H         1 UNK         0.3000 
    216 H216       -7.5476  -26.0571  -52.5714 H         1 UNK         0.0600 
    217 H217       -5.1764  -25.7294  -54.5194 H         1 UNK         0.0600 
    218 H218       -6.8696  -25.7739  -54.9974 H         1 UNK         0.0600 
    219 H219       -6.1211  -27.2007  -54.3076 H         1 UNK         0.0600 
    220 H220       -8.3591  -24.1612  -53.8709 H         1 UNK         0.3000 
    221 H221       -7.7291  -21.6401  -52.5859 H         1 UNK         0.0600 
    222 H222      -10.0633  -22.3572  -53.0575 H         1 UNK         0.0600 
    223 H223       -9.7338  -22.3307  -54.7901 H         1 UNK         0.0600 
    224 H224       -9.6925  -20.8403  -53.8550 H         1 UNK         0.0600 
    225 H225       -5.4571  -22.4902  -53.9322 H         1 UNK         0.3000 
    226 H226       -5.0214  -21.3100  -56.5118 H         1 UNK         0.0600 
    227 H227       -3.5639  -23.0957  -55.5690 H         1 UNK         0.0600 
    228 H228       -2.6157  -21.6556  -55.9110 H         1 UNK         0.0600 
    229 H229       -3.0695  -22.0319  -54.2531 H         1 UNK         0.0600 
    230 H230       -5.0842  -19.1891  -56.9388 H         1 UNK         0.3000 
    231 H231       -5.2050  -16.9850  -56.7922 H         1 UNK         0.0600 
    232 H232       -3.0037  -17.1457  -54.6641 H         1 UNK         0.0600 
    233 H233       -3.4175  -15.7435  -55.6400 H         1 UNK         0.0600 
    234 H234       -2.7279  -17.1643  -56.4054 H         1 UNK         0.0600 
    235 H235       -6.9310  -18.6171  -55.0777 H         1 UNK         0.3000 
    236 H236       -8.5271  -18.5328  -53.5926 H         1 UNK         0.0600 
    237 H237       -9.5871  -16.4237  -52.9410 H         1 UNK         0.0600 
    238 H238       -8.1695  -15.4986  -53.4100 H         1 UNK         0.0600 
    239 H239       -9.1311  -16.3295  -54.6327 H         1 UNK         0.0600 
    240 H240       -5.5795  -18.6876  -52.7318 H         1 UNK         0.3000 
    241 H241       -5.4892  -17.6685  -50.0628 H         1 UNK         0.0600 
    242 H242       -6.6053  -21.6551  -49.7321 H         1 UNK         0.3800 
    243 H243       -5.8020  -21.1718  -51.1935 H         1 UNK         0.3800 
    244 H244       -3.5235  -18.2492  -51.6892 H         1 UNK         0.0800 
    245 H245       -3.6631  -19.8771  -51.1076 H         1 UNK         0.0800 
    246 H246       -2.7561  -16.0901  -50.1418 H         1 UNK         0.0800 
    247 H247       -1.5879  -17.0827  -50.9889 H         1 UNK         0.0800 
@<TRIPOS>BOND
     1    1    2 1    
     2    1  127 1    
     3    1  128 1    
     4    1  129 1    
     5    2    3 2    
     6    2    4 am   BACKBONE|DICT|INTERRES
     7    4    5 1    
     8    4  130 1    
     9    5    6 1    
    10    5   65 1    
    11    5  131 1    
    12    6    7 1    
    13    6  132 1    
    14    6  133 1    
    15    7    8 1    
    16    8    9 1    
    17    8  134 1    
    18    8  135 1    
    19    9   10 ar   
    20    9   14 ar   
    21   10   11 ar   
    22   10  136 1    
    23   11   12 ar   
    24   11  126 1    
    25   12   13 ar   
    26   12  137 1    
    27   13   14 ar   
    28   13   15 1    
    29   14  138 1    
    30   15   16 1    
    31   15  139 1    
    32   15  140 1    
    33   16   17 1    
    34   17   18 1    
    35   17  141 1    
    36   17  142 1    
    37   18   19 1    
    38   18   67 1    
    39   18  143 1    
    40   19   20 am   BACKBONE|DICT|INTERRES
    41   19  144 1    
    42   20   21 2    
    43   20   22 1    
    44   22   23 1    
    45   22   24 1    
    46   22  145 1    
    47   23  146 1    
    48   23  147 1    
    49   23  148 1    
    50   24   25 am   BACKBONE|DICT|INTERRES
    51   24  149 1    
    52   25   26 2    
    53   25   27 1    
    54   27   28 1    
    55   27   29 1    
    56   27  150 1    
    57   28  151 1    
    58   28  152 1    
    59   28  153 1    
    60   29   30 am   BACKBONE|DICT|INTERRES
    61   29  154 1    
    62   30   31 2    
    63   30   32 1    
    64   32   33 1    
    65   32   34 1    
    66   32  155 1    
    67   33  156 1    
    68   33  157 1    
    69   33  158 1    
    70   34   35 am   BACKBONE|DICT|INTERRES
    71   34  159 1    
    72   35   36 2    
    73   35   37 1    
    74   37   38 1    
    75   37   39 1    
    76   37  160 1    
    77   38  161 1    
    78   38  162 1    
    79   38  163 1    
    80   39   40 am   BACKBONE|DICT|INTERRES
    81   39  164 1    
    82   40   41 2    
    83   40   42 1    
    84   42   43 1    
    85   42   44 1    
    86   42  165 1    
    87   43  166 1    
    88   43  167 1    
    89   43  168 1    
    90   44   45 am   BACKBONE|DICT|INTERRES
    91   44  169 1    
    92   45   46 2    
    93   45   47 1    
    94   47   48 1    
    95   47   49 1    
    96   47  170 1    
    97   48  171 1    
    98   48  172 1    
    99   48  173 1    
   100   49   50 am   BACKBONE|DICT|INTERRES
   101   49  174 1    
   102   50   51 2    
   103   50   52 1    
   104   52   53 1    
   105   52   54 1    
   106   52  175 1    
   107   53  176 1    
   108   53  177 1    
   109   53  178 1    
   110   54   55 am   BACKBONE|DICT|INTERRES
   111   54  179 1    
   112   55   56 2    
   113   55   57 1    
   114   57   58 1    
   115   57   59 1    
   116   57  180 1    
   117   58  181 1    
   118   58  182 1    
   119   58  183 1    
   120   59   60 am   BACKBONE|DICT|INTERRES
   121   59  184 1    
   122   60   61 2    
   123   60   62 1    
   124   62   63 1    
   125   62   64 1    
   126   62  185 1    
   127   63  186 1    
   128   63  187 1    
   129   63  188 1    
   130   64   65 am   BACKBONE|DICT|INTERRES
   131   64  189 1    
   132   65   66 2    
   133   67   68 2    
   134   67   69 am   BACKBONE|DICT|INTERRES
   135   69   70 1    
   136   69  190 1    
   137   70   71 1    
   138   70   72 1    
   139   70  191 1    
   140   71  192 1    
   141   71  193 1    
   142   71  194 1    
   143   72   73 2    
   144   72   74 am   BACKBONE|DICT|INTERRES
   145   74   75 1    
   146   74  195 1    
   147   75   76 1    
   148   75   77 1    
   149   75  196 1    
   150   76  197 1    
   151   76  198 1    
   152   76  199 1    
   153   77   78 2    
   154   77   79 am   BACKBONE|DICT|INTERRES
   155   79   80 1    
   156   79  200 1    
   157   80   81 1    
   158   80   82 1    
   159   80  201 1    
   160   81  202 1    
   161   81  203 1    
   162   81  204 1    
   163   82   83 2    
   164   82   84 am   BACKBONE|DICT|INTERRES
   165   84   85 1    
   166   84  205 1    
   167   85   86 1    
   168   85   87 1    
   169   85  206 1    
   170   86  207 1    
   171   86  208 1    
   172   86  209 1    
   173   87   88 2    
   174   87   89 am   BACKBONE|DICT|INTERRES
   175   89   90 1    
   176   89  210 1    
   177   90   91 1    
   178   90   92 1    
   179   90  211 1    
   180   91  212 1    
   181   91  213 1    
   182   91  214 1    
   183   92   93 2    
   184   92   94 am   BACKBONE|DICT|INTERRES
   185   94   95 1    
   186   94  215 1    
   187   95   96 1    
   188   95   97 1    
   189   95  216 1    
   190   96  217 1    
   191   96  218 1    
   192   96  219 1    
   193   97   98 2    
   194   97   99 am   BACKBONE|DICT|INTERRES
   195   99  100 1    
   196   99  220 1    
   197  100  101 1    
   198  100  102 1    
   199  100  221 1    
   200  101  222 1    
   201  101  223 1    
   202  101  224 1    
   203  102  103 2    
   204  102  104 am   BACKBONE|DICT|INTERRES
   205  104  105 1    
   206  104  225 1    
   207  105  106 1    
   208  105  107 1    
   209  105  226 1    
   210  106  227 1    
   211  106  228 1    
   212  106  229 1    
   213  107  108 2    
   214  107  109 am   BACKBONE|DICT|INTERRES
   215  109  110 1    
   216  109  230 1    
   217  110  111 1    
   218  110  112 1    
   219  110  231 1    
   220  111  232 1    
   221  111  233 1    
   222  111  234 1    
   223  112  113 2    
   224  112  114 am   BACKBONE|DICT|INTERRES
   225  114  115 1    
   226  114  235 1    
   227  115  116 1    
   228  115  117 1    
   229  115  236 1    
   230  116  237 1    
   231  116  238 1    
   232  116  239 1    
   233  117  118 2    
   234  117  119 am   BACKBONE|DICT|INTERRES
   235  119  120 1    
   236  119  240 1    
   237  120  121 1    
   238  120  124 1    
   239  120  241 1    
   240  121  122 am   BACKBONE|DICT|INTERRES
   241  121  123 2    
   242  122  242 1    
   243  122  243 1    
   244  124  125 1    
   245  124  244 1    
   246  124  245 1    
   247  125  126 1    
   248  126  246 1    
   249  126  247 1    
@<TRIPOS>SUBSTRUCTURE
     1 UNK         1 GROUP             0       ****    0 ROOT    
