@<TRIPOS>MOLECULE
3R540
247   249    1
SMALL
USER_CHARGES


@<TRIPOS>ATOM
      1 CA          0.4503  -12.6003  -50.4427 C.3       0 UNK        -0.1800 
      2 C           0.3022  -12.3238  -48.9545 C.2       0 UNK         0.5000 
      3 O           1.2707  -12.4499  -48.2063 O.2       0 UNK        -0.5000 
      4 N          -0.9019  -11.9339  -48.5149 N.am      1 UNK        -0.5000 
      5 CA         -1.2733  -11.7562  -47.1012 C.3       1 UNK         0.1400 
      6 C6         -2.8073  -11.7558  -46.8667 C.3       23 UNK        -0.0398 
      7 S7         -3.7047  -13.0719  -47.7628 S.3       23 UNK        -0.2404 
      8 C8         -3.1183  -14.5913  -46.9445 C.3       23 UNK        -0.0205 
      9 C9         -3.0613  -15.7420  -47.9366 C.ar      23 UNK        -0.0193 
     10 C10        -2.0863  -15.7437  -48.9379 C.ar      23 UNK        -0.1150 
     11 C11        -2.0357  -16.7727  -49.8810 C.ar      23 UNK        -0.0193 
     12 C12        -2.9733  -17.8055  -49.8158 C.ar      23 UNK        -0.1150 
     13 C13        -3.9331  -17.8389  -48.7984 C.ar      23 UNK        -0.0193 
     14 C14        -3.9760  -16.7970  -47.8655 C.ar      23 UNK        -0.1150 
     15 C15        -4.9258  -18.9941  -48.6980 C.3       23 UNK        -0.0205 
     16 S16        -4.1637  -20.6419  -48.8965 S.3       23 UNK        -0.2404 
     17 C17        -2.8240  -20.5762  -47.6620 C.3       23 UNK        -0.0398 
     18 CA         -2.0128  -21.8918  -47.5873 C.3       11 UNK         0.1400 
     19 N          -0.6233  -21.6533  -47.1857 N.am      11 UNK        -0.5000 
     20 C           0.3398  -22.5853  -47.1557 C.2       10 UNK         0.5000 
     21 O           0.1773  -23.7485  -47.5197 O.2       10 UNK        -0.5000 
     22 CA          1.6976  -22.1646  -46.5665 C.3       10 UNK         0.1400 
     23 CB          2.5522  -21.4422  -47.6188 C.3       10 UNK        -0.1800 
     24 N           1.5508  -21.3241  -45.3774 N.am      10 UNK        -0.5000 
     25 C           0.9881  -21.7270  -44.2283 C.2       9 UNK         0.5000 
     26 O           0.6001  -22.8777  -44.0259 O.2       9 UNK        -0.5000 
     27 CA          0.7605  -20.6517  -43.1495 C.3       9 UNK         0.1400 
     28 CB          2.0568  -20.3426  -42.3868 C.3       9 UNK        -0.1800 
     29 N           0.2102  -19.4181  -43.7115 N.am      9 UNK        -0.5000 
     30 C          -0.9986  -19.3186  -44.2843 C.2       8 UNK         0.5000 
     31 O          -1.8150  -20.2377  -44.3211 O.2       8 UNK        -0.5000 
     32 CA         -1.3310  -17.9906  -44.9851 C.3       8 UNK         0.1400 
     33 CB         -2.0695  -17.0330  -44.0378 C.3       8 UNK        -0.1800 
     34 N          -0.1307  -17.3510  -45.5283 N.am      8 UNK        -0.5000 
     35 C           0.5038  -17.8014  -46.6196 C.2       7 UNK         0.5000 
     36 O           0.1469  -18.8033  -47.2379 O.2       7 UNK        -0.5000 
     37 CA          1.7652  -17.0438  -47.0681 C.3       7 UNK         0.1400 
     38 CB          1.4055  -15.7062  -47.7295 C.3       7 UNK        -0.1800 
     39 N           2.7289  -16.8057  -45.9933 N.am      7 UNK        -0.5000 
     40 C           3.4263  -17.7677  -45.3732 C.2       6 UNK         0.5000 
     41 O           3.2105  -18.9689  -45.5238 O.2       6 UNK        -0.5000 
     42 CA          4.5573  -17.3166  -44.4355 C.3       6 UNK         0.1400 
     43 CB          5.7327  -16.7377  -45.2395 C.3       6 UNK        -0.1800 
     44 N           4.0710  -16.3090  -43.5003 N.am      6 UNK        -0.5000 
     45 C           3.8042  -16.5310  -42.2064 C.2       5 UNK         0.5000 
     46 O           4.0708  -17.5802  -41.6198 O.2       5 UNK        -0.5000 
     47 CA          3.0944  -15.3983  -41.4333 C.3       5 UNK         0.1400 
     48 CB          4.1173  -14.5553  -40.6569 C.3       5 UNK        -0.1800 
     49 N           2.2904  -14.5099  -42.2783 N.am      5 UNK        -0.5000 
     50 C           1.2748  -14.9011  -43.0604 C.2       4 UNK         0.5000 
     51 O           0.8731  -16.0613  -43.1290 O.2       4 UNK        -0.5000 
     52 CA          0.6432  -13.8394  -43.9788 C.3       4 UNK         0.1400 
     53 CB         -0.5815  -13.2161  -43.2937 C.3       4 UNK        -0.1800 
     54 N           1.5620  -12.7845  -44.4301 N.am      4 UNK        -0.5000 
     55 C           2.7354  -12.9786  -45.0568 C.2       3 UNK         0.5000 
     56 O           3.2045  -14.0968  -45.2814 O.2       3 UNK        -0.5000 
     57 CA          3.4971  -11.7164  -45.5024 C.3       3 UNK         0.1400 
     58 CB          4.6646  -12.0345  -46.4539 C.3       3 UNK        -0.1800 
     59 N           2.5701  -10.8122  -46.1738 N.am      3 UNK        -0.5000 
     60 C           2.3210   -9.5380  -45.8410 C.2       2 UNK         0.5000 
     61 O           2.9227   -8.9318  -44.9542 O.2       2 UNK        -0.5000 
     62 CA          1.1814   -8.8273  -46.6072 C.3       2 UNK         0.1400 
     63 CB          1.7506   -7.9813  -47.7561 C.3       2 UNK        -0.1800 
     64 N           0.1973   -9.7673  -47.1505 N.am      2 UNK        -0.5000 
     65 C          -0.5929  -10.5536  -46.4060 C.2       1 UNK         0.5000 
     66 O          -0.7389  -10.3963  -45.1941 O.2       1 UNK        -0.5000 
     67 C          -2.7022  -22.9365  -46.6842 C.2       11 UNK         0.5000 
     68 O          -3.3231  -23.8680  -47.1949 O.2       11 UNK        -0.5000 
     69 N          -2.5399  -22.7977  -45.3606 N.am      12 UNK        -0.5000 
     70 CA         -3.0391  -23.7401  -44.3592 C.3       12 UNK         0.1400 
     71 CB         -2.8285  -23.1631  -42.9514 C.3       12 UNK        -0.1800 
     72 C          -2.4022  -25.1357  -44.4873 C.2       12 UNK         0.5000 
     73 O          -3.1245  -26.1321  -44.4513 O.2       12 UNK        -0.5000 
     74 N          -1.0772  -25.1848  -44.6890 N.am      13 UNK        -0.5000 
     75 CA         -0.3136  -26.4148  -44.9229 C.3       13 UNK         0.1400 
     76 CB          1.1882  -26.0933  -44.9234 C.3       13 UNK        -0.1800 
     77 C          -0.7165  -27.1439  -46.2207 C.2       13 UNK         0.5000 
     78 O          -0.7383  -28.3747  -46.2457 O.2       13 UNK        -0.5000 
     79 N          -1.0670  -26.3733  -47.2586 N.am      14 UNK        -0.5000 
     80 CA         -1.5929  -26.8564  -48.5369 C.3       14 UNK         0.1400 
     81 CB         -1.3764  -25.7668  -49.6006 C.3       14 UNK        -0.1800 
     82 C          -3.0796  -27.2710  -48.4814 C.2       14 UNK         0.5000 
     83 O          -3.5937  -27.7635  -49.4862 O.2       14 UNK        -0.5000 
     84 N          -3.7446  -27.0587  -47.3340 N.am      15 UNK        -0.5000 
     85 CA         -5.1713  -27.2790  -47.0753 C.3       15 UNK         0.1400 
     86 CB         -5.5287  -28.7779  -47.1549 C.3       15 UNK        -0.1800 
     87 C          -6.0585  -26.3869  -47.9665 C.2       15 UNK         0.5000 
     88 O          -6.9957  -26.8691  -48.6056 O.2       15 UNK        -0.5000 
     89 N          -5.7034  -25.0963  -48.0213 N.am      16 UNK        -0.5000 
     90 CA         -6.2746  -23.9974  -48.8058 C.3       16 UNK         0.1400 
     91 CB         -7.7791  -23.8068  -48.5374 C.3       16 UNK        -0.1800 
     92 C          -5.9791  -24.0859  -50.3124 C.2       16 UNK         0.5000 
     93 O          -5.6860  -23.0566  -50.9192 O.2       16 UNK        -0.5000 
     94 N          -6.0698  -25.2939  -50.8875 N.am      17 UNK        -0.5000 
     95 CA         -5.7957  -25.6450  -52.2872 C.3       17 UNK         0.1400 
     96 CB         -4.2799  -25.5887  -52.5613 C.3       17 UNK        -0.1800 
     97 C          -6.6187  -24.8170  -53.2988 C.2       17 UNK         0.5000 
     98 O          -6.0974  -24.4142  -54.3402 O.2       17 UNK        -0.5000 
     99 N          -7.8899  -24.5626  -52.9483 N.am      18 UNK        -0.5000 
    100 CA        -8.8497  -23.7077  -53.6591 C.3       18 UNK         0.1400 
    101 CB        -9.2313  -24.3211  -55.0233 C.3       18 UNK        -0.1800 
    102 C         -8.3800  -22.2382  -53.7583 C.2       18 UNK         0.5000 
    103 O         -8.5824  -21.5955  -54.7895 O.2       18 UNK        -0.5000 
    104 N         -7.7673  -21.7523  -52.6673 N.am      19 UNK        -0.5000 
    105 CA        -7.1077  -20.4571  -52.4894 C.3       19 UNK         0.1400 
    106 CB        -8.0664  -19.2742  -52.7415 C.3       19 UNK        -0.1800 
    107 C         -5.8157  -20.3857  -53.3223 C.2       19 UNK         0.5000 
    108 O         -5.8201  -19.8602  -54.4379 O.2       19 UNK        -0.5000 
    109 N         -4.7433  -20.9572  -52.7572 N.am      20 UNK        -0.5000 
    110 CA        -3.3863  -21.0153  -53.3060 C.3       20 UNK         0.1400 
    111 CB        -2.4575  -21.6341  -52.2473 C.3       20 UNK        -0.1800 
    112 C         -2.8283  -19.6456  -53.7459 C.2       20 UNK         0.5000 
    113 O         -3.1280  -18.6246  -53.1248 O.2       20 UNK        -0.5000 
    114 N         -2.0024  -19.6562  -54.7992 N.am      21 UNK        -0.5000 
    115 CA        -1.3737  -18.4574  -55.3602 C.3       21 UNK         0.1400 
    116 CB        -0.9902  -18.7391  -56.8217 C.3       21 UNK        -0.1800 
    117 C         -0.1412  -17.9812  -54.5661 C.2       21 UNK         0.5000 
    118 O          0.2366  -16.8160  -54.6921 O.2       21 UNK        -0.5000 
    119 N          0.4706  -18.8869  -53.7886 N.am      22 UNK        -0.5000 
    120 CA         1.7069  -18.6796  -53.0074 C.3       22 UNK         0.1400 
    121 C          2.9922  -18.4672  -53.8692 C.2       22 UNK         0.5000 
    122 N          2.9940  -18.8080  -55.1524 N.am      22 UNK        -0.7600 
    123 O          4.0190  -18.0190  -53.3659 O.2       22 UNK        -0.5000 
    124 C124        1.5612  -17.6108  -51.8860 C.3       23 UNK        -0.0398 
    125 S125        0.2886  -18.0450  -50.6542 S.3       23 UNK        -0.2404 
    126 C126       -0.9717  -16.7710  -50.9677 C.3       23 UNK        -0.0205 
    127 H127       -0.5033  -12.5248  -50.9656 H         1 UNK         0.0600 
    128 H128        0.8441  -13.6049  -50.5971 H         1 UNK         0.0600 
    129 H129        1.1445  -11.8886  -50.8891 H         1 UNK         0.0600 
    130 H130       -1.6614  -11.8331  -49.1741 H         1 UNK         0.3000 
    131 H131       -0.8712  -12.6242  -46.5774 H         1 UNK         0.0600 
    132 H132       -3.0320  -11.8500  -45.8026 H         1 UNK         0.0800 
    133 H133       -3.2340  -10.8022  -47.1823 H         1 UNK         0.0800 
    134 H134       -2.1256  -14.4540  -46.5186 H         1 UNK         0.0800 
    135 H135       -3.7813  -14.8250  -46.1102 H         1 UNK         0.0800 
    136 H136       -1.3767  -14.9308  -48.9882 H         1 UNK         0.1150 
    137 H137       -2.9341  -18.6031  -50.5434 H         1 UNK         0.1150 
    138 H138       -4.7242  -16.8041  -47.0854 H         1 UNK         0.1150 
    139 H139       -5.4438  -18.9704  -47.7381 H         1 UNK         0.0800 
    140 H140       -5.6896  -18.8662  -49.4658 H         1 UNK         0.0800 
    141 H141       -3.2313  -20.2887  -46.6912 H         1 UNK         0.0800 
    142 H142       -2.1633  -19.7634  -47.9617 H         1 UNK         0.0800 
    143 H143       -1.9606  -22.3180  -48.5918 H         1 UNK         0.0600 
    144 H144       -0.3779  -20.6998  -46.9369 H         1 UNK         0.3000 
    145 H145        2.2259  -23.0723  -46.2686 H         1 UNK         0.0600 
    146 H146        2.6834  -22.0614  -48.5070 H         1 UNK         0.0600 
    147 H147        2.0969  -20.5042  -47.9371 H         1 UNK         0.0600 
    148 H148        3.5453  -21.2157  -47.2305 H         1 UNK         0.0600 
    149 H149        1.9019  -20.3732  -45.4511 H         1 UNK         0.3000 
    150 H150        0.0347  -21.0464  -42.4355 H         1 UNK         0.0600 
    151 H151        1.8810  -19.6252  -41.5849 H         1 UNK         0.0600 
    152 H152        2.8257  -19.9294  -43.0394 H         1 UNK         0.0600 
    153 H153        2.4650  -21.2457  -41.9315 H         1 UNK         0.0600 
    154 H154        0.8129  -18.6073  -43.7242 H         1 UNK         0.3000 
    155 H155       -2.0023  -18.2087  -45.8185 H         1 UNK         0.0600 
    156 H156       -1.5397  -16.8982  -43.0953 H         1 UNK         0.0600 
    157 H157       -3.0584  -17.4236  -43.7953 H         1 UNK         0.0600 
    158 H158       -2.2091  -16.0517  -44.4895 H         1 UNK         0.0600 
    159 H159        0.2844  -16.6156  -44.9701 H         1 UNK         0.3000 
    160 H160        2.2623  -17.6594  -47.8210 H         1 UNK         0.0600 
    161 H161        0.7828  -15.8641  -48.6084 H         1 UNK         0.0600 
    162 H162        2.2982  -15.1757  -48.0617 H         1 UNK         0.0600 
    163 H163        0.8611  -15.0477  -47.0535 H         1 UNK         0.0600 
    164 H164        2.9565  -15.8329  -45.8018 H         1 UNK         0.3000 
    165 H165        4.9183  -18.1980  -43.9013 H         1 UNK         0.0600 
    166 H166        6.5638  -16.4771  -44.5840 H         1 UNK         0.0600 
    167 H167        6.1048  -17.4629  -45.9643 H         1 UNK         0.0600 
    168 H168        5.4479  -15.8391  -45.7885 H         1 UNK         0.0600 
    169 H169        3.7942  -15.4220  -43.9068 H         1 UNK         0.3000 
    170 H170        2.4197  -15.8690  -40.7154 H         1 UNK         0.0600 
    171 H171        3.6236  -13.8082  -40.0352 H         1 UNK         0.0600 
    172 H172        4.7176  -15.1810  -39.9950 H         1 UNK         0.0600 
    173 H173        4.8023  -14.0363  -41.3285 H         1 UNK         0.0600 
    174 H174        2.5585  -13.5372  -42.2956 H         1 UNK         0.3000 
    175 H175        0.2933  -14.3618  -44.8699 H         1 UNK         0.0600 
    176 H176       -0.2930  -12.5493  -42.4805 H         1 UNK         0.0600 
    177 H177       -1.2318  -13.9846  -42.8729 H         1 UNK         0.0600 
    178 H178       -1.1857  -12.6485  -43.9987 H         1 UNK         0.0600 
    179 H179        1.2487  -11.8334  -44.2924 H         1 UNK         0.3000 
    180 H180        3.9025  -11.2560  -44.5996 H         1 UNK         0.0600 
    181 H181        5.1879  -11.1258  -46.7515 H         1 UNK         0.0600 
    182 H182        4.3168  -12.5331  -47.3599 H         1 UNK         0.0600 
    183 H183        5.3950  -12.6884  -45.9758 H         1 UNK         0.0600 
    184 H184        2.0227  -11.2445  -46.9148 H         1 UNK         0.3000 
    185 H185        0.6718   -8.1626  -45.9066 H         1 UNK         0.0600 
    186 H186        2.2627   -8.5990  -48.4951 H         1 UNK         0.0600 
    187 H187        0.9623   -7.4284  -48.2673 H         1 UNK         0.0600 
    188 H188        2.4698   -7.2507  -47.3835 H         1 UNK         0.0600 
    189 H189        0.2595   -9.9661  -48.1383 H         1 UNK         0.3000 
    190 H190       -2.0571  -21.9753  -45.0073 H         1 UNK         0.3000 
    191 H191       -4.1135  -23.8519  -44.5194 H         1 UNK         0.0600 
    192 H192       -1.7731  -22.9967  -42.7356 H         1 UNK         0.0600 
    193 H193       -3.2171  -23.8401  -42.1897 H         1 UNK         0.0600 
    194 H194       -3.3461  -22.2107  -42.8354 H         1 UNK         0.0600 
    195 H195       -0.5468  -24.3181  -44.6626 H         1 UNK         0.3000 
    196 H196       -0.5148  -27.0913  -44.0898 H         1 UNK         0.0600 
    197 H197        1.7816  -26.9988  -45.0556 H         1 UNK         0.0600 
    198 H198        1.4945  -25.6377  -43.9816 H         1 UNK         0.0600 
    199 H199        1.4524  -25.4073  -45.7282 H         1 UNK         0.0600 
    200 H200       -0.9485  -25.3681  -47.1758 H         1 UNK         0.3000 
    201 H201       -1.0217  -27.7380  -48.8345 H         1 UNK         0.0600 
    202 H202       -0.3266  -25.4807  -49.6653 H         1 UNK         0.0600 
    203 H203       -1.9556  -24.8692  -49.3810 H         1 UNK         0.0600 
    204 H204       -1.6746  -26.1171  -50.5888 H         1 UNK         0.0600 
    205 H205       -3.2319  -26.6410  -46.5670 H         1 UNK         0.3000 
    206 H206       -5.3485  -26.9556  -46.0487 H         1 UNK         0.0600 
    207 H207       -6.5590  -28.9482  -46.8406 H         1 UNK         0.0600 
    208 H208       -5.4292  -29.1697  -48.1675 H         1 UNK         0.0600 
    209 H209       -4.8880  -29.3700  -46.5015 H         1 UNK         0.0600 
    210 H210       -4.8468  -24.8305  -47.5378 H         1 UNK         0.3000 
    211 H211       -5.7696  -23.1012  -48.4449 H         1 UNK         0.0600 
    212 H212       -8.3731  -24.6419  -48.9089 H         1 UNK         0.0600 
    213 H213       -8.1469  -22.9047  -49.0278 H         1 UNK         0.0600 
    214 H214       -7.9780  -23.7003  -47.4711 H         1 UNK         0.0600 
    215 H215       -6.3523  -26.0611  -50.2846 H         1 UNK         0.3000 
    216 H216       -6.1144  -26.6807  -52.4116 H         1 UNK         0.0600 
    217 H217       -4.0459  -25.9596  -53.5597 H         1 UNK         0.0600 
    218 H218       -3.7315  -26.2064  -51.8511 H         1 UNK         0.0600 
    219 H219       -3.8963  -24.5717  -52.4904 H         1 UNK         0.0600 
    220 H220       -8.2136  -24.9462  -52.0714 H         1 UNK         0.3000 
    221 H221       -9.7529  -23.6917  -53.0474 H         1 UNK         0.0600 
    222 H222       -8.3948  -24.3116  -55.7225 H         1 UNK         0.0600 
    223 H223       -9.5645  -25.3529  -54.9124 H         1 UNK         0.0600 
    224 H224      -10.0482  -23.7658  -55.4858 H         1 UNK         0.0600 
    225 H225       -7.5785  -22.4108  -51.9234 H         1 UNK         0.3000 
    226 H226       -6.8175  -20.4081  -51.4382 H         1 UNK         0.0600 
    227 H227       -8.9608  -19.3536  -52.1237 H         1 UNK         0.0600 
    228 H228       -7.5813  -18.3298  -52.4929 H         1 UNK         0.0600 
    229 H229       -8.3823  -19.2082  -53.7826 H         1 UNK         0.0600 
    230 H230       -4.8810  -21.4429  -51.8767 H         1 UNK         0.3000 
    231 H231       -3.4228  -21.6765  -54.1737 H         1 UNK         0.0600 
    232 H232       -2.3496  -20.9814  -51.3798 H         1 UNK         0.0600 
    233 H233       -2.8337  -22.5930  -51.8927 H         1 UNK         0.0600 
    234 H234       -1.4596  -21.8057  -52.6520 H         1 UNK         0.0600 
    235 H235       -1.8027  -20.5306  -55.2635 H         1 UNK         0.3000 
    236 H236       -2.1012  -17.6425  -55.3541 H         1 UNK         0.0600 
    237 H237       -0.2738  -19.5575  -56.9012 H         1 UNK         0.0600 
    238 H238       -1.8664  -19.0007  -57.4153 H         1 UNK         0.0600 
    239 H239       -0.5380  -17.8606  -57.2841 H         1 UNK         0.0600 
    240 H240        0.0801  -19.8161  -53.7497 H         1 UNK         0.3000 
    241 H241        1.8863  -19.6323  -52.5080 H         1 UNK         0.0600 
    242 H242        3.8318  -18.6781  -55.6979 H         1 UNK         0.3800 
    243 H243        2.1698  -19.1930  -55.5840 H         1 UNK         0.3800 
    244 H244        2.4959  -17.5088  -51.3326 H         1 UNK         0.0800 
    245 H245        1.3613  -16.6263  -52.3099 H         1 UNK         0.0800 
    246 H246       -0.4935  -15.7925  -51.0256 H         1 UNK         0.0800 
    247 H247       -1.4354  -16.9475  -51.9383 H         1 UNK         0.0800 
@<TRIPOS>BOND
     1    1    2 1    
     2    1  127 1    
     3    1  128 1    
     4    1  129 1    
     5    2    3 2    
     6    2    4 am   BACKBONE|DICT|INTERRES
     7    4    5 1    
     8    4  130 1    
     9    5    6 1    
    10    5   65 1    
    11    5  131 1    
    12    6    7 1    
    13    6  132 1    
    14    6  133 1    
    15    7    8 1    
    16    8    9 1    
    17    8  134 1    
    18    8  135 1    
    19    9   10 ar   
    20    9   14 ar   
    21   10   11 ar   
    22   10  136 1    
    23   11   12 ar   
    24   11  126 1    
    25   12   13 ar   
    26   12  137 1    
    27   13   14 ar   
    28   13   15 1    
    29   14  138 1    
    30   15   16 1    
    31   15  139 1    
    32   15  140 1    
    33   16   17 1    
    34   17   18 1    
    35   17  141 1    
    36   17  142 1    
    37   18   19 1    
    38   18   67 1    
    39   18  143 1    
    40   19   20 am   BACKBONE|DICT|INTERRES
    41   19  144 1    
    42   20   21 2    
    43   20   22 1    
    44   22   23 1    
    45   22   24 1    
    46   22  145 1    
    47   23  146 1    
    48   23  147 1    
    49   23  148 1    
    50   24   25 am   BACKBONE|DICT|INTERRES
    51   24  149 1    
    52   25   26 2    
    53   25   27 1    
    54   27   28 1    
    55   27   29 1    
    56   27  150 1    
    57   28  151 1    
    58   28  152 1    
    59   28  153 1    
    60   29   30 am   BACKBONE|DICT|INTERRES
    61   29  154 1    
    62   30   31 2    
    63   30   32 1    
    64   32   33 1    
    65   32   34 1    
    66   32  155 1    
    67   33  156 1    
    68   33  157 1    
    69   33  158 1    
    70   34   35 am   BACKBONE|DICT|INTERRES
    71   34  159 1    
    72   35   36 2    
    73   35   37 1    
    74   37   38 1    
    75   37   39 1    
    76   37  160 1    
    77   38  161 1    
    78   38  162 1    
    79   38  163 1    
    80   39   40 am   BACKBONE|DICT|INTERRES
    81   39  164 1    
    82   40   41 2    
    83   40   42 1    
    84   42   43 1    
    85   42   44 1    
    86   42  165 1    
    87   43  166 1    
    88   43  167 1    
    89   43  168 1    
    90   44   45 am   BACKBONE|DICT|INTERRES
    91   44  169 1    
    92   45   46 2    
    93   45   47 1    
    94   47   48 1    
    95   47   49 1    
    96   47  170 1    
    97   48  171 1    
    98   48  172 1    
    99   48  173 1    
   100   49   50 am   BACKBONE|DICT|INTERRES
   101   49  174 1    
   102   50   51 2    
   103   50   52 1    
   104   52   53 1    
   105   52   54 1    
   106   52  175 1    
   107   53  176 1    
   108   53  177 1    
   109   53  178 1    
   110   54   55 am   BACKBONE|DICT|INTERRES
   111   54  179 1    
   112   55   56 2    
   113   55   57 1    
   114   57   58 1    
   115   57   59 1    
   116   57  180 1    
   117   58  181 1    
   118   58  182 1    
   119   58  183 1    
   120   59   60 am   BACKBONE|DICT|INTERRES
   121   59  184 1    
   122   60   61 2    
   123   60   62 1    
   124   62   63 1    
   125   62   64 1    
   126   62  185 1    
   127   63  186 1    
   128   63  187 1    
   129   63  188 1    
   130   64   65 am   BACKBONE|DICT|INTERRES
   131   64  189 1    
   132   65   66 2    
   133   67   68 2    
   134   67   69 am   BACKBONE|DICT|INTERRES
   135   69   70 1    
   136   69  190 1    
   137   70   71 1    
   138   70   72 1    
   139   70  191 1    
   140   71  192 1    
   141   71  193 1    
   142   71  194 1    
   143   72   73 2    
   144   72   74 am   BACKBONE|DICT|INTERRES
   145   74   75 1    
   146   74  195 1    
   147   75   76 1    
   148   75   77 1    
   149   75  196 1    
   150   76  197 1    
   151   76  198 1    
   152   76  199 1    
   153   77   78 2    
   154   77   79 am   BACKBONE|DICT|INTERRES
   155   79   80 1    
   156   79  200 1    
   157   80   81 1    
   158   80   82 1    
   159   80  201 1    
   160   81  202 1    
   161   81  203 1    
   162   81  204 1    
   163   82   83 2    
   164   82   84 am   BACKBONE|DICT|INTERRES
   165   84   85 1    
   166   84  205 1    
   167   85   86 1    
   168   85   87 1    
   169   85  206 1    
   170   86  207 1    
   171   86  208 1    
   172   86  209 1    
   173   87   88 2    
   174   87   89 am   BACKBONE|DICT|INTERRES
   175   89   90 1    
   176   89  210 1    
   177   90   91 1    
   178   90   92 1    
   179   90  211 1    
   180   91  212 1    
   181   91  213 1    
   182   91  214 1    
   183   92   93 2    
   184   92   94 am   BACKBONE|DICT|INTERRES
   185   94   95 1    
   186   94  215 1    
   187   95   96 1    
   188   95   97 1    
   189   95  216 1    
   190   96  217 1    
   191   96  218 1    
   192   96  219 1    
   193   97   98 2    
   194   97   99 am   BACKBONE|DICT|INTERRES
   195   99  100 1    
   196   99  220 1    
   197  100  101 1    
   198  100  102 1    
   199  100  221 1    
   200  101  222 1    
   201  101  223 1    
   202  101  224 1    
   203  102  103 2    
   204  102  104 am   BACKBONE|DICT|INTERRES
   205  104  105 1    
   206  104  225 1    
   207  105  106 1    
   208  105  107 1    
   209  105  226 1    
   210  106  227 1    
   211  106  228 1    
   212  106  229 1    
   213  107  108 2    
   214  107  109 am   BACKBONE|DICT|INTERRES
   215  109  110 1    
   216  109  230 1    
   217  110  111 1    
   218  110  112 1    
   219  110  231 1    
   220  111  232 1    
   221  111  233 1    
   222  111  234 1    
   223  112  113 2    
   224  112  114 am   BACKBONE|DICT|INTERRES
   225  114  115 1    
   226  114  235 1    
   227  115  116 1    
   228  115  117 1    
   229  115  236 1    
   230  116  237 1    
   231  116  238 1    
   232  116  239 1    
   233  117  118 2    
   234  117  119 am   BACKBONE|DICT|INTERRES
   235  119  120 1    
   236  119  240 1    
   237  120  121 1    
   238  120  124 1    
   239  120  241 1    
   240  121  122 am   BACKBONE|DICT|INTERRES
   241  121  123 2    
   242  122  242 1    
   243  122  243 1    
   244  124  125 1    
   245  124  244 1    
   246  124  245 1    
   247  125  126 1    
   248  126  246 1    
   249  126  247 1    
@<TRIPOS>SUBSTRUCTURE
     1 UNK         1 GROUP             0       ****    0 ROOT    
