@<TRIPOS>MOLECULE
3R540
247   249    1
SMALL
USER_CHARGES


@<TRIPOS>ATOM
      1 CA         -4.5712  -18.0393  -48.4604 C.3       0 UNK        -0.1800 
      2 C          -4.4131  -16.8230  -47.5596 C.2       0 UNK         0.5000 
      3 O          -5.3873  -16.3868  -46.9454 O.2       0 UNK        -0.5000 
      4 N          -3.1965  -16.2715  -47.4745 N.am      1 UNK        -0.5000 
      5 CA         -2.8513  -15.0825  -46.6882 C.3       1 UNK         0.1400 
      6 C6         -1.5829  -14.3817  -47.2387 C.3       23 UNK        -0.0398 
      7 S7         -1.9259  -13.4757  -48.7837 S.3       23 UNK        -0.2404 
      8 C8         -0.7615  -14.2336  -49.9628 C.3       23 UNK        -0.0205 
      9 C9         -1.2041  -15.6061  -50.4534 C.ar      23 UNK        -0.0193 
     10 C10        -2.4814  -15.7927  -50.9937 C.ar      23 UNK        -0.1150 
     11 C11        -2.8767  -17.0429  -51.4780 C.ar      23 UNK        -0.0193 
     12 C12        -1.9740  -18.1072  -51.4426 C.ar      23 UNK        -0.1150 
     13 C13        -0.6898  -17.9299  -50.9212 C.ar      23 UNK        -0.0193 
     14 C14        -0.3133  -16.6822  -50.4172 C.ar      23 UNK        -0.1150 
     15 C15         0.2967  -19.0848  -50.9281 C.3       23 UNK        -0.0205 
     16 S16         0.5418  -19.8020  -49.2743 S.3       23 UNK        -0.2404 
     17 C17        -1.1642  -19.9730  -48.6528 C.3       23 UNK        -0.0398 
     18 CA         -1.3666  -21.1864  -47.7215 C.3       11 UNK         0.1400 
     19 N          -0.4440  -21.1921  -46.5831 N.am      11 UNK        -0.5000 
     20 C          -0.3230  -22.1983  -45.7062 C.2       10 UNK         0.5000 
     21 O          -0.9274  -23.2640  -45.8208 O.2       10 UNK        -0.5000 
     22 CA          0.5492  -21.9570  -44.4566 C.3       10 UNK         0.1400 
     23 CB          1.9317  -22.6038  -44.6196 C.3       10 UNK        -0.1800 
     24 N           0.7011  -20.5408  -44.1073 N.am      10 UNK        -0.5000 
     25 C          -0.3102  -19.7221  -43.7804 C.2       9 UNK         0.5000 
     26 O          -1.4829  -20.0893  -43.7129 O.2       9 UNK        -0.5000 
     27 CA          0.0316  -18.2410  -43.5520 C.3       9 UNK         0.1400 
     28 CB          0.4230  -17.9865  -42.0910 C.3       9 UNK        -0.1800 
     29 N           1.0942  -17.7797  -44.4468 N.am      9 UNK        -0.5000 
     30 C           0.9197  -17.5568  -45.7577 C.2       8 UNK         0.5000 
     31 O          -0.1673  -17.6465  -46.3280 O.2       8 UNK        -0.5000 
     32 CA          2.1790  -17.2274  -46.5798 C.3       8 UNK         0.1400 
     33 CB          2.4685  -15.7198  -46.5754 C.3       8 UNK        -0.1800 
     34 N           3.3613  -17.9525  -46.1096 N.am      8 UNK        -0.5000 
     35 C           3.5445  -19.2698  -46.2813 C.2       7 UNK         0.5000 
     36 O           2.7430  -19.9993  -46.8591 O.2       7 UNK        -0.5000 
     37 CA          4.8179  -19.8941  -45.6823 C.3       7 UNK         0.1400 
     38 CB          5.9682  -19.8493  -46.6991 C.3       7 UNK        -0.1800 
     39 N           5.2565  -19.2725  -44.4329 N.am      7 UNK        -0.5000 
     40 C           4.5399  -19.2114  -43.3028 C.2       6 UNK         0.5000 
     41 O           3.3919  -19.6492  -43.2012 O.2       6 UNK        -0.5000 
     42 CA          5.2037  -18.5422  -42.0797 C.3       6 UNK         0.1400 
     43 CB          6.6174  -17.9792  -42.3536 C.3       6 UNK        -0.1800 
     44 N           4.3608  -17.5012  -41.4845 N.am      6 UNK        -0.5000 
     45 C           3.8470  -16.4298  -42.1033 C.2       5 UNK         0.5000 
     46 O           3.9659  -16.1985  -43.3107 O.2       5 UNK        -0.5000 
     47 CA          3.0825  -15.4459  -41.2070 C.3       5 UNK         0.1400 
     48 CB          4.0435  -14.6502  -40.3062 C.3       5 UNK        -0.1800 
     49 N           2.3336  -14.5180  -42.0463 N.am      5 UNK        -0.5000 
     50 C           1.1391  -13.9954  -41.7546 C.2       4 UNK         0.5000 
     51 O           0.5421  -14.2337  -40.7022 O.2       4 UNK        -0.5000 
     52 CA          0.5248  -13.0401  -42.8024 C.3       4 UNK         0.1400 
     53 CB          0.9685  -13.3518  -44.2451 C.3       4 UNK        -0.1800 
     54 N          -0.9368  -13.0576  -42.7433 N.am      4 UNK        -0.5000 
     55 C          -1.6804  -12.3023  -41.9215 C.2       3 UNK         0.5000 
     56 O          -1.2059  -11.4497  -41.1686 O.2       3 UNK        -0.5000 
     57 CA         -3.2117  -12.4982  -41.9475 C.3       3 UNK         0.1400 
     58 CB         -3.8977  -11.2834  -42.5933 C.3       3 UNK        -0.1800 
     59 N          -3.6443  -13.7027  -42.6562 N.am      3 UNK        -0.5000 
     60 C          -3.5677  -14.9536  -42.1822 C.2       2 UNK         0.5000 
     61 O          -3.1638  -15.2355  -41.0543 O.2       2 UNK        -0.5000 
     62 CA         -4.0173  -16.0819  -43.1352 C.3       2 UNK         0.1400 
     63 CB         -5.4865  -16.4357  -42.8547 C.3       2 UNK        -0.1800 
     64 N          -3.8727  -15.7661  -44.5624 N.am      2 UNK        -0.5000 
     65 C          -2.7391  -15.4105  -45.1824 C.2       1 UNK         0.5000 
     66 O          -1.6616  -15.3013  -44.5981 O.2       1 UNK        -0.5000 
     67 C          -2.8464  -21.2511  -47.2827 C.2       11 UNK         0.5000 
     68 O          -3.6618  -21.8160  -48.0114 O.2       11 UNK        -0.5000 
     69 N          -3.1742  -20.6935  -46.1066 N.am      12 UNK        -0.5000 
     70 CA         -4.5151  -20.7535  -45.5237 C.3       12 UNK         0.1400 
     71 CB         -4.6862  -19.6345  -44.4896 C.3       12 UNK        -0.1800 
     72 C          -4.8119  -22.1301  -44.9081 C.2       12 UNK         0.5000 
     73 O          -5.9457  -22.5983  -45.0046 O.2       12 UNK        -0.5000 
     74 N          -3.7846  -22.7897  -44.3513 N.am      13 UNK        -0.5000 
     75 CA         -3.8523  -24.1844  -43.9002 C.3       13 UNK         0.1400 
     76 CB         -2.6085  -24.5247  -43.0650 C.3       13 UNK        -0.1800 
     77 C          -4.0216  -25.1648  -45.0795 C.2       13 UNK         0.5000 
     78 O          -4.7168  -26.1713  -44.9433 O.2       13 UNK        -0.5000 
     79 N          -3.4401  -24.8107  -46.2341 N.am      14 UNK        -0.5000 
     80 CA         -3.6359  -25.4638  -47.5302 C.3       14 UNK         0.1400 
     81 CB         -2.4274  -25.1507  -48.4289 C.3       14 UNK        -0.1800 
     82 C          -4.9564  -25.0665  -48.2302 C.2       14 UNK         0.5000 
     83 O          -5.1745  -25.4837  -49.3671 O.2       14 UNK        -0.5000 
     84 N          -5.8039  -24.2588  -47.5726 N.am      15 UNK        -0.5000 
     85 CA         -7.1257  -23.8005  -48.0170 C.3       15 UNK         0.1400 
     86 CB         -8.1197  -24.9804  -48.0419 C.3       15 UNK        -0.1800 
     87 C          -7.0960  -23.0118  -49.3439 C.2       15 UNK         0.5000 
     88 O          -8.0155  -23.1363  -50.1543 O.2       15 UNK        -0.5000 
     89 N          -6.0259  -22.2270  -49.5434 N.am      16 UNK        -0.5000 
     90 CA         -5.7205  -21.4093  -50.7227 C.3       16 UNK         0.1400 
     91 CB         -6.8027  -20.3352  -50.9617 C.3       16 UNK        -0.1800 
     92 C          -5.4024  -22.2213  -51.9970 C.2       16 UNK         0.5000 
     93 O          -5.3099  -21.6338  -53.0753 O.2       16 UNK        -0.5000 
     94 N          -5.1851  -23.5391  -51.8691 N.am      17 UNK        -0.5000 
     95 CA         -4.7783  -24.4167  -52.9721 C.3       17 UNK         0.1400 
     96 CB         -5.1651  -25.8647  -52.6338 C.3       17 UNK        -0.1800 
     97 C          -3.2723  -24.3196  -53.2931 C.2       17 UNK         0.5000 
     98 O          -2.8350  -24.8725  -54.3028 O.2       17 UNK        -0.5000 
     99 N          -2.5084  -23.6411  -52.4253 N.am      18 UNK        -0.5000 
    100 CA        -1.0741  -23.3994  -52.5411 C.3       18 UNK         0.1400 
    101 CB        -0.5815  -22.7336  -51.2492 C.3       18 UNK        -0.1800 
    102 C         -0.7228  -22.5564  -53.7824 C.2       18 UNK         0.5000 
    103 O         -0.9791  -21.3483  -53.8099 O.2       18 UNK        -0.5000 
    104 N         -0.1145  -23.2219  -54.7728 N.am      19 UNK        -0.5000 
    105 CA         0.2553  -22.6972  -56.0915 C.3       19 UNK         0.1400 
    106 CB         0.7051  -23.8745  -56.9721 C.3       19 UNK        -0.1800 
    107 C          1.3245  -21.5847  -56.0842 C.2       19 UNK         0.5000 
    108 O          1.5967  -21.0039  -57.1355 O.2       19 UNK        -0.5000 
    109 N          1.9062  -21.2977  -54.9114 N.am      20 UNK        -0.5000 
    110 CA         2.8614  -20.2163  -54.6680 C.3       20 UNK         0.1400 
    111 CB         3.3895  -20.3376  -53.2302 C.3       20 UNK        -0.1800 
    112 C          2.2901  -18.8060  -54.9267 C.2       20 UNK         0.5000 
    113 O          3.0669  -17.8946  -55.2159 O.2       20 UNK        -0.5000 
    114 N          0.9600  -18.6540  -54.8523 N.am      21 UNK        -0.5000 
    115 CA         0.2535  -17.4373  -55.2591 C.3       21 UNK         0.1400 
    116 CB         0.3048  -16.3728  -54.1498 C.3       21 UNK        -0.1800 
    117 C         -1.1967  -17.7005  -55.6988 C.2       21 UNK         0.5000 
    118 O         -1.7098  -16.9209  -56.5034 O.2       21 UNK        -0.5000 
    119 N         -1.8329  -18.7658  -55.1910 N.am      22 UNK        -0.5000 
    120 CA        -3.2219  -19.1320  -55.5042 C.3       22 UNK         0.1400 
    121 C         -3.2597  -20.5497  -56.1390 C.2       22 UNK         0.5000 
    122 N         -3.9709  -21.5221  -55.5823 N.am      22 UNK        -0.7600 
    123 O         -2.6716  -20.7643  -57.1959 O.2       22 UNK        -0.5000 
    124 C124       -4.1664  -18.9290  -54.2897 C.3       23 UNK        -0.0398 
    125 S125       -4.3603  -17.1724  -53.8252 S.3       23 UNK        -0.2404 
    126 C126       -4.2868  -17.2456  -52.0092 C.3       23 UNK        -0.0205 
    127 H127       -3.6335  -18.3151  -48.9396 H         1 UNK         0.0600 
    128 H128       -5.3038  -17.8305  -49.2391 H         1 UNK         0.0600 
    129 H129       -4.9258  -18.8926  -47.8857 H         1 UNK         0.0600 
    130 H130       -2.4269  -16.6825  -47.9833 H         1 UNK         0.3000 
    131 H131       -3.6749  -14.3697  -46.7720 H         1 UNK         0.0600 
    132 H132       -0.7768  -15.1019  -47.3840 H         1 UNK         0.0800 
    133 H133       -1.2063  -13.6408  -46.5319 H         1 UNK         0.0800 
    134 H134        0.2300  -14.2772  -49.5093 H         1 UNK         0.0800 
    135 H135       -0.6715  -13.5770  -50.8289 H         1 UNK         0.0800 
    136 H136       -3.1717  -14.9617  -51.0307 H         1 UNK         0.1150 
    137 H137       -2.2667  -19.0750  -51.8223 H         1 UNK         0.1150 
    138 H138        0.6819  -16.5490  -50.0167 H         1 UNK         0.1150 
    139 H139       -0.0261  -19.8611  -51.6215 H         1 UNK         0.0800 
    140 H140        1.2572  -18.7279  -51.3010 H         1 UNK         0.0800 
    141 H141       -1.8385  -20.0618  -49.5050 H         1 UNK         0.0800 
    142 H142       -1.4285  -19.0446  -48.1452 H         1 UNK         0.0800 
    143 H143       -1.1623  -22.0882  -48.3004 H         1 UNK         0.0600 
    144 H144        0.1196  -20.3620  -46.4556 H         1 UNK         0.3000 
    145 H145        0.0489  -22.4433  -43.6168 H         1 UNK         0.0600 
    146 H146        2.5533  -22.4411  -43.7389 H         1 UNK         0.0600 
    147 H147        1.8401  -23.6816  -44.7596 H         1 UNK         0.0600 
    148 H148        2.4623  -22.2094  -45.4849 H         1 UNK         0.0600 
    149 H149        1.6470  -20.1740  -44.0843 H         1 UNK         0.3000 
    150 H150       -0.8720  -17.6653  -43.7590 H         1 UNK         0.0600 
    151 H151       -0.3461  -18.3558  -41.4114 H         1 UNK         0.0600 
    152 H152        0.5309  -16.9203  -41.9009 H         1 UNK         0.0600 
    153 H153        1.3592  -18.4787  -41.8271 H         1 UNK         0.0600 
    154 H154        2.0287  -17.7247  -44.0657 H         1 UNK         0.3000 
    155 H155        1.9811  -17.5259  -47.6118 H         1 UNK         0.0600 
    156 H156        2.7437  -15.3669  -45.5820 H         1 UNK         0.0600 
    157 H157        1.5975  -15.1502  -46.9003 H         1 UNK         0.0600 
    158 H158        3.2861  -15.4758  -47.2537 H         1 UNK         0.0600 
    159 H159        4.0425  -17.4269  -45.5787 H         1 UNK         0.3000 
    160 H160        4.5978  -20.9412  -45.4657 H         1 UNK         0.0600 
    161 H161        6.2617  -18.8245  -46.9301 H         1 UNK         0.0600 
    162 H162        5.6794  -20.3272  -47.6364 H         1 UNK         0.0600 
    163 H163        6.8469  -20.3754  -46.3255 H         1 UNK         0.0600 
    164 H164        6.1828  -18.8712  -44.4321 H         1 UNK         0.3000 
    165 H165        5.3016  -19.3266  -41.3280 H         1 UNK         0.0600 
    166 H166        6.6071  -17.1938  -43.1107 H         1 UNK         0.0600 
    167 H167        7.0462  -17.5524  -41.4468 H         1 UNK         0.0600 
    168 H168        7.3006  -18.7613  -42.6869 H         1 UNK         0.0600 
    169 H169        4.1731  -17.6173  -40.4987 H         1 UNK         0.3000 
    170 H170        2.3977  -16.0246  -40.5839 H         1 UNK         0.0600 
    171 H171        4.7580  -14.0727  -40.8942 H         1 UNK         0.0600 
    172 H172        3.4989  -13.9557  -39.6663 H         1 UNK         0.0600 
    173 H173        4.6135  -15.3113  -39.6524 H         1 UNK         0.0600 
    174 H174        2.7488  -14.3524  -42.9541 H         1 UNK         0.3000 
    175 H175        0.8793  -12.0359  -42.5619 H         1 UNK         0.0600 
    176 H176        2.0351  -13.1725  -44.3832 H         1 UNK         0.0600 
    177 H177        0.4488  -12.7161  -44.9616 H         1 UNK         0.0600 
    178 H178        0.7671  -14.3895  -44.5111 H         1 UNK         0.0600 
    179 H179       -1.3895  -13.7781  -43.2955 H         1 UNK         0.3000 
    180 H180       -3.5473  -12.5678  -40.9107 H         1 UNK         0.0600 
    181 H181       -4.9833  -11.3782  -42.5592 H         1 UNK         0.0600 
    182 H182       -3.6025  -11.1624  -43.6364 H         1 UNK         0.0600 
    183 H183       -3.6381  -10.3621  -42.0701 H         1 UNK         0.0600 
    184 H184       -4.0006  -13.5717  -43.5911 H         1 UNK         0.3000 
    185 H185       -3.3996  -16.9583  -42.9289 H         1 UNK         0.0600 
    186 H186       -5.8399  -17.2370  -43.5012 H         1 UNK         0.0600 
    187 H187       -5.6180  -16.7680  -41.8241 H         1 UNK         0.0600 
    188 H188       -6.1410  -15.5768  -43.0087 H         1 UNK         0.0600 
    189 H189       -4.7009  -15.8710  -45.1407 H         1 UNK         0.3000 
    190 H190       -2.4494  -20.2867  -45.5251 H         1 UNK         0.3000 
    191 H191       -5.2474  -20.5873  -46.3161 H         1 UNK         0.0600 
    192 H192       -5.7176  -19.5921  -44.1381 H         1 UNK         0.0600 
    193 H193       -4.4454  -18.6635  -44.9215 H         1 UNK         0.0600 
    194 H194       -4.0521  -19.7816  -43.6156 H         1 UNK         0.0600 
    195 H195       -2.8815  -22.3387  -44.3155 H         1 UNK         0.3000 
    196 H196       -4.7281  -24.2871  -43.2558 H         1 UNK         0.0600 
    197 H197       -1.6946  -24.4855  -43.6566 H         1 UNK         0.0600 
    198 H198       -2.4957  -23.8379  -42.2260 H         1 UNK         0.0600 
    199 H199       -2.6843  -25.5315  -42.6527 H         1 UNK         0.0600 
    200 H200       -2.8154  -24.0124  -46.2244 H         1 UNK         0.3000 
    201 H201       -3.6683  -26.5436  -47.3723 H         1 UNK         0.0600 
    202 H202       -2.4721  -25.7169  -49.3601 H         1 UNK         0.0600 
    203 H203       -2.3886  -24.0951  -48.6929 H         1 UNK         0.0600 
    204 H204       -1.4892  -25.4088  -47.9374 H         1 UNK         0.0600 
    205 H205       -5.5323  -23.9360  -46.6529 H         1 UNK         0.3000 
    206 H206       -7.4735  -23.0963  -47.2604 H         1 UNK         0.0600 
    207 H207       -8.1331  -25.5036  -47.0858 H         1 UNK         0.0600 
    208 H208       -9.1357  -24.6340  -48.2342 H         1 UNK         0.0600 
    209 H209       -7.8683  -25.7047  -48.8174 H         1 UNK         0.0600 
    210 H210       -5.2984  -22.2193  -48.8310 H         1 UNK         0.3000 
    211 H211       -4.7967  -20.8825  -50.4795 H         1 UNK         0.0600 
    212 H212       -6.9632  -19.7326  -50.0679 H         1 UNK         0.0600 
    213 H213       -7.7583  -20.7744  -51.2474 H         1 UNK         0.0600 
    214 H214       -6.5151  -19.6554  -51.7637 H         1 UNK         0.0600 
    215 H215       -5.2871  -23.9749  -50.9595 H         1 UNK         0.3000 
    216 H216       -5.3250  -24.1255  -53.8714 H         1 UNK         0.0600 
    217 H217       -5.0023  -26.5207  -53.4897 H         1 UNK         0.0600 
    218 H218       -6.2176  -25.9416  -52.3601 H         1 UNK         0.0600 
    219 H219       -4.5722  -26.2571  -51.8072 H         1 UNK         0.0600 
    220 H220       -2.9709  -23.2198  -51.6354 H         1 UNK         0.3000 
    221 H221       -0.5774  -24.3683  -52.6241 H         1 UNK         0.0600 
    222 H222       -0.6692  -23.4114  -50.4005 H         1 UNK         0.0600 
    223 H223       -1.1574  -21.8373  -51.0223 H         1 UNK         0.0600 
    224 H224        0.4678  -22.4453  -51.3252 H         1 UNK         0.0600 
    225 H225        0.0367  -24.2126  -54.6480 H         1 UNK         0.3000 
    226 H226       -0.6427  -22.2681  -56.5357 H         1 UNK         0.0600 
    227 H227       -0.0799  -24.6264  -57.0563 H         1 UNK         0.0600 
    228 H228        0.9409  -23.5423  -57.9840 H         1 UNK         0.0600 
    229 H229        1.5952  -24.3595  -56.5696 H         1 UNK         0.0600 
    230 H230        1.6188  -21.8338  -54.1068 H         1 UNK         0.3000 
    231 H231        3.7004  -20.3543  -55.3530 H         1 UNK         0.0600 
    232 H232        2.5816  -20.3013  -52.4999 H         1 UNK         0.0600 
    233 H233        4.0834  -19.5292  -52.9958 H         1 UNK         0.0600 
    234 H234        3.9261  -21.2756  -53.0869 H         1 UNK         0.0600 
    235 H235        0.3997  -19.4663  -54.6381 H         1 UNK         0.3000 
    236 H236        0.7628  -17.0320  -56.1364 H         1 UNK         0.0600 
    237 H237        1.3270  -16.1556  -53.8407 H         1 UNK         0.0600 
    238 H238       -0.1382  -15.4361  -54.4897 H         1 UNK         0.0600 
    239 H239       -0.2529  -16.6911  -53.2734 H         1 UNK         0.0600 
    240 H240       -1.3674  -19.4053  -54.5604 H         1 UNK         0.3000 
    241 H241       -3.6048  -18.4887  -56.2982 H         1 UNK         0.0600 
    242 H242       -4.4672  -21.4049  -54.7016 H         1 UNK         0.3800 
    243 H243       -3.9881  -22.4195  -56.0381 H         1 UNK         0.3800 
    244 H244       -3.8063  -19.5062  -53.4390 H         1 UNK         0.0800 
    245 H245       -5.1662  -19.3021  -54.5167 H         1 UNK         0.0800 
    246 H246       -4.6841  -18.1958  -51.6536 H         1 UNK         0.0800 
    247 H247       -4.9479  -16.4767  -51.6068 H         1 UNK         0.0800 
@<TRIPOS>BOND
     1    1    2 1    
     2    1  127 1    
     3    1  128 1    
     4    1  129 1    
     5    2    3 2    
     6    2    4 am   BACKBONE|DICT|INTERRES
     7    4    5 1    
     8    4  130 1    
     9    5    6 1    
    10    5   65 1    
    11    5  131 1    
    12    6    7 1    
    13    6  132 1    
    14    6  133 1    
    15    7    8 1    
    16    8    9 1    
    17    8  134 1    
    18    8  135 1    
    19    9   10 ar   
    20    9   14 ar   
    21   10   11 ar   
    22   10  136 1    
    23   11   12 ar   
    24   11  126 1    
    25   12   13 ar   
    26   12  137 1    
    27   13   14 ar   
    28   13   15 1    
    29   14  138 1    
    30   15   16 1    
    31   15  139 1    
    32   15  140 1    
    33   16   17 1    
    34   17   18 1    
    35   17  141 1    
    36   17  142 1    
    37   18   19 1    
    38   18   67 1    
    39   18  143 1    
    40   19   20 am   BACKBONE|DICT|INTERRES
    41   19  144 1    
    42   20   21 2    
    43   20   22 1    
    44   22   23 1    
    45   22   24 1    
    46   22  145 1    
    47   23  146 1    
    48   23  147 1    
    49   23  148 1    
    50   24   25 am   BACKBONE|DICT|INTERRES
    51   24  149 1    
    52   25   26 2    
    53   25   27 1    
    54   27   28 1    
    55   27   29 1    
    56   27  150 1    
    57   28  151 1    
    58   28  152 1    
    59   28  153 1    
    60   29   30 am   BACKBONE|DICT|INTERRES
    61   29  154 1    
    62   30   31 2    
    63   30   32 1    
    64   32   33 1    
    65   32   34 1    
    66   32  155 1    
    67   33  156 1    
    68   33  157 1    
    69   33  158 1    
    70   34   35 am   BACKBONE|DICT|INTERRES
    71   34  159 1    
    72   35   36 2    
    73   35   37 1    
    74   37   38 1    
    75   37   39 1    
    76   37  160 1    
    77   38  161 1    
    78   38  162 1    
    79   38  163 1    
    80   39   40 am   BACKBONE|DICT|INTERRES
    81   39  164 1    
    82   40   41 2    
    83   40   42 1    
    84   42   43 1    
    85   42   44 1    
    86   42  165 1    
    87   43  166 1    
    88   43  167 1    
    89   43  168 1    
    90   44   45 am   BACKBONE|DICT|INTERRES
    91   44  169 1    
    92   45   46 2    
    93   45   47 1    
    94   47   48 1    
    95   47   49 1    
    96   47  170 1    
    97   48  171 1    
    98   48  172 1    
    99   48  173 1    
   100   49   50 am   BACKBONE|DICT|INTERRES
   101   49  174 1    
   102   50   51 2    
   103   50   52 1    
   104   52   53 1    
   105   52   54 1    
   106   52  175 1    
   107   53  176 1    
   108   53  177 1    
   109   53  178 1    
   110   54   55 am   BACKBONE|DICT|INTERRES
   111   54  179 1    
   112   55   56 2    
   113   55   57 1    
   114   57   58 1    
   115   57   59 1    
   116   57  180 1    
   117   58  181 1    
   118   58  182 1    
   119   58  183 1    
   120   59   60 am   BACKBONE|DICT|INTERRES
   121   59  184 1    
   122   60   61 2    
   123   60   62 1    
   124   62   63 1    
   125   62   64 1    
   126   62  185 1    
   127   63  186 1    
   128   63  187 1    
   129   63  188 1    
   130   64   65 am   BACKBONE|DICT|INTERRES
   131   64  189 1    
   132   65   66 2    
   133   67   68 2    
   134   67   69 am   BACKBONE|DICT|INTERRES
   135   69   70 1    
   136   69  190 1    
   137   70   71 1    
   138   70   72 1    
   139   70  191 1    
   140   71  192 1    
   141   71  193 1    
   142   71  194 1    
   143   72   73 2    
   144   72   74 am   BACKBONE|DICT|INTERRES
   145   74   75 1    
   146   74  195 1    
   147   75   76 1    
   148   75   77 1    
   149   75  196 1    
   150   76  197 1    
   151   76  198 1    
   152   76  199 1    
   153   77   78 2    
   154   77   79 am   BACKBONE|DICT|INTERRES
   155   79   80 1    
   156   79  200 1    
   157   80   81 1    
   158   80   82 1    
   159   80  201 1    
   160   81  202 1    
   161   81  203 1    
   162   81  204 1    
   163   82   83 2    
   164   82   84 am   BACKBONE|DICT|INTERRES
   165   84   85 1    
   166   84  205 1    
   167   85   86 1    
   168   85   87 1    
   169   85  206 1    
   170   86  207 1    
   171   86  208 1    
   172   86  209 1    
   173   87   88 2    
   174   87   89 am   BACKBONE|DICT|INTERRES
   175   89   90 1    
   176   89  210 1    
   177   90   91 1    
   178   90   92 1    
   179   90  211 1    
   180   91  212 1    
   181   91  213 1    
   182   91  214 1    
   183   92   93 2    
   184   92   94 am   BACKBONE|DICT|INTERRES
   185   94   95 1    
   186   94  215 1    
   187   95   96 1    
   188   95   97 1    
   189   95  216 1    
   190   96  217 1    
   191   96  218 1    
   192   96  219 1    
   193   97   98 2    
   194   97   99 am   BACKBONE|DICT|INTERRES
   195   99  100 1    
   196   99  220 1    
   197  100  101 1    
   198  100  102 1    
   199  100  221 1    
   200  101  222 1    
   201  101  223 1    
   202  101  224 1    
   203  102  103 2    
   204  102  104 am   BACKBONE|DICT|INTERRES
   205  104  105 1    
   206  104  225 1    
   207  105  106 1    
   208  105  107 1    
   209  105  226 1    
   210  106  227 1    
   211  106  228 1    
   212  106  229 1    
   213  107  108 2    
   214  107  109 am   BACKBONE|DICT|INTERRES
   215  109  110 1    
   216  109  230 1    
   217  110  111 1    
   218  110  112 1    
   219  110  231 1    
   220  111  232 1    
   221  111  233 1    
   222  111  234 1    
   223  112  113 2    
   224  112  114 am   BACKBONE|DICT|INTERRES
   225  114  115 1    
   226  114  235 1    
   227  115  116 1    
   228  115  117 1    
   229  115  236 1    
   230  116  237 1    
   231  116  238 1    
   232  116  239 1    
   233  117  118 2    
   234  117  119 am   BACKBONE|DICT|INTERRES
   235  119  120 1    
   236  119  240 1    
   237  120  121 1    
   238  120  124 1    
   239  120  241 1    
   240  121  122 am   BACKBONE|DICT|INTERRES
   241  121  123 2    
   242  122  242 1    
   243  122  243 1    
   244  124  125 1    
   245  124  244 1    
   246  124  245 1    
   247  125  126 1    
   248  126  246 1    
   249  126  247 1    
@<TRIPOS>SUBSTRUCTURE
     1 UNK         1 GROUP             0       ****    0 ROOT    
