@<TRIPOS>MOLECULE
3R540
247   249    1
SMALL
USER_CHARGES


@<TRIPOS>ATOM
      1 CA         -0.4998   -7.9649  -51.1483 C.3       0 UNK        -0.1800 
      2 C           0.4807   -9.1285  -51.0995 C.2       0 UNK         0.5000 
      3 O           1.5591   -9.0461  -51.6884 O.2       0 UNK        -0.5000 
      4 N           0.1068  -10.2124  -50.4092 N.am      1 UNK        -0.5000 
      5 CA          0.9277  -11.4121  -50.2098 C.3       1 UNK         0.1400 
      6 C6          0.0975  -12.5997  -49.6607 C.3       23 UNK        -0.0398 
      7 S7         -1.2992  -13.0242  -50.7578 S.3       23 UNK        -0.2404 
      8 C8         -0.7198  -14.5704  -51.5307 C.3       23 UNK        -0.0205 
      9 C9         -0.8340  -15.7870  -50.6171 C.ar      23 UNK        -0.0193 
     10 C10        -2.0113  -16.0434  -49.9077 C.ar      23 UNK        -0.1150 
     11 C11        -2.1232  -17.1720  -49.0907 C.ar      23 UNK        -0.0193 
     12 C12        -1.0478  -18.0631  -49.0076 C.ar      23 UNK        -0.1150 
     13 C13         0.1439  -17.8223  -49.7035 C.ar      23 UNK        -0.0193 
     14 C14         0.2375  -16.6777  -50.5028 C.ar      23 UNK        -0.1150 
     15 C15         1.3694  -18.7323  -49.5774 C.3       23 UNK        -0.0205 
     16 S16         1.0170  -20.5186  -49.4208 S.3       23 UNK        -0.2404 
     17 C17         1.0262  -20.7252  -47.6069 C.3       23 UNK        -0.0398 
     18 CA          0.5344  -22.0870  -47.0452 C.3       11 UNK         0.1400 
     19 N           0.4200  -22.0181  -45.5857 N.am      11 UNK        -0.5000 
     20 C           0.1362  -23.0303  -44.7566 C.2       10 UNK         0.5000 
     21 O          -0.0181  -24.1927  -45.1224 O.2       10 UNK        -0.5000 
     22 CA         -0.0560  -22.6766  -43.2701 C.3       10 UNK         0.1400 
     23 CB          1.2969  -22.5639  -42.5525 C.3       10 UNK        -0.1800 
     24 N          -0.8257  -21.4460  -43.0769 N.am      10 UNK        -0.5000 
     25 C          -2.1023  -21.2859  -43.4568 C.2       9 UNK         0.5000 
     26 O          -2.7793  -22.1765  -43.9715 O.2       9 UNK        -0.5000 
     27 CA         -2.7093  -19.8817  -43.2810 C.3       9 UNK         0.1400 
     28 CB         -3.1217  -19.6390  -41.8217 C.3       9 UNK        -0.1800 
     29 N          -1.8038  -18.8207  -43.7252 N.am      9 UNK        -0.5000 
     30 C          -1.3790  -18.6753  -44.9889 C.2       8 UNK         0.5000 
     31 O          -1.7559  -19.3899  -45.9180 O.2       8 UNK        -0.5000 
     32 CA         -0.3052  -17.6005  -45.2442 C.3       8 UNK         0.1400 
     33 CB         -0.9158  -16.1934  -45.3112 C.3       8 UNK        -0.1800 
     34 N           0.7362  -17.6157  -44.2219 N.am      8 UNK        -0.5000 
     35 C           1.5870  -18.6211  -43.9880 C.2       7 UNK         0.5000 
     36 O           1.6251  -19.6525  -44.6543 O.2       7 UNK        -0.5000 
     37 CA          2.5216  -18.4649  -42.7773 C.3       7 UNK         0.1400 
     38 CB          3.7678  -17.6443  -43.1429 C.3       7 UNK        -0.1800 
     39 N           1.8430  -17.8483  -41.6374 N.am      7 UNK        -0.5000 
     40 C           0.8840  -18.4421  -40.9143 C.2       6 UNK         0.5000 
     41 O           0.4866  -19.5896  -41.1175 O.2       6 UNK        -0.5000 
     42 CA          0.2424  -17.5977  -39.7975 C.3       6 UNK         0.1400 
     43 CB          1.1146  -17.6179  -38.5334 C.3       6 UNK        -0.1800 
     44 N           0.0059  -16.2101  -40.2028 N.am      6 UNK        -0.5000 
     45 C          -0.9086  -15.8398  -41.1097 C.2       5 UNK         0.5000 
     46 O          -1.6556  -16.6302  -41.6869 O.2       5 UNK        -0.5000 
     47 CA         -0.9671  -14.3401  -41.4681 C.3       5 UNK         0.1400 
     48 CB         -1.7918  -13.5693  -40.4262 C.3       5 UNK        -0.1800 
     49 N           0.3396  -13.6873  -41.6349 N.am      5 UNK        -0.5000 
     50 C           1.3144  -14.1205  -42.4450 C.2       4 UNK         0.5000 
     51 O           1.2697  -15.1976  -43.0378 O.2       4 UNK        -0.5000 
     52 CA          2.5621  -13.2309  -42.6026 C.3       4 UNK         0.1400 
     53 CB          3.4902  -13.3945  -41.3889 C.3       4 UNK        -0.1800 
     54 N           3.3046  -13.5961  -43.8124 N.am      4 UNK        -0.5000 
     55 C           2.8785  -13.3715  -45.0622 C.2       3 UNK         0.5000 
     56 O           1.9088  -12.6625  -45.3428 O.2       3 UNK        -0.5000 
     57 CA          3.6315  -14.1185  -46.1792 C.3       3 UNK         0.1400 
     58 CB          2.8926  -15.4173  -46.5462 C.3       3 UNK        -0.1800 
     59 N           3.7737  -13.3051  -47.3841 N.am      3 UNK        -0.5000 
     60 C           4.5625  -12.2284  -47.4948 C.2       2 UNK         0.5000 
     61 O           5.3059  -11.8305  -46.5967 O.2       2 UNK        -0.5000 
     62 CA          4.5325  -11.4777  -48.8411 C.3       2 UNK         0.1400 
     63 CB          5.7190  -11.9052  -49.7192 C.3       2 UNK        -0.1800 
     64 N           3.2899  -11.6746  -49.5945 N.am      2 UNK        -0.5000 
     65 C           2.1198  -11.1034  -49.2796 C.2       1 UNK         0.5000 
     66 O           1.9593  -10.3682  -48.3020 O.2       1 UNK        -0.5000 
     67 C          -0.7721  -22.6043  -47.6892 C.2       11 UNK         0.5000 
     68 O          -0.7265  -23.5613  -48.4653 O.2       11 UNK        -0.5000 
     69 N          -1.9143  -22.0125  -47.3065 N.am      12 UNK        -0.5000 
     70 CA         -3.2457  -22.4424  -47.7388 C.3       12 UNK         0.1400 
     71 CB         -4.3067  -21.4548  -47.2350 C.3       12 UNK        -0.1800 
     72 C          -3.5888  -23.8782  -47.3043 C.2       12 UNK         0.5000 
     73 O          -4.1039  -24.6471  -48.1179 O.2       12 UNK        -0.5000 
     74 N          -3.2762  -24.2189  -46.0464 N.am      13 UNK        -0.5000 
     75 CA         -3.4896  -25.5456  -45.4678 C.3       13 UNK         0.1400 
     76 CB         -3.2389  -25.4951  -43.9533 C.3       13 UNK        -0.1800 
     77 C          -2.6296  -26.6383  -46.1285 C.2       13 UNK         0.5000 
     78 O          -3.1454  -27.7197  -46.4111 O.2       13 UNK        -0.5000 
     79 N          -1.3495  -26.3336  -46.3840 N.am      14 UNK        -0.5000 
     80 CA         -0.3898  -27.2245  -47.0392 C.3       14 UNK         0.1400 
     81 CB          1.0233  -26.6314  -46.9322 C.3       14 UNK        -0.1800 
     82 C          -0.7453  -27.5081  -48.5081 C.2       14 UNK         0.5000 
     83 O          -0.6054  -28.6467  -48.9569 O.2       14 UNK        -0.5000 
     84 N          -1.2197  -26.4781  -49.2220 N.am      15 UNK        -0.5000 
     85 CA         -1.7195  -26.5924  -50.5929 C.3       15 UNK         0.1400 
     86 CB         -1.8451  -25.1850  -51.1928 C.3       15 UNK        -0.1800 
     87 C          -3.0764  -27.3180  -50.6800 C.2       15 UNK         0.5000 
     88 O          -3.3724  -27.9135  -51.7161 O.2       15 UNK        -0.5000 
     89 N          -3.8667  -27.2333  -49.5981 N.am      16 UNK        -0.5000 
     90 CA         -5.2841  -27.5921  -49.4922 C.3       16 UNK         0.1400 
     91 CB         -5.5106  -29.1018  -49.7176 C.3       16 UNK        -0.1800 
     92 C          -6.1411  -26.6860  -50.4008 C.2       16 UNK         0.5000 
     93 O          -6.9733  -27.1760  -51.1671 O.2       16 UNK        -0.5000 
     94 N          -5.8796  -25.3736  -50.2920 N.am      17 UNK        -0.5000 
     95 CA         -6.3508  -24.2701  -51.1361 C.3       17 UNK         0.1400 
     96 CB         -7.8913  -24.1865  -51.1506 C.3       17 UNK        -0.1800 
     97 C          -5.7543  -24.2976  -52.5610 C.2       17 UNK         0.5000 
     98 O          -5.0762  -25.2510  -52.9473 O.2       17 UNK        -0.5000 
     99 N          -5.9858  -23.2038  -53.3000 N.am      18 UNK        -0.5000 
    100 CA        -5.3956  -22.8672  -54.6030 C.3       18 UNK         0.1400 
    101 CB        -5.8342  -23.8636  -55.6968 C.3       18 UNK        -0.1800 
    102 C         -3.8648  -22.6840  -54.5124 C.2       18 UNK         0.5000 
    103 O         -3.1300  -23.0939  -55.4127 O.2       18 UNK        -0.5000 
    104 N         -3.4164  -22.0825  -53.4021 N.am      19 UNK        -0.5000 
    105 CA        -2.0065  -21.8824  -53.0708 C.3       19 UNK         0.1400 
    106 CB        -1.8943  -21.5859  -51.5689 C.3       19 UNK        -0.1800 
    107 C         -1.3612  -20.7456  -53.8811 C.2       19 UNK         0.5000 
    108 O         -0.1988  -20.8534  -54.2724 O.2       19 UNK        -0.5000 
    109 N         -2.1384  -19.6822  -54.1062 N.am      20 UNK        -0.5000 
    110 CA        -1.7717  -18.4453  -54.7854 C.3       20 UNK         0.1400 
    111 CB        -0.6765  -17.6862  -53.9989 C.3       20 UNK        -0.1800 
    112 C         -3.0831  -17.6619  -54.9442 C.2       20 UNK         0.5000 
    113 O         -3.9799  -18.1373  -55.6425 O.2       20 UNK        -0.5000 
    114 N         -3.2118  -16.5249  -54.2456 N.am      21 UNK        -0.5000 
    115 CA        -4.4683  -15.7864  -54.0854 C.3       21 UNK         0.1400 
    116 CB        -4.1798  -14.4271  -53.4296 C.3       21 UNK        -0.1800 
    117 C         -5.5006  -16.5760  -53.2555 C.2       21 UNK         0.5000 
    118 O         -6.7002  -16.4871  -53.5226 O.2       21 UNK        -0.5000 
    119 N         -5.0065  -17.3595  -52.2876 N.am      22 UNK        -0.5000 
    120 CA        -5.7786  -18.3040  -51.4708 C.3       22 UNK         0.1400 
    121 C         -6.1296  -19.5868  -52.2713 C.2       22 UNK         0.5000 
    122 N         -7.0223  -19.4877  -53.2463 N.am      22 UNK        -0.7600 
    123 O         -5.5876  -20.6620  -52.0277 O.2       22 UNK        -0.5000 
    124 C124       -5.0660  -18.6148  -50.1308 C.3       23 UNK        -0.0398 
    125 S125       -4.9456  -17.1260  -49.0898 S.3       23 UNK        -0.2404 
    126 C126       -3.3644  -17.3968  -48.2309 C.3       23 UNK        -0.0205 
    127 H127       -0.7708   -7.7453  -52.1810 H         1 UNK         0.0600 
    128 H128       -0.0454   -7.0732  -50.7166 H         1 UNK         0.0600 
    129 H129       -1.4145   -8.1819  -50.5958 H         1 UNK         0.0600 
    130 H130       -0.7881  -10.2179  -49.9418 H         1 UNK         0.3000 
    131 H131        1.3245  -11.7029  -51.1852 H         1 UNK         0.0600 
    132 H132       -0.3075  -12.3615  -48.6753 H         1 UNK         0.0800 
    133 H133        0.7257  -13.4815  -49.5224 H         1 UNK         0.0800 
    134 H134       -1.3147  -14.7537  -52.4246 H         1 UNK         0.0800 
    135 H135        0.3067  -14.4325  -51.8739 H         1 UNK         0.0800 
    136 H136       -2.8381  -15.3508  -49.9770 H         1 UNK         0.1150 
    137 H137       -1.1389  -18.9339  -48.3784 H         1 UNK         0.1150 
    138 H138        1.1525  -16.4797  -51.0434 H         1 UNK         0.1150 
    139 H139        2.0006  -18.6107  -50.4590 H         1 UNK         0.0800 
    140 H140        1.9696  -18.3986  -48.7298 H         1 UNK         0.0800 
    141 H141        0.4356  -19.9199  -47.1793 H         1 UNK         0.0800 
    142 H142        2.0455  -20.5478  -47.2611 H         1 UNK         0.0800 
    143 H143        1.3046  -22.8284  -47.2673 H         1 UNK         0.0600 
    144 H144        0.6026  -21.1060  -45.1745 H         1 UNK         0.3000 
    145 H145       -0.6151  -23.4914  -42.8062 H         1 UNK         0.0600 
    146 H146        1.1632  -22.3806  -41.4862 H         1 UNK         0.0600 
    147 H147        1.8702  -23.4861  -42.6551 H         1 UNK         0.0600 
    148 H148        1.9035  -21.7540  -42.9570 H         1 UNK         0.0600 
    149 H149       -0.3485  -20.6759  -42.6195 H         1 UNK         0.3000 
    150 H150       -3.6082  -19.8313  -43.8990 H         1 UNK         0.0600 
    151 H151       -3.8038  -20.4159  -41.4741 H         1 UNK         0.0600 
    152 H152       -3.6343  -18.6833  -41.7122 H         1 UNK         0.0600 
    153 H153       -2.2605  -19.6338  -41.1533 H         1 UNK         0.0600 
    154 H154       -1.4844  -18.1666  -43.0182 H         1 UNK         0.3000 
    155 H155        0.1687  -17.8076  -46.2050 H         1 UNK         0.0600 
    156 H156       -1.4596  -15.9438  -44.3999 H         1 UNK         0.0600 
    157 H157       -1.6075  -16.1050  -46.1454 H         1 UNK         0.0600 
    158 H158       -0.1458  -15.4354  -45.4563 H         1 UNK         0.0600 
    159 H159        0.8248  -16.7722  -43.6561 H         1 UNK         0.3000 
    160 H160        2.8497  -19.4631  -42.4802 H         1 UNK         0.0600 
    161 H161        3.5153  -16.6177  -43.4061 H         1 UNK         0.0600 
    162 H162        4.2878  -18.0834  -43.9953 H         1 UNK         0.0600 
    163 H163        4.4738  -17.6118  -42.3130 H         1 UNK         0.0600 
    164 H164        2.0532  -16.8780  -41.4564 H         1 UNK         0.3000 
    165 H165       -0.7208  -18.0505  -39.5521 H         1 UNK         0.0600 
    166 H166        0.6297  -17.0902  -37.7119 H         1 UNK         0.0600 
    167 H167        1.2941  -18.6410  -38.2001 H         1 UNK         0.0600 
    168 H168        2.0863  -17.1530  -38.7046 H         1 UNK         0.0600 
    169 H169        0.5878  -15.4999  -39.7835 H         1 UNK         0.3000 
    170 H170       -1.4836  -14.2631  -42.4269 H         1 UNK         0.0600 
    171 H171       -2.7754  -14.0220  -40.2929 H         1 UNK         0.0600 
    172 H172       -1.3010  -13.5575  -39.4523 H         1 UNK         0.0600 
    173 H173       -1.9516  -12.5360  -40.7347 H         1 UNK         0.0600 
    174 H174        0.4593  -12.8040  -41.1605 H         1 UNK         0.3000 
    175 H175        2.2462  -12.1886  -42.6791 H         1 UNK         0.0600 
    176 H176        3.8189  -14.4279  -41.2687 H         1 UNK         0.0600 
    177 H177        4.3783  -12.7696  -41.4855 H         1 UNK         0.0600 
    178 H178        2.9881  -13.1004  -40.4664 H         1 UNK         0.0600 
    179 H179        4.0952  -14.2074  -43.6744 H         1 UNK         0.3000 
    180 H180        4.6303  -14.3776  -45.8213 H         1 UNK         0.0600 
    181 H181        1.9009  -15.2159  -46.9534 H         1 UNK         0.0600 
    182 H182        2.7606  -16.0541  -45.6714 H         1 UNK         0.0600 
    183 H183        3.4479  -15.9942  -47.2858 H         1 UNK         0.0600 
    184 H184        3.1791  -13.5421  -48.1626 H         1 UNK         0.3000 
    185 H185        4.6392  -10.4126  -48.6238 H         1 UNK         0.0600 
    186 H186        6.6659  -11.7450  -49.2017 H         1 UNK         0.0600 
    187 H187        5.6646  -12.9620  -49.9837 H         1 UNK         0.0600 
    188 H188        5.7546  -11.3279  -50.6433 H         1 UNK         0.0600 
    189 H189        3.3530  -12.2549  -50.4189 H         1 UNK         0.3000 
    190 H190       -1.8712  -21.2219  -46.6697 H         1 UNK         0.3000 
    191 H191       -3.2637  -22.4219  -48.8290 H         1 UNK         0.0600 
    192 H192       -4.1625  -20.4713  -47.6758 H         1 UNK         0.0600 
    193 H193       -5.3106  -21.7840  -47.5064 H         1 UNK         0.0600 
    194 H194       -4.2761  -21.3451  -46.1506 H         1 UNK         0.0600 
    195 H195       -2.8917  -23.5099  -45.4286 H         1 UNK         0.3000 
    196 H196       -4.5371  -25.8101  -45.6264 H         1 UNK         0.0600 
    197 H197       -3.4183  -26.4681  -43.4945 H         1 UNK         0.0600 
    198 H198       -3.9022  -24.7790  -43.4680 H         1 UNK         0.0600 
    199 H199       -2.2126  -25.2077  -43.7243 H         1 UNK         0.0600 
    200 H200       -0.9858  -25.4366  -46.0678 H         1 UNK         0.3000 
    201 H201       -0.3994  -28.1772  -46.5057 H         1 UNK         0.0600 
    202 H202        1.3260  -26.5219  -45.8907 H         1 UNK         0.0600 
    203 H203        1.0831  -25.6491  -47.4029 H         1 UNK         0.0600 
    204 H204        1.7573  -27.2756  -47.4177 H         1 UNK         0.0600 
    205 H205       -1.2472  -25.5555  -48.7991 H         1 UNK         0.3000 
    206 H206       -0.9942  -27.1563  -51.1831 H         1 UNK         0.0600 
    207 H207       -0.8928  -24.6548  -51.1712 H         1 UNK         0.0600 
    208 H208       -2.1746  -25.2277  -52.2319 H         1 UNK         0.0600 
    209 H209       -2.5755  -24.5910  -50.6431 H         1 UNK         0.0600 
    210 H210       -3.5091  -26.7005  -48.8156 H         1 UNK         0.3000 
    211 H211       -5.5776  -27.3673  -48.4657 H         1 UNK         0.0600 
    212 H212       -5.3097  -29.3987  -50.7470 H         1 UNK         0.0600 
    213 H213       -6.5434  -29.3741  -49.4979 H         1 UNK         0.0600 
    214 H214       -4.8714  -29.6964  -49.0649 H         1 UNK         0.0600 
    215 H215       -5.1775  -25.1092  -49.6049 H         1 UNK         0.3000 
    216 H216       -5.9735  -23.3635  -50.6597 H         1 UNK         0.0600 
    217 H217       -8.2297  -23.2521  -51.5992 H         1 UNK         0.0600 
    218 H218       -8.2981  -24.2228  -50.1400 H         1 UNK         0.0600 
    219 H219       -8.3388  -24.9993  -51.7229 H         1 UNK         0.0600 
    220 H220       -6.4622  -22.4349  -52.8449 H         1 UNK         0.3000 
    221 H221       -5.7963  -21.8901  -54.8753 H         1 UNK         0.0600 
    222 H222       -5.4060  -24.8542  -55.5426 H         1 UNK         0.0600 
    223 H223       -6.9189  -23.9670  -55.7235 H         1 UNK         0.0600 
    224 H224       -5.5166  -23.5228  -56.6828 H         1 UNK         0.0600 
    225 H225       -4.1019  -21.7398  -52.7356 H         1 UNK         0.3000 
    226 H226       -1.4660  -22.8075  -53.2822 H         1 UNK         0.0600 
    227 H227       -2.4162  -22.3327  -50.9755 H         1 UNK         0.0600 
    228 H228       -0.8510  -21.6005  -51.2594 H         1 UNK         0.0600 
    229 H229       -2.3050  -20.6094  -51.3091 H         1 UNK         0.0600 
    230 H230       -3.1030  -19.7325  -53.8089 H         1 UNK         0.3000 
    231 H231       -1.4010  -18.6820  -55.7844 H         1 UNK         0.0600 
    232 H232       -0.9644  -17.5295  -52.9596 H         1 UNK         0.0600 
    233 H233       -0.4647  -16.7141  -54.4460 H         1 UNK         0.0600 
    234 H234        0.2636  -18.2371  -53.9948 H         1 UNK         0.0600 
    235 H235       -2.4231  -16.2014  -53.7069 H         1 UNK         0.3000 
    236 H236       -4.8931  -15.6105  -55.0759 H         1 UNK         0.0600 
    237 H237       -3.4587  -13.8510  -54.0096 H         1 UNK         0.0600 
    238 H238       -5.0899  -13.8302  -53.3586 H         1 UNK         0.0600 
    239 H239       -3.7863  -14.5409  -52.4187 H         1 UNK         0.0600 
    240 H240       -4.0102  -17.3585  -52.1349 H         1 UNK         0.3000 
    241 H241       -6.7332  -17.8368  -51.2197 H         1 UNK         0.0600 
    242 H242       -7.4008  -18.5786  -53.4794 H         1 UNK         0.3800 
    243 H243       -7.2859  -20.2899  -53.7922 H         1 UNK         0.3800 
    244 H244       -5.6167  -19.3697  -49.5669 H         1 UNK         0.0800 
    245 H245       -4.0716  -19.0269  -50.3101 H         1 UNK         0.0800 
    246 H246       -3.3598  -18.3954  -47.7981 H         1 UNK         0.0800 
    247 H247       -3.3321  -16.7045  -47.3917 H         1 UNK         0.0800 
@<TRIPOS>BOND
     1    1    2 1    
     2    1  127 1    
     3    1  128 1    
     4    1  129 1    
     5    2    3 2    
     6    2    4 am   BACKBONE|DICT|INTERRES
     7    4    5 1    
     8    4  130 1    
     9    5    6 1    
    10    5   65 1    
    11    5  131 1    
    12    6    7 1    
    13    6  132 1    
    14    6  133 1    
    15    7    8 1    
    16    8    9 1    
    17    8  134 1    
    18    8  135 1    
    19    9   10 ar   
    20    9   14 ar   
    21   10   11 ar   
    22   10  136 1    
    23   11   12 ar   
    24   11  126 1    
    25   12   13 ar   
    26   12  137 1    
    27   13   14 ar   
    28   13   15 1    
    29   14  138 1    
    30   15   16 1    
    31   15  139 1    
    32   15  140 1    
    33   16   17 1    
    34   17   18 1    
    35   17  141 1    
    36   17  142 1    
    37   18   19 1    
    38   18   67 1    
    39   18  143 1    
    40   19   20 am   BACKBONE|DICT|INTERRES
    41   19  144 1    
    42   20   21 2    
    43   20   22 1    
    44   22   23 1    
    45   22   24 1    
    46   22  145 1    
    47   23  146 1    
    48   23  147 1    
    49   23  148 1    
    50   24   25 am   BACKBONE|DICT|INTERRES
    51   24  149 1    
    52   25   26 2    
    53   25   27 1    
    54   27   28 1    
    55   27   29 1    
    56   27  150 1    
    57   28  151 1    
    58   28  152 1    
    59   28  153 1    
    60   29   30 am   BACKBONE|DICT|INTERRES
    61   29  154 1    
    62   30   31 2    
    63   30   32 1    
    64   32   33 1    
    65   32   34 1    
    66   32  155 1    
    67   33  156 1    
    68   33  157 1    
    69   33  158 1    
    70   34   35 am   BACKBONE|DICT|INTERRES
    71   34  159 1    
    72   35   36 2    
    73   35   37 1    
    74   37   38 1    
    75   37   39 1    
    76   37  160 1    
    77   38  161 1    
    78   38  162 1    
    79   38  163 1    
    80   39   40 am   BACKBONE|DICT|INTERRES
    81   39  164 1    
    82   40   41 2    
    83   40   42 1    
    84   42   43 1    
    85   42   44 1    
    86   42  165 1    
    87   43  166 1    
    88   43  167 1    
    89   43  168 1    
    90   44   45 am   BACKBONE|DICT|INTERRES
    91   44  169 1    
    92   45   46 2    
    93   45   47 1    
    94   47   48 1    
    95   47   49 1    
    96   47  170 1    
    97   48  171 1    
    98   48  172 1    
    99   48  173 1    
   100   49   50 am   BACKBONE|DICT|INTERRES
   101   49  174 1    
   102   50   51 2    
   103   50   52 1    
   104   52   53 1    
   105   52   54 1    
   106   52  175 1    
   107   53  176 1    
   108   53  177 1    
   109   53  178 1    
   110   54   55 am   BACKBONE|DICT|INTERRES
   111   54  179 1    
   112   55   56 2    
   113   55   57 1    
   114   57   58 1    
   115   57   59 1    
   116   57  180 1    
   117   58  181 1    
   118   58  182 1    
   119   58  183 1    
   120   59   60 am   BACKBONE|DICT|INTERRES
   121   59  184 1    
   122   60   61 2    
   123   60   62 1    
   124   62   63 1    
   125   62   64 1    
   126   62  185 1    
   127   63  186 1    
   128   63  187 1    
   129   63  188 1    
   130   64   65 am   BACKBONE|DICT|INTERRES
   131   64  189 1    
   132   65   66 2    
   133   67   68 2    
   134   67   69 am   BACKBONE|DICT|INTERRES
   135   69   70 1    
   136   69  190 1    
   137   70   71 1    
   138   70   72 1    
   139   70  191 1    
   140   71  192 1    
   141   71  193 1    
   142   71  194 1    
   143   72   73 2    
   144   72   74 am   BACKBONE|DICT|INTERRES
   145   74   75 1    
   146   74  195 1    
   147   75   76 1    
   148   75   77 1    
   149   75  196 1    
   150   76  197 1    
   151   76  198 1    
   152   76  199 1    
   153   77   78 2    
   154   77   79 am   BACKBONE|DICT|INTERRES
   155   79   80 1    
   156   79  200 1    
   157   80   81 1    
   158   80   82 1    
   159   80  201 1    
   160   81  202 1    
   161   81  203 1    
   162   81  204 1    
   163   82   83 2    
   164   82   84 am   BACKBONE|DICT|INTERRES
   165   84   85 1    
   166   84  205 1    
   167   85   86 1    
   168   85   87 1    
   169   85  206 1    
   170   86  207 1    
   171   86  208 1    
   172   86  209 1    
   173   87   88 2    
   174   87   89 am   BACKBONE|DICT|INTERRES
   175   89   90 1    
   176   89  210 1    
   177   90   91 1    
   178   90   92 1    
   179   90  211 1    
   180   91  212 1    
   181   91  213 1    
   182   91  214 1    
   183   92   93 2    
   184   92   94 am   BACKBONE|DICT|INTERRES
   185   94   95 1    
   186   94  215 1    
   187   95   96 1    
   188   95   97 1    
   189   95  216 1    
   190   96  217 1    
   191   96  218 1    
   192   96  219 1    
   193   97   98 2    
   194   97   99 am   BACKBONE|DICT|INTERRES
   195   99  100 1    
   196   99  220 1    
   197  100  101 1    
   198  100  102 1    
   199  100  221 1    
   200  101  222 1    
   201  101  223 1    
   202  101  224 1    
   203  102  103 2    
   204  102  104 am   BACKBONE|DICT|INTERRES
   205  104  105 1    
   206  104  225 1    
   207  105  106 1    
   208  105  107 1    
   209  105  226 1    
   210  106  227 1    
   211  106  228 1    
   212  106  229 1    
   213  107  108 2    
   214  107  109 am   BACKBONE|DICT|INTERRES
   215  109  110 1    
   216  109  230 1    
   217  110  111 1    
   218  110  112 1    
   219  110  231 1    
   220  111  232 1    
   221  111  233 1    
   222  111  234 1    
   223  112  113 2    
   224  112  114 am   BACKBONE|DICT|INTERRES
   225  114  115 1    
   226  114  235 1    
   227  115  116 1    
   228  115  117 1    
   229  115  236 1    
   230  116  237 1    
   231  116  238 1    
   232  116  239 1    
   233  117  118 2    
   234  117  119 am   BACKBONE|DICT|INTERRES
   235  119  120 1    
   236  119  240 1    
   237  120  121 1    
   238  120  124 1    
   239  120  241 1    
   240  121  122 am   BACKBONE|DICT|INTERRES
   241  121  123 2    
   242  122  242 1    
   243  122  243 1    
   244  124  125 1    
   245  124  244 1    
   246  124  245 1    
   247  125  126 1    
   248  126  246 1    
   249  126  247 1    
@<TRIPOS>SUBSTRUCTURE
     1 UNK         1 GROUP             0       ****    0 ROOT    
