@<TRIPOS>MOLECULE
3R540
247   249    1
SMALL
USER_CHARGES


@<TRIPOS>ATOM
      1 CA         -2.5622  -15.4905  -49.1657 C.3       0 UNK        -0.1800 
      2 C          -1.5379  -14.5893  -48.4920 C.2       0 UNK         0.5000 
      3 O          -1.8156  -13.4149  -48.2523 O.2       0 UNK        -0.5000 
      4 N          -0.3646  -15.1415  -48.1596 N.am      1 UNK        -0.5000 
      5 CA          0.7421  -14.4420  -47.4894 C.3       1 UNK         0.1400 
      6 C6          2.1207  -15.0288  -47.8922 C.3       23 UNK        -0.0398 
      7 S7          2.4925  -14.7653  -49.6580 S.3       23 UNK        -0.2404 
      8 C8          3.2845  -16.3461  -50.1171 C.3       23 UNK        -0.0205 
      9 C9          2.3426  -17.5481  -50.1592 C.ar      23 UNK        -0.0193 
     10 C10         1.0101  -17.4206  -50.5703 C.ar      23 UNK        -0.1150 
     11 C11         0.1728  -18.5363  -50.6318 C.ar      23 UNK        -0.0193 
     12 C12         0.6765  -19.7901  -50.2785 C.ar      23 UNK        -0.1150 
     13 C13         2.0134  -19.9461  -49.9050 C.ar      23 UNK        -0.0193 
     14 C14         2.8386  -18.8179  -49.8412 C.ar      23 UNK        -0.1150 
     15 C15         2.5610  -21.3493  -49.6562 C.3       23 UNK        -0.0205 
     16 S16         3.5684  -21.5324  -48.1463 S.3       23 UNK        -0.2404 
     17 C17         2.4757  -20.9059  -46.8311 C.3       23 UNK        -0.0398 
     18 CA          1.3539  -21.8924  -46.4068 C.3       11 UNK         0.1400 
     19 N           1.1386  -21.8817  -44.9553 N.am      11 UNK        -0.5000 
     20 C           0.3063  -22.6933  -44.2865 C.2       10 UNK         0.5000 
     21 O          -0.3216  -23.6118  -44.8098 O.2       10 UNK        -0.5000 
     22 CA          0.0932  -22.3906  -42.7912 C.3       10 UNK         0.1400 
     23 CB          1.1809  -23.0563  -41.9359 C.3       10 UNK        -0.1800 
     24 N           0.0540  -20.9543  -42.5118 N.am      10 UNK        -0.5000 
     25 C          -0.8749  -20.1132  -42.9890 C.2       9 UNK         0.5000 
     26 O          -1.8476  -20.4752  -43.6483 O.2       9 UNK        -0.5000 
     27 CA         -0.6418  -18.6107  -42.7585 C.3       9 UNK         0.1400 
     28 CB         -1.1280  -18.1742  -41.3706 C.3       9 UNK        -0.1800 
     29 N           0.7611  -18.2350  -42.9437 N.am      9 UNK        -0.5000 
     30 C           1.4037  -18.2997  -44.1191 C.2       8 UNK         0.5000 
     31 O           0.8532  -18.6039  -45.1771 O.2       8 UNK        -0.5000 
     32 CA          2.9173  -18.0301  -44.1093 C.3       8 UNK         0.1400 
     33 CB          3.2155  -16.5507  -44.3463 C.3       8 UNK        -0.1800 
     34 N           3.5405  -18.4544  -42.8593 N.am      8 UNK        -0.5000 
     35 C           3.8081  -19.7319  -42.5605 C.2       7 UNK         0.5000 
     36 O           3.5762  -20.6721  -43.3210 O.2       7 UNK        -0.5000 
     37 CA          4.3885  -20.0028  -41.1607 C.3       7 UNK         0.1400 
     38 CB          5.8992  -19.7271  -41.1349 C.3       7 UNK        -0.1800 
     39 N           3.7317  -19.2114  -40.1184 N.am      7 UNK        -0.5000 
     40 C           2.4428  -19.3394  -39.7753 C.2       6 UNK         0.5000 
     41 O           1.6808  -20.1584  -40.2868 O.2       6 UNK        -0.5000 
     42 CA          1.8995  -18.3758  -38.7055 C.3       6 UNK         0.1400 
     43 CB          2.0445  -18.9954  -37.3077 C.3       6 UNK        -0.1800 
     44 N           2.5175  -17.0478  -38.7078 N.am      6 UNK        -0.5000 
     45 C           2.5246  -16.1804  -39.7302 C.2       5 UNK         0.5000 
     46 O           2.0723  -16.4421  -40.8484 O.2       5 UNK        -0.5000 
     47 CA          3.1095  -14.7880  -39.4042 C.3       5 UNK         0.1400 
     48 CB          4.4987  -14.8784  -38.7333 C.3       5 UNK        -0.1800 
     49 N           3.1447  -13.8640  -40.5421 N.am      5 UNK        -0.5000 
     50 C           3.8902  -13.9444  -41.6520 C.2       4 UNK         0.5000 
     51 O           4.6794  -14.8623  -41.8841 O.2       4 UNK        -0.5000 
     52 CA          3.7352  -12.7779  -42.6536 C.3       4 UNK         0.1400 
     53 CB          4.5024  -13.0047  -43.9690 C.3       4 UNK        -0.1800 
     54 N           2.3327  -12.4912  -42.9656 N.am      4 UNK        -0.5000 
     55 C           1.5145  -11.7129  -42.2419 C.2       3 UNK         0.5000 
     56 O           1.8587  -11.1667  -41.1931 O.2       3 UNK        -0.5000 
     57 CA          0.0675  -11.5282  -42.7486 C.3       3 UNK         0.1400 
     58 CB         -0.0430  -10.2569  -43.6035 C.3       3 UNK        -0.1800 
     59 N          -0.4201  -12.6673  -43.5263 N.am      3 UNK        -0.5000 
     60 C          -0.6391  -13.8898  -43.0266 C.2       2 UNK         0.5000 
     61 O          -0.6021  -14.1423  -41.8222 O.2       2 UNK        -0.5000 
     62 CA         -0.9297  -15.0326  -44.0227 C.3       2 UNK         0.1400 
     63 CB         -2.4034  -15.4601  -43.9356 C.3       2 UNK        -0.1800 
     64 N          -0.5981  -14.7997  -45.4348 N.am      2 UNK        -0.5000 
     65 C           0.5774  -14.4093  -45.9509 C.2       1 UNK         0.5000 
     66 O           1.5192  -14.0280  -45.2584 O.2       1 UNK        -0.5000 
     67 C           0.0412  -21.6051  -47.1663 C.2       11 UNK         0.5000 
     68 O          -0.3482  -22.3787  -48.0426 O.2       11 UNK        -0.5000 
     69 N          -0.6383  -20.5155  -46.7812 N.am      12 UNK        -0.5000 
     70 CA         -1.9213  -20.0971  -47.3422 C.3       12 UNK         0.1400 
     71 CB         -2.2984  -18.7152  -46.7873 C.3       12 UNK        -0.1800 
     72 C          -3.0430  -21.1251  -47.1073 C.2       12 UNK         0.5000 
     73 O          -3.8132  -21.3986  -48.0276 O.2       12 UNK        -0.5000 
     74 N          -3.0860  -21.7117  -45.9035 N.am      13 UNK        -0.5000 
     75 CA         -4.0120  -22.7814  -45.5301 C.3       13 UNK         0.1400 
     76 CB         -3.9210  -23.0369  -44.0185 C.3       13 UNK        -0.1800 
     77 C          -3.7803  -24.0858  -46.3155 C.2       13 UNK         0.5000 
     78 O          -4.7527  -24.7557  -46.6620 O.2       13 UNK        -0.5000 
     79 N          -2.5112  -24.4152  -46.5973 N.am      14 UNK        -0.5000 
     80 CA         -2.1173  -25.5658  -47.4118 C.3       14 UNK         0.1400 
     81 CB         -0.6127  -25.8313  -47.2500 C.3       14 UNK        -0.1800 
     82 C          -2.4892  -25.3930  -48.8955 C.2       14 UNK         0.5000 
     83 O          -2.9393  -26.3552  -49.5191 O.2       14 UNK        -0.5000 
     84 N          -2.3171  -24.1739  -49.4281 N.am      15 UNK        -0.5000 
     85 CA         -2.7447  -23.8004  -50.7792 C.3       15 UNK         0.1400 
     86 CB         -2.1113  -22.4591  -51.1677 C.3       15 UNK        -0.1800 
     87 C          -4.2779  -23.7447  -50.9187 C.2       15 UNK         0.5000 
     88 O          -4.8081  -24.1473  -51.9538 O.2       15 UNK        -0.5000 
     89 N          -4.9522  -23.2668  -49.8624 N.am      16 UNK        -0.5000 
     90 CA         -6.4026  -23.2674  -49.6427 C.3       16 UNK         0.1400 
     91 CB         -6.9323  -24.7147  -49.5572 C.3       16 UNK        -0.1800 
     92 C          -7.2084  -22.4070  -50.6396 C.2       16 UNK         0.5000 
     93 O          -8.4107  -22.6309  -50.7907 O.2       16 UNK        -0.5000 
     94 N          -6.5435  -21.4336  -51.2834 N.am      17 UNK        -0.5000 
     95 CA         -7.0776  -20.5238  -52.3056 C.3       17 UNK         0.1400 
     96 CB         -8.0565  -19.5119  -51.6758 C.3       17 UNK        -0.1800 
     97 C          -7.6797  -21.2882  -53.5039 C.2       17 UNK         0.5000 
     98 O          -8.8610  -21.1369  -53.8208 O.2       17 UNK        -0.5000 
     99 N          -6.8433  -22.1263  -54.1291 N.am      18 UNK        -0.5000 
    100 CA        -7.1888  -23.0305  -55.2288 C.3       18 UNK         0.1400 
    101 CB        -6.0197  -24.0087  -55.4328 C.3       18 UNK        -0.1800 
    102 C         -7.5421  -22.3379  -56.5622 C.2       18 UNK         0.5000 
    103 O         -7.9653  -23.0235  -57.4935 O.2       18 UNK        -0.5000 
    104 N         -7.3191  -21.0192  -56.6596 N.am      19 UNK        -0.5000 
    105 CA        -7.5289  -20.1223  -57.8068 C.3       19 UNK         0.1400 
    106 CB        -8.9680  -20.1917  -58.3523 C.3       19 UNK        -0.1800 
    107 C         -6.4841  -20.3050  -58.9228 C.2       19 UNK         0.5000 
    108 O         -6.0069  -19.3107  -59.4700 O.2       19 UNK        -0.5000 
    109 N         -6.0869  -21.5570  -59.1872 N.am      20 UNK        -0.5000 
    110 CA        -4.8993  -21.9188  -59.9665 C.3       20 UNK         0.1400 
    111 CB        -4.9154  -23.4321  -60.2291 C.3       20 UNK        -0.1800 
    112 C         -3.5928  -21.5042  -59.2560 C.2       20 UNK         0.5000 
    113 O         -2.5945  -21.2242  -59.9203 O.2       20 UNK        -0.5000 
    114 N         -3.6467  -21.4373  -57.9214 N.am      21 UNK        -0.5000 
    115 CA        -2.6579  -20.8371  -57.0415 C.3       21 UNK         0.1400 
    116 CB        -1.7156  -21.9214  -56.4956 C.3       21 UNK        -0.1800 
    117 C         -3.4348  -20.1595  -55.9064 C.2       21 UNK         0.5000 
    118 O         -4.4303  -20.7204  -55.4395 O.2       21 UNK        -0.5000 
    119 N         -2.9738  -18.9772  -55.4833 N.am      22 UNK        -0.5000 
    120 CA        -3.5152  -18.2058  -54.3465 C.3       22 UNK         0.1400 
    121 C         -4.9803  -17.6985  -54.5324 C.2       22 UNK         0.5000 
    122 N         -5.4863  -17.5837  -55.7541 N.am      22 UNK        -0.7600 
    123 O         -5.6634  -17.3794  -53.5637 O.2       22 UNK        -0.5000 
    124 C124       -3.2952  -18.9269  -52.9861 C.3       23 UNK        -0.0398 
    125 S125       -1.5302  -19.2735  -52.6770 S.3       23 UNK        -0.2404 
    126 C126       -1.2644  -18.3944  -51.1092 C.3       23 UNK        -0.0205 
    127 H127       -2.3036  -16.5431  -49.0564 H         1 UNK         0.0600 
    128 H128       -3.5462  -15.3408  -48.7213 H         1 UNK         0.0600 
    129 H129       -2.6276  -15.2569  -50.2282 H         1 UNK         0.0600 
    130 H130       -0.1899  -16.1109  -48.3823 H         1 UNK         0.3000 
    131 H131        0.7331  -13.3964  -47.8045 H         1 UNK         0.0600 
    132 H132        2.9307  -14.5598  -47.3305 H         1 UNK         0.0800 
    133 H133        2.1620  -16.0941  -47.6589 H         1 UNK         0.0800 
    134 H134        4.1083  -16.5334  -49.4263 H         1 UNK         0.0800 
    135 H135        3.7317  -16.2320  -51.1052 H         1 UNK         0.0800 
    136 H136        0.6254  -16.4535  -50.8610 H         1 UNK         0.1150 
    137 H137        0.0318  -20.6542  -50.3380 H         1 UNK         0.1150 
    138 H138        3.8771  -18.9342  -49.5644 H         1 UNK         0.1150 
    139 H139        1.7532  -22.0811  -49.6258 H         1 UNK         0.0800 
    140 H140        3.1780  -21.6269  -50.5115 H         1 UNK         0.0800 
    141 H141        2.0927  -19.9223  -47.1078 H         1 UNK         0.0800 
    142 H142        3.1380  -20.7214  -45.9855 H         1 UNK         0.0800 
    143 H143        1.6632  -22.9086  -46.6603 H         1 UNK         0.0600 
    144 H144        1.6416  -21.1803  -44.4280 H         1 UNK         0.3000 
    145 H145       -0.8705  -22.8126  -42.5003 H         1 UNK         0.0600 
    146 H146        0.9917  -22.9063  -40.8728 H         1 UNK         0.0600 
    147 H147        1.2125  -24.1321  -42.1126 H         1 UNK         0.0600 
    148 H148        2.1708  -22.6573  -42.1575 H         1 UNK         0.0600 
    149 H149        0.7858  -20.5876  -41.9090 H         1 UNK         0.3000 
    150 H150       -1.2304  -18.0761  -43.5049 H         1 UNK         0.0600 
    151 H151       -2.2056  -18.3140  -41.2783 H         1 UNK         0.0600 
    152 H152       -0.9183  -17.1196  -41.1888 H         1 UNK         0.0600 
    153 H153       -0.6575  -18.7550  -40.5789 H         1 UNK         0.0600 
    154 H154        1.2701  -17.9167  -42.1264 H         1 UNK         0.3000 
    155 H155        3.3670  -18.5911  -44.9304 H         1 UNK         0.0600 
    156 H156        2.6934  -15.9144  -43.6306 H         1 UNK         0.0600 
    157 H157        2.9036  -16.2574  -45.3464 H         1 UNK         0.0600 
    158 H158        4.2828  -16.3436  -44.2689 H         1 UNK         0.0600 
    159 H159        3.7087  -17.7356  -42.1679 H         1 UNK         0.3000 
    160 H160        4.2293  -21.0593  -40.9342 H         1 UNK         0.0600 
    161 H161        6.3321  -19.9937  -40.1705 H         1 UNK         0.0600 
    162 H162        6.1215  -18.6760  -41.3240 H         1 UNK         0.0600 
    163 H163        6.4157  -20.3143  -41.8954 H         1 UNK         0.0600 
    164 H164        4.2869  -18.5077  -39.6546 H         1 UNK         0.3000 
    165 H165        0.8358  -18.2349  -38.9008 H         1 UNK         0.0600 
    166 H166        1.5687  -18.3744  -36.5484 H         1 UNK         0.0600 
    167 H167        1.5709  -19.9773  -37.2644 H         1 UNK         0.0600 
    168 H168        3.0916  -19.1235  -37.0306 H         1 UNK         0.0600 
    169 H169        2.9119  -16.7485  -37.8279 H         1 UNK         0.3000 
    170 H170        2.4247  -14.3340  -38.6866 H         1 UNK         0.0600 
    171 H171        4.4427  -15.3639  -37.7588 H         1 UNK         0.0600 
    172 H172        5.2071  -15.4447  -39.3389 H         1 UNK         0.0600 
    173 H173        4.9207  -13.8871  -38.5675 H         1 UNK         0.0600 
    174 H174        2.5186  -13.0703  -40.4765 H         1 UNK         0.3000 
    175 H175        4.1751  -11.9001  -42.1760 H         1 UNK         0.0600 
    176 H176        4.1227  -13.8671  -44.5154 H         1 UNK         0.0600 
    177 H177        4.4236  -12.1368  -44.6237 H         1 UNK         0.0600 
    178 H178        5.5635  -13.1735  -43.7823 H         1 UNK         0.0600 
    179 H179        1.9611  -12.9628  -43.7874 H         1 UNK         0.3000 
    180 H180       -0.5771  -11.4109  -41.8749 H         1 UNK         0.0600 
    181 H181        0.5686  -10.3238  -44.5043 H         1 UNK         0.0600 
    182 H182        0.2893   -9.3807  -43.0452 H         1 UNK         0.0600 
    183 H183       -1.0735  -10.0747  -43.9090 H         1 UNK         0.0600 
    184 H184       -0.4596  -12.5516  -44.5281 H         1 UNK         0.3000 
    185 H185       -0.3100  -15.8664  -43.6985 H         1 UNK         0.0600 
    186 H186       -2.6784  -15.7188  -42.9121 H         1 UNK         0.0600 
    187 H187       -3.0699  -14.6614  -44.2632 H         1 UNK         0.0600 
    188 H188       -2.6016  -16.3357  -44.5538 H         1 UNK         0.0600 
    189 H189       -1.3178  -15.0482  -46.0967 H         1 UNK         0.3000 
    190 H190       -0.2320  -19.9118  -46.0715 H         1 UNK         0.3000 
    191 H191       -1.7870  -20.0063  -48.4201 H         1 UNK         0.0600 
    192 H192       -2.4460  -18.7420  -45.7075 H         1 UNK         0.0600 
    193 H193       -3.2235  -18.3529  -47.2370 H         1 UNK         0.0600 
    194 H194       -1.5213  -17.9803  -46.9982 H         1 UNK         0.0600 
    195 H195       -2.4554  -21.3816  -45.1768 H         1 UNK         0.3000 
    196 H196       -5.0235  -22.4368  -45.7546 H         1 UNK         0.0600 
    197 H197       -4.6293  -23.8062  -43.7088 H         1 UNK         0.0600 
    198 H198       -4.1510  -22.1350  -43.4510 H         1 UNK         0.0600 
    199 H199       -2.9251  -23.3711  -43.7277 H         1 UNK         0.0600 
    200 H200       -1.7594  -23.8484  -46.2188 H         1 UNK         0.3000 
    201 H201       -2.6525  -26.4409  -47.0373 H         1 UNK         0.0600 
    202 H202       -0.0130  -24.9808  -47.5740 H         1 UNK         0.0600 
    203 H203       -0.3602  -26.0411  -46.2106 H         1 UNK         0.0600 
    204 H204       -0.3031  -26.6948  -47.8399 H         1 UNK         0.0600 
    205 H205       -1.8778  -23.4535  -48.8636 H         1 UNK         0.3000 
    206 H206       -2.3780  -24.5588  -51.4740 H         1 UNK         0.0600 
    207 H207       -2.3887  -21.6622  -50.4769 H         1 UNK         0.0600 
    208 H208       -1.0243  -22.5331  -51.1793 H         1 UNK         0.0600 
    209 H209       -2.4256  -22.1562  -52.1672 H         1 UNK         0.0600 
    210 H210       -4.4104  -22.8613  -49.1035 H         1 UNK         0.3000 
    211 H211       -6.5501  -22.8074  -48.6647 H         1 UNK         0.0600 
    212 H212       -6.8972  -25.2153  -50.5253 H         1 UNK         0.0600 
    213 H213       -7.9675  -24.7356  -49.2152 H         1 UNK         0.0600 
    214 H214       -6.3489  -25.3079  -48.8531 H         1 UNK         0.0600 
    215 H215       -5.5591  -21.3431  -51.0785 H         1 UNK         0.3000 
    216 H216       -6.2313  -19.9587  -52.6951 H         1 UNK         0.0600 
    217 H217       -8.9477  -19.9978  -51.2778 H         1 UNK         0.0600 
    218 H218       -8.3842  -18.7796  -52.4147 H         1 UNK         0.0600 
    219 H219       -7.5829  -18.9610  -50.8634 H         1 UNK         0.0600 
    220 H220       -5.8842  -22.1720  -53.8140 H         1 UNK         0.3000 
    221 H221       -8.0665  -23.6043  -54.9255 H         1 UNK         0.0600 
    222 H222       -5.1023  -23.4870  -55.7084 H         1 UNK         0.0600 
    223 H223       -5.8205  -24.5785  -54.5250 H         1 UNK         0.0600 
    224 H224       -6.2383  -24.7292  -56.2221 H         1 UNK         0.0600 
    225 H225       -6.8832  -20.5855  -55.8565 H         1 UNK         0.3000 
    226 H226       -7.3858  -19.1159  -57.4116 H         1 UNK         0.0600 
    227 H227       -9.6986  -20.0485  -57.5561 H         1 UNK         0.0600 
    228 H228       -9.1368  -19.4098  -59.0935 H         1 UNK         0.0600 
    229 H229       -9.1801  -21.1448  -58.8370 H         1 UNK         0.0600 
    230 H230       -6.5807  -22.3089  -58.7172 H         1 UNK         0.3000 
    231 H231       -4.9423  -21.3974  -60.9249 H         1 UNK         0.0600 
    232 H232       -5.8090  -23.7270  -60.7796 H         1 UNK         0.0600 
    233 H233       -4.8905  -24.0022  -59.2993 H         1 UNK         0.0600 
    234 H234       -4.0525  -23.7344  -60.8239 H         1 UNK         0.0600 
    235 H235       -4.5208  -21.6512  -57.4602 H         1 UNK         0.3000 
    236 H236       -2.0812  -20.0842  -57.5832 H         1 UNK         0.0600 
    237 H237       -0.9772  -21.4906  -55.8182 H         1 UNK         0.0600 
    238 H238       -2.2618  -22.6873  -55.9432 H         1 UNK         0.0600 
    239 H239       -1.1723  -22.4134  -57.3024 H         1 UNK         0.0600 
    240 H240       -2.1561  -18.5827  -55.9254 H         1 UNK         0.3000 
    241 H241       -2.9256  -17.2890  -54.3142 H         1 UNK         0.0600 
    242 H242       -4.9300  -17.8067  -56.5635 H         1 UNK         0.3800 
    243 H243       -6.4196  -17.2220  -55.8663 H         1 UNK         0.3800 
    244 H244       -3.8383  -19.8715  -52.9561 H         1 UNK         0.0800 
    245 H245       -3.6875  -18.3267  -52.1638 H         1 UNK         0.0800 
    246 H246       -1.9452  -18.7850  -50.3535 H         1 UNK         0.0800 
    247 H247       -1.5192  -17.3439  -51.2529 H         1 UNK         0.0800 
@<TRIPOS>BOND
     1    1    2 1    
     2    1  127 1    
     3    1  128 1    
     4    1  129 1    
     5    2    3 2    
     6    2    4 am   BACKBONE|DICT|INTERRES
     7    4    5 1    
     8    4  130 1    
     9    5    6 1    
    10    5   65 1    
    11    5  131 1    
    12    6    7 1    
    13    6  132 1    
    14    6  133 1    
    15    7    8 1    
    16    8    9 1    
    17    8  134 1    
    18    8  135 1    
    19    9   10 ar   
    20    9   14 ar   
    21   10   11 ar   
    22   10  136 1    
    23   11   12 ar   
    24   11  126 1    
    25   12   13 ar   
    26   12  137 1    
    27   13   14 ar   
    28   13   15 1    
    29   14  138 1    
    30   15   16 1    
    31   15  139 1    
    32   15  140 1    
    33   16   17 1    
    34   17   18 1    
    35   17  141 1    
    36   17  142 1    
    37   18   19 1    
    38   18   67 1    
    39   18  143 1    
    40   19   20 am   BACKBONE|DICT|INTERRES
    41   19  144 1    
    42   20   21 2    
    43   20   22 1    
    44   22   23 1    
    45   22   24 1    
    46   22  145 1    
    47   23  146 1    
    48   23  147 1    
    49   23  148 1    
    50   24   25 am   BACKBONE|DICT|INTERRES
    51   24  149 1    
    52   25   26 2    
    53   25   27 1    
    54   27   28 1    
    55   27   29 1    
    56   27  150 1    
    57   28  151 1    
    58   28  152 1    
    59   28  153 1    
    60   29   30 am   BACKBONE|DICT|INTERRES
    61   29  154 1    
    62   30   31 2    
    63   30   32 1    
    64   32   33 1    
    65   32   34 1    
    66   32  155 1    
    67   33  156 1    
    68   33  157 1    
    69   33  158 1    
    70   34   35 am   BACKBONE|DICT|INTERRES
    71   34  159 1    
    72   35   36 2    
    73   35   37 1    
    74   37   38 1    
    75   37   39 1    
    76   37  160 1    
    77   38  161 1    
    78   38  162 1    
    79   38  163 1    
    80   39   40 am   BACKBONE|DICT|INTERRES
    81   39  164 1    
    82   40   41 2    
    83   40   42 1    
    84   42   43 1    
    85   42   44 1    
    86   42  165 1    
    87   43  166 1    
    88   43  167 1    
    89   43  168 1    
    90   44   45 am   BACKBONE|DICT|INTERRES
    91   44  169 1    
    92   45   46 2    
    93   45   47 1    
    94   47   48 1    
    95   47   49 1    
    96   47  170 1    
    97   48  171 1    
    98   48  172 1    
    99   48  173 1    
   100   49   50 am   BACKBONE|DICT|INTERRES
   101   49  174 1    
   102   50   51 2    
   103   50   52 1    
   104   52   53 1    
   105   52   54 1    
   106   52  175 1    
   107   53  176 1    
   108   53  177 1    
   109   53  178 1    
   110   54   55 am   BACKBONE|DICT|INTERRES
   111   54  179 1    
   112   55   56 2    
   113   55   57 1    
   114   57   58 1    
   115   57   59 1    
   116   57  180 1    
   117   58  181 1    
   118   58  182 1    
   119   58  183 1    
   120   59   60 am   BACKBONE|DICT|INTERRES
   121   59  184 1    
   122   60   61 2    
   123   60   62 1    
   124   62   63 1    
   125   62   64 1    
   126   62  185 1    
   127   63  186 1    
   128   63  187 1    
   129   63  188 1    
   130   64   65 am   BACKBONE|DICT|INTERRES
   131   64  189 1    
   132   65   66 2    
   133   67   68 2    
   134   67   69 am   BACKBONE|DICT|INTERRES
   135   69   70 1    
   136   69  190 1    
   137   70   71 1    
   138   70   72 1    
   139   70  191 1    
   140   71  192 1    
   141   71  193 1    
   142   71  194 1    
   143   72   73 2    
   144   72   74 am   BACKBONE|DICT|INTERRES
   145   74   75 1    
   146   74  195 1    
   147   75   76 1    
   148   75   77 1    
   149   75  196 1    
   150   76  197 1    
   151   76  198 1    
   152   76  199 1    
   153   77   78 2    
   154   77   79 am   BACKBONE|DICT|INTERRES
   155   79   80 1    
   156   79  200 1    
   157   80   81 1    
   158   80   82 1    
   159   80  201 1    
   160   81  202 1    
   161   81  203 1    
   162   81  204 1    
   163   82   83 2    
   164   82   84 am   BACKBONE|DICT|INTERRES
   165   84   85 1    
   166   84  205 1    
   167   85   86 1    
   168   85   87 1    
   169   85  206 1    
   170   86  207 1    
   171   86  208 1    
   172   86  209 1    
   173   87   88 2    
   174   87   89 am   BACKBONE|DICT|INTERRES
   175   89   90 1    
   176   89  210 1    
   177   90   91 1    
   178   90   92 1    
   179   90  211 1    
   180   91  212 1    
   181   91  213 1    
   182   91  214 1    
   183   92   93 2    
   184   92   94 am   BACKBONE|DICT|INTERRES
   185   94   95 1    
   186   94  215 1    
   187   95   96 1    
   188   95   97 1    
   189   95  216 1    
   190   96  217 1    
   191   96  218 1    
   192   96  219 1    
   193   97   98 2    
   194   97   99 am   BACKBONE|DICT|INTERRES
   195   99  100 1    
   196   99  220 1    
   197  100  101 1    
   198  100  102 1    
   199  100  221 1    
   200  101  222 1    
   201  101  223 1    
   202  101  224 1    
   203  102  103 2    
   204  102  104 am   BACKBONE|DICT|INTERRES
   205  104  105 1    
   206  104  225 1    
   207  105  106 1    
   208  105  107 1    
   209  105  226 1    
   210  106  227 1    
   211  106  228 1    
   212  106  229 1    
   213  107  108 2    
   214  107  109 am   BACKBONE|DICT|INTERRES
   215  109  110 1    
   216  109  230 1    
   217  110  111 1    
   218  110  112 1    
   219  110  231 1    
   220  111  232 1    
   221  111  233 1    
   222  111  234 1    
   223  112  113 2    
   224  112  114 am   BACKBONE|DICT|INTERRES
   225  114  115 1    
   226  114  235 1    
   227  115  116 1    
   228  115  117 1    
   229  115  236 1    
   230  116  237 1    
   231  116  238 1    
   232  116  239 1    
   233  117  118 2    
   234  117  119 am   BACKBONE|DICT|INTERRES
   235  119  120 1    
   236  119  240 1    
   237  120  121 1    
   238  120  124 1    
   239  120  241 1    
   240  121  122 am   BACKBONE|DICT|INTERRES
   241  121  123 2    
   242  122  242 1    
   243  122  243 1    
   244  124  125 1    
   245  124  244 1    
   246  124  245 1    
   247  125  126 1    
   248  126  246 1    
   249  126  247 1    
@<TRIPOS>SUBSTRUCTURE
     1 UNK         1 GROUP             0       ****    0 ROOT    
