@<TRIPOS>MOLECULE
3R540
247   249    1
SMALL
USER_CHARGES


@<TRIPOS>ATOM
      1 CA          2.9739  -11.9589  -53.3105 C.3       0 UNK        -0.1800 
      2 C           2.5716  -12.9642  -52.2406 C.2       0 UNK         0.5000 
      3 O           2.5875  -14.1688  -52.4951 O.2       0 UNK        -0.5000 
      4 N           2.2041  -12.4741  -51.0509 N.am      1 UNK        -0.5000 
      5 CA          1.8129  -13.2871  -49.8958 C.3       1 UNK         0.1400 
      6 C6          1.0972  -12.4543  -48.8007 C.3       23 UNK        -0.0398 
      7 S7         -0.3398  -11.5168  -49.4274 S.3       23 UNK        -0.2404 
      8 C8         -1.7506  -12.5016  -48.8111 C.3       23 UNK        -0.0205 
      9 C9         -1.8713  -13.9017  -49.4116 C.ar      23 UNK        -0.0193 
     10 C10        -1.4825  -14.1770  -50.7280 C.ar      23 UNK        -0.1150 
     11 C11        -1.5965  -15.4659  -51.2566 C.ar      23 UNK        -0.0193 
     12 C12        -2.1304  -16.4855  -50.4643 C.ar      23 UNK        -0.1150 
     13 C13        -2.5516  -16.2220  -49.1581 C.ar      23 UNK        -0.0193 
     14 C14        -2.4173  -14.9308  -48.6384 C.ar      23 UNK        -0.1150 
     15 C15        -3.1689  -17.3267  -48.3157 C.3       23 UNK        -0.0205 
     16 S16        -2.0883  -17.7963  -46.9317 S.3       23 UNK        -0.2404 
     17 C17        -2.9645  -19.2689  -46.3095 C.3       23 UNK        -0.0398 
     18 CA         -2.1847  -20.5561  -46.6606 C.3       11 UNK         0.1400 
     19 N          -0.9511  -20.6587  -45.8873 N.am      11 UNK        -0.5000 
     20 C           0.2718  -20.8307  -46.4006 C.2       10 UNK         0.5000 
     21 O           0.5023  -20.9040  -47.6073 O.2       10 UNK        -0.5000 
     22 CA          1.4434  -20.9541  -45.4057 C.3       10 UNK         0.1400 
     23 CB          2.4135  -19.7742  -45.5539 C.3       10 UNK        -0.1800 
     24 N           1.0099  -21.0751  -44.0093 N.am      10 UNK        -0.5000 
     25 C           0.5264  -22.2129  -43.4914 C.2       9 UNK         0.5000 
     26 O           0.3761  -23.2408  -44.1509 O.2       9 UNK        -0.5000 
     27 CA          0.0838  -22.2065  -42.0154 C.3       9 UNK         0.1400 
     28 CB          1.2591  -22.5883  -41.1041 C.3       9 UNK        -0.1800 
     29 N          -0.5137  -20.9550  -41.5406 N.am      9 UNK        -0.5000 
     30 C          -1.5702  -20.3374  -42.0854 C.2       8 UNK         0.5000 
     31 O          -2.0965  -20.7041  -43.1383 O.2       8 UNK        -0.5000 
     32 CA         -2.1458  -19.1145  -41.3524 C.3       8 UNK         0.1400 
     33 CB         -1.2649  -18.5734  -40.2078 C.3       8 UNK        -0.1800 
     34 N          -2.3639  -18.0659  -42.3384 N.am      8 UNK        -0.5000 
     35 C          -3.4310  -17.2623  -42.4188 C.2       7 UNK         0.5000 
     36 O          -4.3744  -17.3043  -41.6273 O.2       7 UNK        -0.5000 
     37 CA         -3.4598  -16.2578  -43.5952 C.3       7 UNK         0.1400 
     38 CB         -4.1499  -14.9267  -43.2315 C.3       7 UNK        -0.1800 
     39 N          -2.1408  -16.0279  -44.1992 N.am      7 UNK        -0.5000 
     40 C          -1.0684  -15.4761  -43.6170 C.2       6 UNK         0.5000 
     41 O          -1.0685  -14.9566  -42.4987 O.2       6 UNK        -0.5000 
     42 CA          0.2425  -15.5564  -44.4164 C.3       6 UNK         0.1400 
     43 CB          0.5845  -14.1956  -45.0420 C.3       6 UNK        -0.1800 
     44 N           1.3446  -16.0100  -43.5676 N.am      6 UNK        -0.5000 
     45 C           1.4289  -17.2309  -43.0203 C.2       5 UNK         0.5000 
     46 O           0.6057  -18.1283  -43.2222 O.2       5 UNK        -0.5000 
     47 CA          2.6494  -17.4915  -42.1217 C.3       5 UNK         0.1400 
     48 CB          2.7882  -18.9682  -41.6930 C.3       5 UNK        -0.1800 
     49 N           3.8703  -17.0181  -42.7748 N.am      5 UNK        -0.5000 
     50 C           5.0236  -16.7592  -42.1411 C.2       4 UNK         0.5000 
     51 O           5.1894  -16.9182  -40.9309 O.2       4 UNK        -0.5000 
     52 CA          6.1904  -16.2090  -42.9881 C.3       4 UNK         0.1400 
     53 CB          7.0394  -17.3629  -43.5430 C.3       4 UNK        -0.1800 
     54 N           5.7575  -15.3607  -44.0986 N.am      4 UNK        -0.5000 
     55 C           5.0723  -14.2167  -43.9760 C.2       3 UNK         0.5000 
     56 O           4.8204  -13.6888  -42.8922 O.2       3 UNK        -0.5000 
     57 CA          4.5547  -13.5501  -45.2668 C.3       3 UNK         0.1400 
     58 CB          5.3724  -12.2874  -45.5800 C.3       3 UNK        -0.1800 
     59 N           4.5088  -14.3812  -46.4767 N.am      3 UNK        -0.5000 
     60 C           3.9302  -15.5786  -46.6430 C.2       2 UNK         0.5000 
     61 O           3.4727  -16.2591  -45.7240 O.2       2 UNK        -0.5000 
     62 CA          3.8039  -16.0540  -48.1038 C.3       2 UNK         0.1400 
     63 CB          3.3967  -17.5312  -48.2156 C.3       2 UNK        -0.1800 
     64 N           2.8166  -15.2430  -48.8159 N.am      2 UNK        -0.5000 
     65 C           3.0322  -14.0122  -49.2955 C.2       1 UNK         0.5000 
     66 O           4.1226  -13.4368  -49.2318 O.2       1 UNK        -0.5000 
     67 C          -3.0421  -21.8132  -46.4419 C.2       11 UNK         0.5000 
     68 O          -3.4762  -22.4236  -47.4206 O.2       11 UNK        -0.5000 
     69 N          -3.2734  -22.1714  -45.1725 N.am      12 UNK        -0.5000 
     70 CA         -4.1621  -23.2531  -44.7612 C.3       12 UNK         0.1400 
     71 CB         -4.6930  -22.9623  -43.3473 C.3       12 UNK        -0.1800 
     72 C          -3.4804  -24.6279  -44.8296 C.2       12 UNK         0.5000 
     73 O          -3.9330  -25.4883  -45.5836 O.2       12 UNK        -0.5000 
     74 N          -2.4115  -24.8185  -44.0423 N.am      13 UNK        -0.5000 
     75 CA         -1.7212  -26.1058  -43.8944 C.3       13 UNK         0.1400 
     76 CB         -0.8231  -26.0836  -42.6474 C.3       13 UNK        -0.1800 
     77 C          -0.9254  -26.5033  -45.1499 C.2       13 UNK         0.5000 
     78 O          -0.9260  -27.6756  -45.5266 O.2       13 UNK        -0.5000 
     79 N          -0.3054  -25.5110  -45.8019 N.am      14 UNK        -0.5000 
     80 CA          0.3594  -25.6500  -47.1005 C.3       14 UNK         0.1400 
     81 CB          1.2978  -24.4538  -47.3060 C.3       14 UNK        -0.1800 
     82 C          -0.6286  -25.7702  -48.2814 C.2       14 UNK         0.5000 
     83 O          -0.2049  -26.1156  -49.3844 O.2       14 UNK        -0.5000 
     84 N          -1.9154  -25.4835  -48.0299 N.am      15 UNK        -0.5000 
     85 CA         -3.0630  -25.6015  -48.9343 C.3       15 UNK         0.1400 
     86 CB         -3.2717  -27.0680  -49.3667 C.3       15 UNK        -0.1800 
     87 C          -3.0449  -24.6288  -50.1301 C.2       15 UNK         0.5000 
     88 O          -3.7706  -24.8520  -51.0988 O.2       15 UNK        -0.5000 
     89 N          -2.2699  -23.5391  -50.0396 N.am      16 UNK        -0.5000 
     90 CA         -2.1925  -22.4924  -51.0625 C.3       16 UNK         0.1400 
     91 CB         -1.0415  -21.5322  -50.7333 C.3       16 UNK        -0.1800 
     92 C          -3.5151  -21.7217  -51.2402 C.2       16 UNK         0.5000 
     93 O          -3.8219  -21.2969  -52.3551 O.2       16 UNK        -0.5000 
     94 N          -4.2947  -21.5877  -50.1568 N.am      17 UNK        -0.5000 
     95 CA         -5.6389  -21.0100  -50.1897 C.3       17 UNK         0.1400 
     96 CB         -6.0879  -20.6608  -48.7640 C.3       17 UNK        -0.1800 
     97 C          -6.6590  -21.9429  -50.8672 C.2       17 UNK         0.5000 
     98 O          -7.5143  -21.4648  -51.6115 O.2       17 UNK        -0.5000 
     99 N          -6.5329  -23.2555  -50.6238 N.am      18 UNK        -0.5000 
    100 CA        -7.3740  -24.2960  -51.2216 C.3       18 UNK         0.1400 
    101 CB        -7.2075  -25.6052  -50.4359 C.3       18 UNK        -0.1800 
    102 C         -7.0648  -24.5058  -52.7152 C.2       18 UNK         0.5000 
    103 O         -7.9864  -24.6948  -53.5095 O.2       18 UNK        -0.5000 
    104 N         -5.7758  -24.4241  -53.0726 N.am      19 UNK        -0.5000 
    105 CA        -5.2743  -24.4433  -54.4482 C.3       19 UNK         0.1400 
    106 CB        -3.7576  -24.6881  -54.4153 C.3       19 UNK        -0.1800 
    107 C         -5.5876  -23.1523  -55.2329 C.2       19 UNK         0.5000 
    108 O         -5.4782  -23.1577  -56.4596 O.2       19 UNK        -0.5000 
    109 N         -5.9615  -22.0826  -54.5145 N.am      20 UNK        -0.5000 
    110 CA        -6.2728  -20.7369  -54.9981 C.3       20 UNK         0.1400 
    111 CB        -7.5394  -20.7437  -55.8791 C.3       20 UNK        -0.1800 
    112 C         -5.0570  -20.0735  -55.6726 C.2       20 UNK         0.5000 
    113 O         -5.1500  -19.6045  -56.8089 O.2       20 UNK        -0.5000 
    114 N         -3.9280  -20.0535  -54.9480 N.am      21 UNK        -0.5000 
    115 CA        -2.6715  -19.4194  -55.3621 C.3       21 UNK         0.1400 
    116 CB        -1.5827  -19.7450  -54.3282 C.3       21 UNK        -0.1800 
    117 C         -2.7933  -17.8935  -55.5543 C.2       21 UNK         0.5000 
    118 O         -2.1011  -17.3290  -56.4021 O.2       21 UNK        -0.5000 
    119 N         -3.6930  -17.2752  -54.7833 N.am      22 UNK        -0.5000 
    120 CA        -4.1559  -15.8916  -54.9222 C.3       22 UNK         0.1400 
    121 C         -5.7072  -15.8746  -54.9527 C.2       22 UNK         0.5000 
    122 N         -6.3085  -14.9002  -55.6208 N.am      22 UNK        -0.7600 
    123 O         -6.3734  -16.7184  -54.3545 O.2       22 UNK        -0.5000 
    124 C124       -3.6261  -14.9878  -53.7811 C.3       23 UNK        -0.0398 
    125 S125       -1.8395  -14.6426  -53.9232 S.3       23 UNK        -0.2404 
    126 C126       -1.1283  -15.7661  -52.6757 C.3       23 UNK        -0.0205 
    127 H127        2.9051  -10.9325  -52.9490 H         1 UNK         0.0600 
    128 H128        2.3240  -12.0573  -54.1802 H         1 UNK         0.0600 
    129 H129        4.0008  -12.1397  -53.6281 H         1 UNK         0.0600 
    130 H130        2.2208  -11.4766  -50.8958 H         1 UNK         0.3000 
    131 H131        1.1239  -14.0528  -50.2521 H         1 UNK         0.0600 
    132 H132        1.7889  -11.7358  -48.3565 H         1 UNK         0.0800 
    133 H133        0.7696  -13.0999  -47.9842 H         1 UNK         0.0800 
    134 H134       -2.6703  -11.9583  -49.0308 H         1 UNK         0.0800 
    135 H135       -1.6815  -12.5607  -47.7236 H         1 UNK         0.0800 
    136 H136       -1.0769  -13.3906  -51.3483 H         1 UNK         0.1150 
    137 H137       -2.2247  -17.4844  -50.8669 H         1 UNK         0.1150 
    138 H138       -2.7423  -14.7298  -47.6270 H         1 UNK         0.1150 
    139 H139       -3.3693  -18.2065  -48.9299 H         1 UNK         0.0800 
    140 H140       -4.1320  -16.9914  -47.9279 H         1 UNK         0.0800 
    141 H141       -3.0867  -19.1712  -45.2297 H         1 UNK         0.0800 
    142 H142       -3.9729  -19.2888  -46.7219 H         1 UNK         0.0800 
    143 H143       -1.9613  -20.5218  -47.7271 H         1 UNK         0.0600 
    144 H144       -1.0501  -20.6222  -44.8797 H         1 UNK         0.3000 
    145 H145        1.9936  -21.8593  -45.6708 H         1 UNK         0.0600 
    146 H146        2.8721  -19.7933  -46.5415 H         1 UNK         0.0600 
    147 H147        3.2245  -19.8211  -44.8287 H         1 UNK         0.0600 
    148 H148        1.9096  -18.8138  -45.4475 H         1 UNK         0.0600 
    149 H149        1.0150  -20.2282  -43.4526 H         1 UNK         0.3000 
    150 H150       -0.6814  -22.9777  -41.9106 H         1 UNK         0.0600 
    151 H151        2.0535  -21.8423  -41.1351 H         1 UNK         0.0600 
    152 H152        1.6941  -23.5418  -41.4072 H         1 UNK         0.0600 
    153 H153        0.9381  -22.6958  -40.0679 H         1 UNK         0.0600 
    154 H154       -0.1338  -20.5771  -40.6855 H         1 UNK         0.3000 
    155 H155       -3.1016  -19.4344  -40.9332 H         1 UNK         0.0600 
    156 H156       -1.7299  -17.7052  -39.7403 H         1 UNK         0.0600 
    157 H157       -0.2817  -18.2641  -40.5626 H         1 UNK         0.0600 
    158 H158       -1.1252  -19.3181  -39.4235 H         1 UNK         0.0600 
    159 H159       -1.6291  -17.9778  -43.0297 H         1 UNK         0.3000 
    160 H160       -4.0614  -16.7317  -44.3720 H         1 UNK         0.0600 
    161 H161       -3.6625  -14.4310  -42.3918 H         1 UNK         0.0600 
    162 H162       -5.1909  -15.0907  -42.9509 H         1 UNK         0.0600 
    163 H163       -4.1481  -14.2379  -44.0763 H         1 UNK         0.0600 
    164 H164       -2.0233  -16.4333  -45.1203 H         1 UNK         0.3000 
    165 H165        0.1253  -16.2821  -45.2245 H         1 UNK         0.0600 
    166 H166        1.4433  -14.2731  -45.7062 H         1 UNK         0.0600 
    167 H167       -0.2483  -13.8207  -45.6386 H         1 UNK         0.0600 
    168 H168        0.8085  -13.4463  -44.2820 H         1 UNK         0.0600 
    169 H169        2.0524  -15.3278  -43.3429 H         1 UNK         0.3000 
    170 H170        2.4875  -16.8949  -41.2217 H         1 UNK         0.0600 
    171 H171        3.5826  -19.0984  -40.9588 H         1 UNK         0.0600 
    172 H172        3.0135  -19.6155  -42.5386 H         1 UNK         0.0600 
    173 H173        1.8716  -19.3306  -41.2291 H         1 UNK         0.0600 
    174 H174        3.8005  -16.8411  -43.7741 H         1 UNK         0.3000 
    175 H175        6.8192  -15.6038  -42.3319 H         1 UNK         0.0600 
    176 H176        7.3995  -18.0050  -42.7380 H         1 UNK         0.0600 
    177 H177        6.4678  -17.9877  -44.2307 H         1 UNK         0.0600 
    178 H178        7.9144  -16.9894  -44.0753 H         1 UNK         0.0600 
    179 H179        5.8960  -15.7265  -45.0288 H         1 UNK         0.3000 
    180 H180        3.5295  -13.2393  -45.0607 H         1 UNK         0.0600 
    181 H181        6.4030  -12.5330  -45.8390 H         1 UNK         0.0600 
    182 H182        5.4003  -11.6119  -44.7239 H         1 UNK         0.0600 
    183 H183        4.9396  -11.7331  -46.4133 H         1 UNK         0.0600 
    184 H184        4.8047  -13.9138  -47.3268 H         1 UNK         0.3000 
    185 H185        4.7798  -15.9398  -48.5806 H         1 UNK         0.0600 
    186 H186        4.1188  -18.1689  -47.7050 H         1 UNK         0.0600 
    187 H187        2.4154  -17.7144  -47.7756 H         1 UNK         0.0600 
    188 H188        3.3606  -17.8527  -49.2566 H         1 UNK         0.0600 
    189 H189        1.8906  -15.6400  -48.8839 H         1 UNK         0.3000 
    190 H190       -2.8638  -21.6198  -44.4201 H         1 UNK         0.3000 
    191 H191       -5.0208  -23.2760  -45.4363 H         1 UNK         0.0600 
    192 H192       -5.2625  -22.0329  -43.3277 H         1 UNK         0.0600 
    193 H193       -5.3580  -23.7575  -43.0077 H         1 UNK         0.0600 
    194 H194       -3.8881  -22.8714  -42.6171 H         1 UNK         0.0600 
    195 H195       -2.0648  -24.0483  -43.4918 H         1 UNK         0.3000 
    196 H196       -2.4828  -26.8726  -43.7360 H         1 UNK         0.0600 
    197 H197       -0.3845  -27.0666  -42.4716 H         1 UNK         0.0600 
    198 H198       -1.3904  -25.8183  -41.7552 H         1 UNK         0.0600 
    199 H199        0.0002  -25.3775  -42.7456 H         1 UNK         0.0600 
    200 H200       -0.2732  -24.5947  -45.3627 H         1 UNK         0.3000 
    201 H201        0.9643  -26.5590  -47.0835 H         1 UNK         0.0600 
    202 H202        1.8801  -24.5638  -48.2217 H         1 UNK         0.0600 
    203 H203        2.0026  -24.3541  -46.4803 H         1 UNK         0.0600 
    204 H204        0.7358  -23.5254  -47.3858 H         1 UNK         0.0600 
    205 H205       -2.1540  -25.2202  -47.0835 H         1 UNK         0.3000 
    206 H206       -3.9327  -25.3126  -48.3429 H         1 UNK         0.0600 
    207 H207       -3.3032  -27.7314  -48.5023 H         1 UNK         0.0600 
    208 H208       -4.2128  -27.1933  -49.9020 H         1 UNK         0.0600 
    209 H209       -2.4761  -27.4133  -50.0271 H         1 UNK         0.0600 
    210 H210       -1.7353  -23.4013  -49.1949 H         1 UNK         0.3000 
    211 H211       -1.9640  -22.9757  -52.0142 H         1 UNK         0.0600 
    212 H212       -1.2215  -20.9855  -49.8094 H         1 UNK         0.0600 
    213 H213       -0.9091  -20.7952  -51.5256 H         1 UNK         0.0600 
    214 H214       -0.0972  -22.0666  -50.6269 H         1 UNK         0.0600 
    215 H215       -3.9759  -21.9670  -49.2698 H         1 UNK         0.3000 
    216 H216       -5.6032  -20.0836  -50.7674 H         1 UNK         0.0600 
    217 H217       -7.1059  -20.2689  -48.7586 H         1 UNK         0.0600 
    218 H218       -6.0662  -21.5306  -48.1063 H         1 UNK         0.0600 
    219 H219       -5.4474  -19.8936  -48.3341 H         1 UNK         0.0600 
    220 H220       -5.7782  -23.5665  -50.0312 H         1 UNK         0.3000 
    221 H221       -8.4168  -23.9823  -51.1379 H         1 UNK         0.0600 
    222 H222       -6.1850  -25.9780  -50.4852 H         1 UNK         0.0600 
    223 H223       -7.4667  -25.4719  -49.3856 H         1 UNK         0.0600 
    224 H224       -7.8586  -26.3837  -50.8354 H         1 UNK         0.0600 
    225 H225       -5.0728  -24.3617  -52.3397 H         1 UNK         0.3000 
    226 H226       -5.7471  -25.2745  -54.9751 H         1 UNK         0.0600 
    227 H227       -3.3503  -24.7651  -55.4242 H         1 UNK         0.0600 
    228 H228       -3.2335  -23.8759  -53.9107 H         1 UNK         0.0600 
    229 H229       -3.5177  -25.6160  -53.8958 H         1 UNK         0.0600 
    230 H230       -5.9868  -22.1934  -53.5107 H         1 UNK         0.3000 
    231 H231       -6.4955  -20.1385  -54.1132 H         1 UNK         0.0600 
    232 H232       -7.3881  -21.2912  -56.8097 H         1 UNK         0.0600 
    233 H233       -7.8332  -19.7270  -56.1425 H         1 UNK         0.0600 
    234 H234       -8.3796  -21.1989  -55.3546 H         1 UNK         0.0600 
    235 H235       -3.9297  -20.4951  -54.0303 H         1 UNK         0.3000 
    236 H236       -2.3786  -19.8527  -56.3204 H         1 UNK         0.0600 
    237 H237       -1.8361  -19.3497  -53.3439 H         1 UNK         0.0600 
    238 H238       -1.4405  -20.8215  -54.2303 H         1 UNK         0.0600 
    239 H239       -0.6240  -19.3141  -54.6195 H         1 UNK         0.0600 
    240 H240       -4.2527  -17.8411  -54.1610 H         1 UNK         0.3000 
    241 H241       -3.8144  -15.4890  -55.8780 H         1 UNK         0.0600 
    242 H242       -5.7860  -14.1933  -56.1155 H         1 UNK         0.3800 
    243 H243       -7.3164  -14.8715  -55.6401 H         1 UNK         0.3800 
    244 H244       -3.8557  -15.4233  -52.8077 H         1 UNK         0.0800 
    245 H245       -4.1286  -14.0191  -53.7982 H         1 UNK         0.0800 
    246 H246       -1.3635  -16.7940  -52.9544 H         1 UNK         0.0800 
    247 H247       -0.0412  -15.6795  -52.7080 H         1 UNK         0.0800 
@<TRIPOS>BOND
     1    1    2 1    
     2    1  127 1    
     3    1  128 1    
     4    1  129 1    
     5    2    3 2    
     6    2    4 am   BACKBONE|DICT|INTERRES
     7    4    5 1    
     8    4  130 1    
     9    5    6 1    
    10    5   65 1    
    11    5  131 1    
    12    6    7 1    
    13    6  132 1    
    14    6  133 1    
    15    7    8 1    
    16    8    9 1    
    17    8  134 1    
    18    8  135 1    
    19    9   10 ar   
    20    9   14 ar   
    21   10   11 ar   
    22   10  136 1    
    23   11   12 ar   
    24   11  126 1    
    25   12   13 ar   
    26   12  137 1    
    27   13   14 ar   
    28   13   15 1    
    29   14  138 1    
    30   15   16 1    
    31   15  139 1    
    32   15  140 1    
    33   16   17 1    
    34   17   18 1    
    35   17  141 1    
    36   17  142 1    
    37   18   19 1    
    38   18   67 1    
    39   18  143 1    
    40   19   20 am   BACKBONE|DICT|INTERRES
    41   19  144 1    
    42   20   21 2    
    43   20   22 1    
    44   22   23 1    
    45   22   24 1    
    46   22  145 1    
    47   23  146 1    
    48   23  147 1    
    49   23  148 1    
    50   24   25 am   BACKBONE|DICT|INTERRES
    51   24  149 1    
    52   25   26 2    
    53   25   27 1    
    54   27   28 1    
    55   27   29 1    
    56   27  150 1    
    57   28  151 1    
    58   28  152 1    
    59   28  153 1    
    60   29   30 am   BACKBONE|DICT|INTERRES
    61   29  154 1    
    62   30   31 2    
    63   30   32 1    
    64   32   33 1    
    65   32   34 1    
    66   32  155 1    
    67   33  156 1    
    68   33  157 1    
    69   33  158 1    
    70   34   35 am   BACKBONE|DICT|INTERRES
    71   34  159 1    
    72   35   36 2    
    73   35   37 1    
    74   37   38 1    
    75   37   39 1    
    76   37  160 1    
    77   38  161 1    
    78   38  162 1    
    79   38  163 1    
    80   39   40 am   BACKBONE|DICT|INTERRES
    81   39  164 1    
    82   40   41 2    
    83   40   42 1    
    84   42   43 1    
    85   42   44 1    
    86   42  165 1    
    87   43  166 1    
    88   43  167 1    
    89   43  168 1    
    90   44   45 am   BACKBONE|DICT|INTERRES
    91   44  169 1    
    92   45   46 2    
    93   45   47 1    
    94   47   48 1    
    95   47   49 1    
    96   47  170 1    
    97   48  171 1    
    98   48  172 1    
    99   48  173 1    
   100   49   50 am   BACKBONE|DICT|INTERRES
   101   49  174 1    
   102   50   51 2    
   103   50   52 1    
   104   52   53 1    
   105   52   54 1    
   106   52  175 1    
   107   53  176 1    
   108   53  177 1    
   109   53  178 1    
   110   54   55 am   BACKBONE|DICT|INTERRES
   111   54  179 1    
   112   55   56 2    
   113   55   57 1    
   114   57   58 1    
   115   57   59 1    
   116   57  180 1    
   117   58  181 1    
   118   58  182 1    
   119   58  183 1    
   120   59   60 am   BACKBONE|DICT|INTERRES
   121   59  184 1    
   122   60   61 2    
   123   60   62 1    
   124   62   63 1    
   125   62   64 1    
   126   62  185 1    
   127   63  186 1    
   128   63  187 1    
   129   63  188 1    
   130   64   65 am   BACKBONE|DICT|INTERRES
   131   64  189 1    
   132   65   66 2    
   133   67   68 2    
   134   67   69 am   BACKBONE|DICT|INTERRES
   135   69   70 1    
   136   69  190 1    
   137   70   71 1    
   138   70   72 1    
   139   70  191 1    
   140   71  192 1    
   141   71  193 1    
   142   71  194 1    
   143   72   73 2    
   144   72   74 am   BACKBONE|DICT|INTERRES
   145   74   75 1    
   146   74  195 1    
   147   75   76 1    
   148   75   77 1    
   149   75  196 1    
   150   76  197 1    
   151   76  198 1    
   152   76  199 1    
   153   77   78 2    
   154   77   79 am   BACKBONE|DICT|INTERRES
   155   79   80 1    
   156   79  200 1    
   157   80   81 1    
   158   80   82 1    
   159   80  201 1    
   160   81  202 1    
   161   81  203 1    
   162   81  204 1    
   163   82   83 2    
   164   82   84 am   BACKBONE|DICT|INTERRES
   165   84   85 1    
   166   84  205 1    
   167   85   86 1    
   168   85   87 1    
   169   85  206 1    
   170   86  207 1    
   171   86  208 1    
   172   86  209 1    
   173   87   88 2    
   174   87   89 am   BACKBONE|DICT|INTERRES
   175   89   90 1    
   176   89  210 1    
   177   90   91 1    
   178   90   92 1    
   179   90  211 1    
   180   91  212 1    
   181   91  213 1    
   182   91  214 1    
   183   92   93 2    
   184   92   94 am   BACKBONE|DICT|INTERRES
   185   94   95 1    
   186   94  215 1    
   187   95   96 1    
   188   95   97 1    
   189   95  216 1    
   190   96  217 1    
   191   96  218 1    
   192   96  219 1    
   193   97   98 2    
   194   97   99 am   BACKBONE|DICT|INTERRES
   195   99  100 1    
   196   99  220 1    
   197  100  101 1    
   198  100  102 1    
   199  100  221 1    
   200  101  222 1    
   201  101  223 1    
   202  101  224 1    
   203  102  103 2    
   204  102  104 am   BACKBONE|DICT|INTERRES
   205  104  105 1    
   206  104  225 1    
   207  105  106 1    
   208  105  107 1    
   209  105  226 1    
   210  106  227 1    
   211  106  228 1    
   212  106  229 1    
   213  107  108 2    
   214  107  109 am   BACKBONE|DICT|INTERRES
   215  109  110 1    
   216  109  230 1    
   217  110  111 1    
   218  110  112 1    
   219  110  231 1    
   220  111  232 1    
   221  111  233 1    
   222  111  234 1    
   223  112  113 2    
   224  112  114 am   BACKBONE|DICT|INTERRES
   225  114  115 1    
   226  114  235 1    
   227  115  116 1    
   228  115  117 1    
   229  115  236 1    
   230  116  237 1    
   231  116  238 1    
   232  116  239 1    
   233  117  118 2    
   234  117  119 am   BACKBONE|DICT|INTERRES
   235  119  120 1    
   236  119  240 1    
   237  120  121 1    
   238  120  124 1    
   239  120  241 1    
   240  121  122 am   BACKBONE|DICT|INTERRES
   241  121  123 2    
   242  122  242 1    
   243  122  243 1    
   244  124  125 1    
   245  124  244 1    
   246  124  245 1    
   247  125  126 1    
   248  126  246 1    
   249  126  247 1    
@<TRIPOS>SUBSTRUCTURE
     1 UNK         1 GROUP             0       ****    0 ROOT    
