@<TRIPOS>MOLECULE
3R540
247   249    1
SMALL
USER_CHARGES


@<TRIPOS>ATOM
      1 CA         -1.7823  -12.1697  -45.6454 C.3       0 UNK        -0.1800 
      2 C          -0.9749  -11.4178  -46.6943 C.2       0 UNK         0.5000 
      3 O          -0.9175  -10.1888  -46.6623 O.2       0 UNK        -0.5000 
      4 N          -0.3489  -12.1537  -47.6226 N.am      1 UNK        -0.5000 
      5 CA          0.5050  -11.6218  -48.6956 C.3       1 UNK         0.1400 
      6 C6          0.6724  -12.6484  -49.8558 C.3       23 UNK        -0.0398 
      7 S7          1.9840  -13.9145  -49.6619 S.3       23 UNK        -0.2404 
      8 C8          1.2164  -15.1301  -48.5521 C.3       23 UNK        -0.0205 
      9 C9          0.4195  -16.1898  -49.2947 C.ar      23 UNK        -0.0193 
     10 C10        -0.9436  -16.0131  -49.5563 C.ar      23 UNK        -0.1150 
     11 C11        -1.6870  -17.0326  -50.1602 C.ar      23 UNK        -0.0193 
     12 C12        -1.0615  -18.2447  -50.4637 C.ar      23 UNK        -0.1150 
     13 C13         0.3016  -18.4291  -50.2258 C.ar      23 UNK        -0.0193 
     14 C14         1.0429  -17.3833  -49.6675 C.ar      23 UNK        -0.1150 
     15 C15         0.9450  -19.7685  -50.5726 C.3       23 UNK        -0.0205 
     16 S16         2.0921  -20.4281  -49.3108 S.3       23 UNK        -0.2404 
     17 C17         1.2467  -20.1192  -47.7212 C.3       23 UNK        -0.0398 
     18 CA          0.2605  -21.2281  -47.2917 C.3       11 UNK         0.1400 
     19 N           0.1287  -21.2758  -45.8357 N.am      11 UNK        -0.5000 
     20 C          -0.5108  -22.2293  -45.1480 C.2       10 UNK         0.5000 
     21 O          -1.0206  -23.2228  -45.6676 O.2       10 UNK        -0.5000 
     22 CA         -0.6403  -22.0022  -43.6296 C.3       10 UNK         0.1400 
     23 CB          0.6472  -22.4127  -42.8999 C.3       10 UNK        -0.1800 
     24 N          -0.9707  -20.6133  -43.2983 N.am      10 UNK        -0.5000 
     25 C          -2.1222  -20.0154  -43.6374 C.2       9 UNK         0.5000 
     26 O          -3.0395  -20.5890  -44.2234 O.2       9 UNK        -0.5000 
     27 CA         -2.2630  -18.5197  -43.3033 C.3       9 UNK         0.1400 
     28 CB         -2.6465  -18.3271  -41.8287 C.3       9 UNK        -0.1800 
     29 N          -1.0575  -17.7478  -43.6087 N.am      9 UNK        -0.5000 
     30 C          -0.5457  -17.5892  -44.8379 C.2       8 UNK         0.5000 
     31 O          -1.0529  -18.0575  -45.8539 O.2       8 UNK        -0.5000 
     32 CA          0.7875  -16.8306  -44.9533 C.3       8 UNK         0.1400 
     33 CB          0.5651  -15.3124  -44.8823 C.3       8 UNK        -0.1800 
     34 N           1.7566  -17.2387  -43.9378 N.am      8 UNK        -0.5000 
     35 C           2.2266  -18.4849  -43.7833 C.2       7 UNK         0.5000 
     36 O           1.9256  -19.4289  -44.5126 O.2       7 UNK        -0.5000 
     37 CA          3.1396  -18.7291  -42.5724 C.3       7 UNK         0.1400 
     38 CB          4.5730  -18.2559  -42.8565 C.3       7 UNK        -0.1800 
     39 N           2.6236  -18.0675  -41.3750 N.am      7 UNK        -0.5000 
     40 C           1.5196  -18.4529  -40.7194 C.2       6 UNK         0.5000 
     41 O           0.8449  -19.4352  -41.0317 O.2       6 UNK        -0.5000 
     42 CA          1.0779  -17.5658  -39.5408 C.3       6 UNK         0.1400 
     43 CB          1.8713  -17.9120  -38.2720 C.3       6 UNK        -0.1800 
     44 N           1.2172  -16.1360  -39.8281 N.am      6 UNK        -0.5000 
     45 C           0.4823  -15.4786  -40.7357 C.2       5 UNK         0.5000 
     46 O          -0.3983  -16.0081  -41.4113 O.2       5 UNK        -0.5000 
     47 CA          0.8041  -13.9895  -40.9555 C.3       5 UNK         0.1400 
     48 CB          0.0471  -13.1187  -39.9424 C.3       5 UNK        -0.1800 
     49 N           2.2299  -13.6593  -40.9039 N.am      5 UNK        -0.5000 
     50 C           3.1906  -14.1995  -41.6644 C.2       4 UNK         0.5000 
     51 O           3.0015  -15.1357  -42.4423 O.2       4 UNK        -0.5000 
     52 CA          4.5824  -13.5446  -41.5602 C.3       4 UNK         0.1400 
     53 CB          5.6886  -14.4103  -42.1891 C.3       4 UNK        -0.1800 
     54 N           4.5793  -12.2369  -42.2147 N.am      4 UNK        -0.5000 
     55 C           4.0321  -11.1181  -41.7196 C.2       3 UNK         0.5000 
     56 O           3.5531  -11.0413  -40.5867 O.2       3 UNK        -0.5000 
     57 CA          3.9947   -9.8831  -42.6429 C.3       3 UNK         0.1400 
     58 CB          5.1206   -8.9048  -42.2742 C.3       3 UNK        -0.1800 
     59 N           4.0884  -10.1988  -44.0729 N.am      3 UNK        -0.5000 
     60 C           3.1541  -10.8461  -44.7820 C.2       2 UNK         0.5000 
     61 O           2.1036  -11.2819  -44.3022 O.2       2 UNK        -0.5000 
     62 CA          3.4661  -11.0601  -46.2707 C.3       2 UNK         0.1400 
     63 CB          4.5192  -12.1661  -46.4594 C.3       2 UNK        -0.1800 
     64 N           2.2435  -11.4519  -46.9589 N.am      2 UNK        -0.5000 
     65 C           1.8541  -11.0608  -48.1781 C.2       1 UNK         0.5000 
     66 O           2.5084  -10.2996  -48.8928 O.2       1 UNK        -0.5000 
     67 C          -1.1138  -21.0751  -47.9775 C.2       11 UNK         0.5000 
     68 O          -1.4048  -21.8100  -48.9198 O.2       11 UNK        -0.5000 
     69 N          -1.9551  -20.1641  -47.4666 N.am      12 UNK        -0.5000 
     70 CA         -3.3209  -19.9327  -47.9366 C.3       12 UNK         0.1400 
     71 CB         -3.9066  -18.6888  -47.2540 C.3       12 UNK        -0.1800 
     72 C          -4.2402  -21.1508  -47.7423 C.2       12 UNK         0.5000 
     73 O          -5.0554  -21.4360  -48.6192 O.2       12 UNK        -0.5000 
     74 N          -4.0693  -21.8739  -46.6270 N.am      13 UNK        -0.5000 
     75 CA         -4.7513  -23.1388  -46.3590 C.3       13 UNK         0.1400 
     76 CB         -4.4862  -23.5876  -44.9144 C.3       13 UNK        -0.1800 
     77 C          -4.3590  -24.2344  -47.3662 C.2       13 UNK         0.5000 
     78 O          -5.2435  -24.9104  -47.8877 O.2       13 UNK        -0.5000 
     79 N          -3.0571  -24.3578  -47.6652 N.am      14 UNK        -0.5000 
     80 CA         -2.5289  -25.2710  -48.6835 C.3       14 UNK         0.1400 
     81 CB         -0.9954  -25.3049  -48.6058 C.3       14 UNK        -0.1800 
     82 C          -3.0003  -24.9138  -50.1067 C.2       14 UNK         0.5000 
     83 O          -3.3674  -25.8091  -50.8716 O.2       14 UNK        -0.5000 
     84 N          -3.0140  -23.6106  -50.4191 N.am      15 UNK        -0.5000 
     85 CA         -3.5314  -23.0261  -51.6568 C.3       15 UNK         0.1400 
     86 CB         -3.2716  -21.5133  -51.6463 C.3       15 UNK        -0.1800 
     87 C          -5.0166  -23.3490  -51.8856 C.2       15 UNK         0.5000 
     88 O          -5.3775  -23.8139  -52.9672 O.2       15 UNK        -0.5000 
     89 N          -5.8372  -23.1525  -50.8457 N.am      16 UNK        -0.5000 
     90 CA         -7.2561  -23.5034  -50.8384 C.3       16 UNK         0.1400 
     91 CB         -7.9163  -22.9213  -49.5794 C.3       16 UNK        -0.1800 
     92 C          -7.5035  -25.0215  -50.9299 C.2       16 UNK         0.5000 
     93 O          -8.4438  -25.4383  -51.6077 O.2       16 UNK        -0.5000 
     94 N          -6.6683  -25.8151  -50.2449 N.am      17 UNK        -0.5000 
     95 CA         -6.7717  -27.2709  -50.1863 C.3       17 UNK         0.1400 
     96 CB         -5.8918  -27.8186  -49.0517 C.3       17 UNK        -0.1800 
     97 C          -6.4321  -27.9665  -51.5142 C.2       17 UNK         0.5000 
     98 O          -7.2092  -28.8182  -51.9503 O.2       17 UNK        -0.5000 
     99 N          -5.2832  -27.6285  -52.1196 N.am      18 UNK        -0.5000 
    100 CA        -4.7758  -28.3467  -53.2929 C.3       18 UNK         0.1400 
    101 CB        -4.1363  -29.6791  -52.8538 C.3       18 UNK        -0.1800 
    102 C         -3.7869  -27.5581  -54.1647 C.2       18 UNK         0.5000 
    103 O         -3.7287  -27.8286  -55.3653 O.2       18 UNK        -0.5000 
    104 N         -2.9991  -26.6397  -53.5846 N.am      19 UNK        -0.5000 
    105 CA        -1.8931  -25.9808  -54.2946 C.3       19 UNK         0.1400 
    106 CB        -0.8512  -25.4631  -53.2879 C.3       19 UNK        -0.1800 
    107 C         -2.3255  -24.8985  -55.3093 C.2       19 UNK         0.5000 
    108 O         -1.4980  -24.4884  -56.1247 O.2       19 UNK        -0.5000 
    109 N         -3.6027  -24.4885  -55.2732 N.am      20 UNK        -0.5000 
    110 CA        -4.2599  -23.5401  -56.1785 C.3       20 UNK         0.1400 
    111 CB        -4.3399  -24.1151  -57.6110 C.3       20 UNK        -0.1800 
    112 C         -3.6422  -22.1290  -56.0898 C.2       20 UNK         0.5000 
    113 O         -3.3573  -21.6791  -54.9794 O.2       20 UNK        -0.5000 
    114 N         -3.4773  -21.4450  -57.2331 N.am      21 UNK        -0.5000 
    115 CA        -2.9189  -20.0966  -57.4006 C.3       21 UNK         0.1400 
    116 CB        -1.4044  -20.0942  -57.0956 C.3       21 UNK        -0.1800 
    117 C         -3.7033  -19.0309  -56.6063 C.2       21 UNK         0.5000 
    118 O         -4.6819  -18.4889  -57.1218 O.2       21 UNK        -0.5000 
    119 N         -3.2726  -18.7741  -55.3655 N.am      22 UNK        -0.5000 
    120 CA        -3.9653  -17.9473  -54.3652 C.3       22 UNK         0.1400 
    121 C         -5.3329  -18.5368  -53.8995 C.2       22 UNK         0.5000 
    122 N         -5.5517  -19.8435  -53.9986 N.am      22 UNK        -0.7600 
    123 O         -6.2122  -17.7993  -53.4638 O.2       22 UNK        -0.5000 
    124 C124       -3.0210  -17.6855  -53.1640 C.3       23 UNK        -0.0398 
    125 S125       -3.4382  -16.2161  -52.1617 S.3       23 UNK        -0.2404 
    126 C126       -3.1669  -16.8358  -50.4673 C.3       23 UNK        -0.0205 
    127 H127       -1.9214  -13.2169  -45.9144 H         1 UNK         0.0600 
    128 H128       -2.7677  -11.7175  -45.5326 H         1 UNK         0.0600 
    129 H129       -1.2737  -12.1280  -44.6820 H         1 UNK         0.0600 
    130 H130       -0.4544  -13.1558  -47.6044 H         1 UNK         0.3000 
    131 H131       -0.0295  -10.7665  -49.1150 H         1 UNK         0.0600 
    132 H132       -0.2762  -13.1385  -50.0757 H         1 UNK         0.0800 
    133 H133        0.9179  -12.0985  -50.7657 H         1 UNK         0.0800 
    134 H134        0.5866  -14.6333  -47.8191 H         1 UNK         0.0800 
    135 H135        2.0097  -15.6099  -47.9766 H         1 UNK         0.0800 
    136 H136       -1.4307  -15.0888  -49.2817 H         1 UNK         0.1150 
    137 H137       -1.6358  -19.0543  -50.8860 H         1 UNK         0.1150 
    138 H138        2.0979  -17.5180  -49.4748 H         1 UNK         0.1150 
    139 H139        0.1780  -20.5225  -50.7547 H         1 UNK         0.0800 
    140 H140        1.4883  -19.6585  -51.5117 H         1 UNK         0.0800 
    141 H141        0.7793  -19.1359  -47.6867 H         1 UNK         0.0800 
    142 H142        2.0584  -20.0636  -46.9962 H         1 UNK         0.0800 
    143 H143        0.6737  -22.1918  -47.5973 H         1 UNK         0.0600 
    144 H144        0.5598  -20.5139  -45.3188 H         1 UNK         0.3000 
    145 H145       -1.4524  -22.6363  -43.2678 H         1 UNK         0.0600 
    146 H146        1.4966  -21.7992  -43.2014 H         1 UNK         0.0600 
    147 H147        0.5346  -22.3171  -41.8197 H         1 UNK         0.0600 
    148 H148        0.9008  -23.4524  -43.1107 H         1 UNK         0.0600 
    149 H149       -0.2719  -20.0829  -42.7906 H         1 UNK         0.3000 
    150 H150       -3.0737  -18.1207  -43.9160 H         1 UNK         0.0600 
    151 H151       -3.5403  -18.8999  -41.5782 H         1 UNK         0.0600 
    152 H152       -2.8610  -17.2806  -41.6119 H         1 UNK         0.0600 
    153 H153       -1.8490  -18.6506  -41.1590 H         1 UNK         0.0600 
    154 H154       -0.6110  -17.2788  -42.8254 H         1 UNK         0.3000 
    155 H155        1.2155  -17.0660  -45.9299 H         1 UNK         0.0600 
    156 H156        1.4893  -14.7659  -45.0721 H         1 UNK         0.0600 
    157 H157       -0.1678  -14.9914  -45.6219 H         1 UNK         0.0600 
    158 H158        0.1908  -15.0076  -43.9063 H         1 UNK         0.0600 
    159 H159        2.0934  -16.5127  -43.3093 H         1 UNK         0.3000 
    160 H160        3.1688  -19.8045  -42.3839 H         1 UNK         0.0600 
    161 H161        4.9933  -18.7870  -43.7114 H         1 UNK         0.0600 
    162 H162        5.2271  -18.4419  -42.0045 H         1 UNK         0.0600 
    163 H163        4.6121  -17.1908  -43.0844 H         1 UNK         0.0600 
    164 H164        3.0781  -17.2095  -41.0989 H         1 UNK         0.3000 
    165 H165        0.0227  -17.7722  -39.3485 H         1 UNK         0.0600 
    166 H166        1.5091  -17.3454  -37.4140 H         1 UNK         0.0600 
    167 H167        1.7717  -18.9702  -38.0268 H         1 UNK         0.0600 
    168 H168        2.9349  -17.7008  -38.3896 H         1 UNK         0.0600 
    169 H169        1.9246  -15.6277  -39.3180 H         1 UNK         0.3000 
    170 H170        0.4517  -13.7228  -41.9532 H         1 UNK         0.0600 
    171 H171       -1.0241  -13.3228  -39.9742 H         1 UNK         0.0600 
    172 H172        0.3868  -13.3006  -38.9220 H         1 UNK         0.0600 
    173 H173        0.1811  -12.0582  -40.1568 H         1 UNK         0.0600 
    174 H174        2.4824  -12.8479  -40.3514 H         1 UNK         0.3000 
    175 H175        4.8172  -13.4163  -40.5015 H         1 UNK         0.0600 
    176 H176        5.5224  -14.5702  -43.2553 H         1 UNK         0.0600 
    177 H177        6.6676  -13.9461  -42.0692 H         1 UNK         0.0600 
    178 H178        5.7347  -15.3898  -41.7118 H         1 UNK         0.0600 
    179 H179        4.9263  -12.2107  -43.1615 H         1 UNK         0.3000 
    180 H180        3.0391   -9.3828  -42.4726 H         1 UNK         0.0600 
    181 H181        6.1053   -9.3420  -42.4444 H         1 UNK         0.0600 
    182 H182        5.0646   -8.6221  -41.2221 H         1 UNK         0.0600 
    183 H183        5.0538   -7.9869  -42.8587 H         1 UNK         0.0600 
    184 H184        4.9235   -9.8805  -44.5437 H         1 UNK         0.3000 
    185 H185        3.8422  -10.1193  -46.6782 H         1 UNK         0.0600 
    186 H186        4.7274  -12.3332  -47.5165 H         1 UNK         0.0600 
    187 H187        5.4631  -11.9010  -45.9821 H         1 UNK         0.0600 
    188 H188        4.1872  -13.1136  -46.0323 H         1 UNK         0.0600 
    189 H189        1.6044  -11.9969  -46.3963 H         1 UNK         0.3000 
    190 H190       -1.6261  -19.5465  -46.7271 H         1 UNK         0.3000 
    191 H191       -3.2647  -19.7300  -49.0057 H         1 UNK         0.0600 
    192 H192       -3.9632  -18.8129  -46.1726 H         1 UNK         0.0600 
    193 H193       -4.9145  -18.4826  -47.6159 H         1 UNK         0.0600 
    194 H194       -3.3008  -17.8059  -47.4587 H         1 UNK         0.0600 
    195 H195       -3.4317  -21.5338  -45.9136 H         1 UNK         0.3000 
    196 H196       -5.8242  -22.9643  -46.4630 H         1 UNK         0.0600 
    197 H197       -5.0175  -24.5135  -44.6913 H         1 UNK         0.0600 
    198 H198       -4.8266  -22.8370  -44.2008 H         1 UNK         0.0600 
    199 H199       -3.4272  -23.7656  -44.7310 H         1 UNK         0.0600 
    200 H200       -2.3852  -23.7767  -47.1753 H         1 UNK         0.3000 
    201 H201       -2.8980  -26.2724  -48.4548 H         1 UNK         0.0600 
    202 H202       -0.6585  -25.6194  -47.6178 H         1 UNK         0.0600 
    203 H203       -0.5561  -24.3289  -48.8118 H         1 UNK         0.0600 
    204 H204       -0.5843  -26.0087  -49.3306 H         1 UNK         0.0600 
    205 H205       -2.6199  -22.9561  -49.7470 H         1 UNK         0.3000 
    206 H206       -2.9830  -23.4448  -52.4980 H         1 UNK         0.0600 
    207 H207       -2.2073  -21.2999  -51.5532 H         1 UNK         0.0600 
    208 H208       -3.6131  -21.0481  -52.5661 H         1 UNK         0.0600 
    209 H209       -3.7911  -21.0163  -50.8312 H         1 UNK         0.0600 
    210 H210       -5.4673  -22.7286  -49.9989 H         1 UNK         0.3000 
    211 H211       -7.7199  -23.0386  -51.7109 H         1 UNK         0.0600 
    212 H212       -7.4693  -23.3227  -48.6691 H         1 UNK         0.0600 
    213 H213       -8.9820  -23.1518  -49.5533 H         1 UNK         0.0600 
    214 H214       -7.8164  -21.8361  -49.5487 H         1 UNK         0.0600 
    215 H215       -5.9638  -25.3878  -49.6516 H         1 UNK         0.3000 
    216 H216       -7.8076  -27.5179  -49.9439 H         1 UNK         0.0600 
    217 H217       -5.9505  -28.9066  -49.0010 H         1 UNK         0.0600 
    218 H218       -6.2121  -27.4333  -48.0838 H         1 UNK         0.0600 
    219 H219       -4.8439  -27.5532  -49.1898 H         1 UNK         0.0600 
    220 H220       -4.6923  -26.9126  -51.7059 H         1 UNK         0.3000 
    221 H221       -5.6202  -28.5752  -53.9471 H         1 UNK         0.0600 
    222 H222       -3.3228  -29.5156  -52.1460 H         1 UNK         0.0600 
    223 H223       -4.8647  -30.3370  -52.3799 H         1 UNK         0.0600 
    224 H224       -3.7259  -30.2203  -53.7075 H         1 UNK         0.0600 
    225 H225       -3.0907  -26.4360  -52.5931 H         1 UNK         0.3000 
    226 H226       -1.3853  -26.7460  -54.8862 H         1 UNK         0.0600 
    227 H227       -0.4489  -26.2808  -52.6899 H         1 UNK         0.0600 
    228 H228       -0.0096  -24.9971  -53.8019 H         1 UNK         0.0600 
    229 H229       -1.2575  -24.7263  -52.6014 H         1 UNK         0.0600 
    230 H230       -4.1826  -24.8157  -54.5105 H         1 UNK         0.3000 
    231 H231       -5.2817  -23.4391  -55.8104 H         1 UNK         0.0600 
    232 H232       -4.9842  -23.5078  -58.2475 H         1 UNK         0.0600 
    233 H233       -4.7614  -25.1206  -57.6025 H         1 UNK         0.0600 
    234 H234       -3.3595  -24.1735  -58.0851 H         1 UNK         0.0600 
    235 H235       -3.7750  -21.8928  -58.0882 H         1 UNK         0.3000 
    236 H236       -3.0369  -19.8416  -58.4549 H         1 UNK         0.0600 
    237 H237       -0.9838  -19.0941  -57.2081 H         1 UNK         0.0600 
    238 H238       -0.8705  -20.7474  -57.7857 H         1 UNK         0.0600 
    239 H239       -1.1800  -20.4360  -56.0849 H         1 UNK         0.0600 
    240 H240       -2.4996  -19.3272  -55.0247 H         1 UNK         0.3000 
    241 H241       -4.1794  -16.9904  -54.8450 H         1 UNK         0.0600 
    242 H242       -6.4406  -20.2196  -53.7116 H         1 UNK         0.3800 
    243 H243       -4.8254  -20.4588  -54.3476 H         1 UNK         0.3800 
    244 H244       -2.9892  -18.5734  -52.5346 H         1 UNK         0.0800 
    245 H245       -1.9993  -17.5321  -53.5149 H         1 UNK         0.0800 
    246 H246       -3.5982  -16.1248  -49.7611 H         1 UNK         0.0800 
    247 H247       -3.7157  -17.7678  -50.3278 H         1 UNK         0.0800 
@<TRIPOS>BOND
     1    1    2 1    
     2    1  127 1    
     3    1  128 1    
     4    1  129 1    
     5    2    3 2    
     6    2    4 am   BACKBONE|DICT|INTERRES
     7    4    5 1    
     8    4  130 1    
     9    5    6 1    
    10    5   65 1    
    11    5  131 1    
    12    6    7 1    
    13    6  132 1    
    14    6  133 1    
    15    7    8 1    
    16    8    9 1    
    17    8  134 1    
    18    8  135 1    
    19    9   10 ar   
    20    9   14 ar   
    21   10   11 ar   
    22   10  136 1    
    23   11   12 ar   
    24   11  126 1    
    25   12   13 ar   
    26   12  137 1    
    27   13   14 ar   
    28   13   15 1    
    29   14  138 1    
    30   15   16 1    
    31   15  139 1    
    32   15  140 1    
    33   16   17 1    
    34   17   18 1    
    35   17  141 1    
    36   17  142 1    
    37   18   19 1    
    38   18   67 1    
    39   18  143 1    
    40   19   20 am   BACKBONE|DICT|INTERRES
    41   19  144 1    
    42   20   21 2    
    43   20   22 1    
    44   22   23 1    
    45   22   24 1    
    46   22  145 1    
    47   23  146 1    
    48   23  147 1    
    49   23  148 1    
    50   24   25 am   BACKBONE|DICT|INTERRES
    51   24  149 1    
    52   25   26 2    
    53   25   27 1    
    54   27   28 1    
    55   27   29 1    
    56   27  150 1    
    57   28  151 1    
    58   28  152 1    
    59   28  153 1    
    60   29   30 am   BACKBONE|DICT|INTERRES
    61   29  154 1    
    62   30   31 2    
    63   30   32 1    
    64   32   33 1    
    65   32   34 1    
    66   32  155 1    
    67   33  156 1    
    68   33  157 1    
    69   33  158 1    
    70   34   35 am   BACKBONE|DICT|INTERRES
    71   34  159 1    
    72   35   36 2    
    73   35   37 1    
    74   37   38 1    
    75   37   39 1    
    76   37  160 1    
    77   38  161 1    
    78   38  162 1    
    79   38  163 1    
    80   39   40 am   BACKBONE|DICT|INTERRES
    81   39  164 1    
    82   40   41 2    
    83   40   42 1    
    84   42   43 1    
    85   42   44 1    
    86   42  165 1    
    87   43  166 1    
    88   43  167 1    
    89   43  168 1    
    90   44   45 am   BACKBONE|DICT|INTERRES
    91   44  169 1    
    92   45   46 2    
    93   45   47 1    
    94   47   48 1    
    95   47   49 1    
    96   47  170 1    
    97   48  171 1    
    98   48  172 1    
    99   48  173 1    
   100   49   50 am   BACKBONE|DICT|INTERRES
   101   49  174 1    
   102   50   51 2    
   103   50   52 1    
   104   52   53 1    
   105   52   54 1    
   106   52  175 1    
   107   53  176 1    
   108   53  177 1    
   109   53  178 1    
   110   54   55 am   BACKBONE|DICT|INTERRES
   111   54  179 1    
   112   55   56 2    
   113   55   57 1    
   114   57   58 1    
   115   57   59 1    
   116   57  180 1    
   117   58  181 1    
   118   58  182 1    
   119   58  183 1    
   120   59   60 am   BACKBONE|DICT|INTERRES
   121   59  184 1    
   122   60   61 2    
   123   60   62 1    
   124   62   63 1    
   125   62   64 1    
   126   62  185 1    
   127   63  186 1    
   128   63  187 1    
   129   63  188 1    
   130   64   65 am   BACKBONE|DICT|INTERRES
   131   64  189 1    
   132   65   66 2    
   133   67   68 2    
   134   67   69 am   BACKBONE|DICT|INTERRES
   135   69   70 1    
   136   69  190 1    
   137   70   71 1    
   138   70   72 1    
   139   70  191 1    
   140   71  192 1    
   141   71  193 1    
   142   71  194 1    
   143   72   73 2    
   144   72   74 am   BACKBONE|DICT|INTERRES
   145   74   75 1    
   146   74  195 1    
   147   75   76 1    
   148   75   77 1    
   149   75  196 1    
   150   76  197 1    
   151   76  198 1    
   152   76  199 1    
   153   77   78 2    
   154   77   79 am   BACKBONE|DICT|INTERRES
   155   79   80 1    
   156   79  200 1    
   157   80   81 1    
   158   80   82 1    
   159   80  201 1    
   160   81  202 1    
   161   81  203 1    
   162   81  204 1    
   163   82   83 2    
   164   82   84 am   BACKBONE|DICT|INTERRES
   165   84   85 1    
   166   84  205 1    
   167   85   86 1    
   168   85   87 1    
   169   85  206 1    
   170   86  207 1    
   171   86  208 1    
   172   86  209 1    
   173   87   88 2    
   174   87   89 am   BACKBONE|DICT|INTERRES
   175   89   90 1    
   176   89  210 1    
   177   90   91 1    
   178   90   92 1    
   179   90  211 1    
   180   91  212 1    
   181   91  213 1    
   182   91  214 1    
   183   92   93 2    
   184   92   94 am   BACKBONE|DICT|INTERRES
   185   94   95 1    
   186   94  215 1    
   187   95   96 1    
   188   95   97 1    
   189   95  216 1    
   190   96  217 1    
   191   96  218 1    
   192   96  219 1    
   193   97   98 2    
   194   97   99 am   BACKBONE|DICT|INTERRES
   195   99  100 1    
   196   99  220 1    
   197  100  101 1    
   198  100  102 1    
   199  100  221 1    
   200  101  222 1    
   201  101  223 1    
   202  101  224 1    
   203  102  103 2    
   204  102  104 am   BACKBONE|DICT|INTERRES
   205  104  105 1    
   206  104  225 1    
   207  105  106 1    
   208  105  107 1    
   209  105  226 1    
   210  106  227 1    
   211  106  228 1    
   212  106  229 1    
   213  107  108 2    
   214  107  109 am   BACKBONE|DICT|INTERRES
   215  109  110 1    
   216  109  230 1    
   217  110  111 1    
   218  110  112 1    
   219  110  231 1    
   220  111  232 1    
   221  111  233 1    
   222  111  234 1    
   223  112  113 2    
   224  112  114 am   BACKBONE|DICT|INTERRES
   225  114  115 1    
   226  114  235 1    
   227  115  116 1    
   228  115  117 1    
   229  115  236 1    
   230  116  237 1    
   231  116  238 1    
   232  116  239 1    
   233  117  118 2    
   234  117  119 am   BACKBONE|DICT|INTERRES
   235  119  120 1    
   236  119  240 1    
   237  120  121 1    
   238  120  124 1    
   239  120  241 1    
   240  121  122 am   BACKBONE|DICT|INTERRES
   241  121  123 2    
   242  122  242 1    
   243  122  243 1    
   244  124  125 1    
   245  124  244 1    
   246  124  245 1    
   247  125  126 1    
   248  126  246 1    
   249  126  247 1    
@<TRIPOS>SUBSTRUCTURE
     1 UNK         1 GROUP             0       ****    0 ROOT    
