@<TRIPOS>MOLECULE
3R540
247   249    1
SMALL
USER_CHARGES


@<TRIPOS>ATOM
      1 CA          3.9740  -17.0311  -50.8097 C.3       0 UNK        -0.1800 
      2 C           3.4896  -16.4212  -49.5025 C.2       0 UNK         0.5000 
      3 O           3.7155  -16.9942  -48.4370 O.2       0 UNK        -0.5000 
      4 N           2.8310  -15.2574  -49.5742 N.am      1 UNK        -0.5000 
      5 CA          2.2670  -14.5239  -48.4343 C.3       1 UNK         0.1400 
      6 C6          1.0408  -13.6637  -48.8626 C.3       23 UNK        -0.0398 
      7 S7         -0.3884  -13.9011  -47.7512 S.3       23 UNK        -0.2404 
      8 C8         -1.7277  -14.2654  -48.9362 C.3       23 UNK        -0.0205 
      9 C9         -1.9076  -15.7544  -49.2160 C.ar      23 UNK        -0.0193 
     10 C10        -3.1168  -16.3779  -48.8928 C.ar      23 UNK        -0.1150 
     11 C11        -3.3254  -17.7264  -49.1903 C.ar      23 UNK        -0.0193 
     12 C12        -2.3155  -18.4518  -49.8237 C.ar      23 UNK        -0.1150 
     13 C13        -1.0874  -17.8573  -50.1308 C.ar      23 UNK        -0.0193 
     14 C14        -0.8985  -16.5039  -49.8322 C.ar      23 UNK        -0.1150 
     15 C15         0.0409  -18.6409  -50.8044 C.3       23 UNK        -0.0205 
     16 S16         0.1408  -20.4131  -50.3617 S.3       23 UNK        -0.2404 
     17 C17         0.2785  -20.3350  -48.5442 C.3       23 UNK        -0.0398 
     18 CA          0.2419  -21.7095  -47.8323 C.3       11 UNK         0.1400 
     19 N           0.4709  -21.5487  -46.3959 N.am      11 UNK        -0.5000 
     20 C           0.6571  -22.5384  -45.5135 C.2       10 UNK         0.5000 
     21 O           0.7006  -23.7286  -45.8178 O.2       10 UNK        -0.5000 
     22 CA          0.7556  -22.1323  -44.0321 C.3       10 UNK         0.1400 
     23 CB          2.1417  -21.5555  -43.7107 C.3       10 UNK        -0.1800 
     24 N          -0.2857  -21.1770  -43.6486 N.am      10 UNK        -0.5000 
     25 C          -1.5985  -21.4525  -43.6677 C.2       9 UNK         0.5000 
     26 O          -2.0606  -22.5540  -43.9663 O.2       9 UNK        -0.5000 
     27 CA         -2.5587  -20.2969  -43.3359 C.3       9 UNK         0.1400 
     28 CB         -2.6818  -20.1123  -41.8163 C.3       9 UNK        -0.1800 
     29 N          -2.1567  -19.0331  -43.9526 N.am      9 UNK        -0.5000 
     30 C          -2.1090  -18.8101  -45.2743 C.2       8 UNK         0.5000 
     31 O          -2.4345  -19.6391  -46.1223 O.2       8 UNK        -0.5000 
     32 CA         -1.5417  -17.4524  -45.7226 C.3       8 UNK         0.1400 
     33 CB         -2.5717  -16.3332  -45.5080 C.3       8 UNK        -0.1800 
     34 N          -0.2968  -17.1262  -45.0265 N.am      8 UNK        -0.5000 
     35 C           0.8282  -17.8516  -45.1092 C.2       7 UNK         0.5000 
     36 O           0.9573  -18.8323  -45.8376 O.2       7 UNK        -0.5000 
     37 CA          1.9902  -17.4535  -44.1880 C.3       7 UNK         0.1400 
     38 CB          2.9713  -16.5333  -44.9179 C.3       7 UNK        -0.1800 
     39 N           1.5202  -16.8230  -42.9542 N.am      7 UNK        -0.5000 
     40 C           0.9926  -17.5245  -41.9404 C.2       6 UNK         0.5000 
     41 O           0.8501  -18.7486  -41.9608 O.2       6 UNK        -0.5000 
     42 CA          0.5135  -16.7252  -40.7175 C.3       6 UNK         0.1400 
     43 CB          1.7030  -16.1500  -39.9333 C.3       6 UNK        -0.1800 
     44 N          -0.4068  -15.6428  -41.0603 N.am      6 UNK        -0.5000 
     45 C          -1.6053  -15.7864  -41.6369 C.2       5 UNK         0.5000 
     46 O          -2.0528  -16.8693  -42.0118 O.2       5 UNK        -0.5000 
     47 CA         -2.4460  -14.5113  -41.8512 C.3       5 UNK         0.1400 
     48 CB         -3.1461  -14.0781  -40.5491 C.3       5 UNK        -0.1800 
     49 N          -1.7099  -13.4008  -42.4707 N.am      5 UNK        -0.5000 
     50 C          -0.6930  -12.6859  -41.9715 C.2       4 UNK         0.5000 
     51 O          -0.2309  -12.8278  -40.8365 O.2       4 UNK        -0.5000 
     52 CA         -0.0615  -11.6545  -42.9230 C.3       4 UNK         0.1400 
     53 CB         -0.4492  -10.2264  -42.5105 C.3       4 UNK        -0.1800 
     54 N           1.3974  -11.7665  -42.9639 N.am      4 UNK        -0.5000 
     55 C           2.0718  -12.8615  -43.3358 C.2       3 UNK         0.5000 
     56 O           1.5391  -13.9218  -43.6769 O.2       3 UNK        -0.5000 
     57 CA          3.6006  -12.7653  -43.3207 C.3       3 UNK         0.1400 
     58 CB          4.1852  -13.4519  -42.0751 C.3       3 UNK        -0.1800 
     59 N           4.0974  -13.4154  -44.5254 N.am      3 UNK        -0.5000 
     60 C           5.2365  -13.1276  -45.1623 C.2       2 UNK         0.5000 
     61 O           6.0432  -12.2840  -44.7688 O.2       2 UNK        -0.5000 
     62 CA          5.5328  -13.9095  -46.4596 C.3       2 UNK         0.1400 
     63 CB          6.5010  -15.0682  -46.1758 C.3       2 UNK        -0.1800 
     64 N           4.3474  -14.4464  -47.1359 N.am      2 UNK        -0.5000 
     65 C           3.3716  -13.7227  -47.7002 C.2       1 UNK         0.5000 
     66 O           3.3574  -12.4911  -47.6866 O.2       1 UNK        -0.5000 
     67 C          -1.0550  -22.5018  -48.1118 C.2       11 UNK         0.5000 
     68 O          -1.0315  -23.4375  -48.9138 O.2       11 UNK        -0.5000 
     69 N          -2.1505  -22.1575  -47.4178 N.am      12 UNK        -0.5000 
     70 CA         -3.4349  -22.8592  -47.4858 C.3       12 UNK         0.1400 
     71 CB         -4.4783  -22.1341  -46.6237 C.3       12 UNK        -0.1800 
     72 C          -3.3385  -24.3461  -47.0979 C.2       12 UNK         0.5000 
     73 O          -3.9597  -25.1823  -47.7535 O.2       12 UNK        -0.5000 
     74 N          -2.5463  -24.6466  -46.0619 N.am      13 UNK        -0.5000 
     75 CA         -2.2943  -26.0018  -45.5846 C.3       13 UNK         0.1400 
     76 CB         -1.7594  -25.9418  -44.1443 C.3       13 UNK        -0.1800 
     77 C          -1.3358  -26.7887  -46.4974 C.2       13 UNK         0.5000 
     78 O          -1.6897  -27.8760  -46.9550 O.2       13 UNK        -0.5000 
     79 N          -0.1273  -26.2528  -46.7119 N.am      14 UNK        -0.5000 
     80 CA          0.9929  -26.9831  -47.3071 C.3       14 UNK         0.1400 
     81 CB          2.3132  -26.3919  -46.7885 C.3       14 UNK        -0.1800 
     82 C           0.9874  -26.9905  -48.8431 C.2       14 UNK         0.5000 
     83 O           1.3842  -27.9945  -49.4363 O.2       14 UNK        -0.5000 
     84 N           0.5657  -25.8802  -49.4605 N.am      15 UNK        -0.5000 
     85 CA          0.6079  -25.6750  -50.9117 C.3       15 UNK         0.1400 
     86 CB          1.3114  -24.3366  -51.2019 C.3       15 UNK        -0.1800 
     87 C          -0.7929  -25.7076  -51.5467 C.2       15 UNK         0.5000 
     88 O          -0.9165  -25.4182  -52.7375 O.2       15 UNK        -0.5000 
     89 N          -1.8281  -26.0128  -50.7477 N.am      16 UNK        -0.5000 
     90 CA         -3.2533  -25.9864  -51.1052 C.3       16 UNK         0.1400 
     91 CB         -3.5844  -27.1072  -52.1126 C.3       16 UNK        -0.1800 
     92 C          -3.7168  -24.5901  -51.5799 C.2       16 UNK         0.5000 
     93 O          -4.5607  -24.4856  -52.4702 O.2       16 UNK        -0.5000 
     94 N          -3.1120  -23.5500  -50.9874 N.am      17 UNK        -0.5000 
     95 CA         -3.2352  -22.1201  -51.2846 C.3       17 UNK         0.1400 
     96 CB         -4.6964  -21.6346  -51.2186 C.3       17 UNK        -0.1800 
     97 C          -2.5222  -21.6724  -52.5758 C.2       17 UNK         0.5000 
     98 O          -2.5881  -20.4903  -52.9126 O.2       17 UNK        -0.5000 
     99 N          -1.8160  -22.5904  -53.2535 N.am      18 UNK        -0.5000 
    100 CA        -1.0627  -22.3776  -54.4893 C.3       18 UNK         0.1400 
    101 CB         0.2099  -21.5476  -54.2017 C.3       18 UNK        -0.1800 
    102 C         -1.9621  -21.8015  -55.6047 C.2       18 UNK         0.5000 
    103 O         -2.8628  -22.5012  -56.0713 O.2       18 UNK        -0.5000 
    104 N         -1.7125  -20.5486  -56.0025 N.am      19 UNK        -0.5000 
    105 CA        -2.4818  -19.8202  -57.0099 C.3       19 UNK         0.1400 
    106 CB        -1.5081  -18.9473  -57.8195 C.3       19 UNK        -0.1800 
    107 C         -3.6064  -18.9523  -56.4082 C.2       19 UNK         0.5000 
    108 O         -4.4124  -18.4198  -57.1737 O.2       19 UNK        -0.5000 
    109 N         -3.6431  -18.7846  -55.0780 N.am      20 UNK        -0.5000 
    110 CA        -4.6274  -17.9496  -54.3907 C.3       20 UNK         0.1400 
    111 CB        -4.0580  -17.4956  -53.0382 C.3       20 UNK        -0.1800 
    112 C         -5.9572  -18.7014  -54.2076 C.2       20 UNK         0.5000 
    113 O         -5.9591  -19.8883  -53.8749 O.2       20 UNK        -0.5000 
    114 N         -7.0734  -17.9902  -54.4009 N.am      21 UNK        -0.5000 
    115 CA        -8.4367  -18.5144  -54.2941 C.3       21 UNK         0.1400 
    116 CB        -9.3346  -17.7514  -55.2854 C.3       21 UNK        -0.1800 
    117 C         -8.9579  -18.4474  -52.8430 C.2       21 UNK         0.5000 
    118 O        -10.0108  -17.8590  -52.5885 O.2       21 UNK        -0.5000 
    119 N         -8.1974  -19.0311  -51.9098 N.am      22 UNK        -0.5000 
    120 CA        -8.4959  -19.0348  -50.4651 C.3       22 UNK         0.1400 
    121 C         -9.5819  -20.0628  -50.0296 C.2       22 UNK         0.5000 
    122 N        -10.0288  -20.9695  -50.8901 N.am      22 UNK        -0.7600 
    123 O        -10.0348  -20.0316  -48.8886 O.2       22 UNK        -0.5000 
    124 C124       -7.2156  -19.1932  -49.6054 C.3       23 UNK        -0.0398 
    125 S125       -5.9512  -17.9399  -49.9953 S.3       23 UNK        -0.2404 
    126 C126       -4.6376  -18.4028  -48.8294 C.3       23 UNK        -0.0205 
    127 H127        3.6490  -16.4506  -51.6734 H         1 UNK         0.0600 
    128 H128        5.0628  -17.0786  -50.8197 H         1 UNK         0.0600 
    129 H129        3.5868  -18.0445  -50.9164 H         1 UNK         0.0600 
    130 H130        2.7279  -14.8103  -50.4742 H         1 UNK         0.3000 
    131 H131        1.9153  -15.2745  -47.7227 H         1 UNK         0.0600 
    132 H132        1.2561  -12.5961  -48.9159 H         1 UNK         0.0800 
    133 H133        0.7363  -13.9158  -49.8779 H         1 UNK         0.0800 
    134 H134       -2.6491  -13.8509  -48.5246 H         1 UNK         0.0800 
    135 H135       -1.5632  -13.7349  -49.8747 H         1 UNK         0.0800 
    136 H136       -3.9074  -15.8126  -48.4199 H         1 UNK         0.1150 
    137 H137       -2.4869  -19.4860  -50.0705 H         1 UNK         0.1150 
    138 H138        0.0382  -16.0351  -50.0894 H         1 UNK         0.1150 
    139 H139       -0.0873  -18.5641  -51.8847 H         1 UNK         0.0800 
    140 H140        1.0023  -18.1817  -50.5713 H         1 UNK         0.0800 
    141 H141       -0.5089  -19.6942  -48.1467 H         1 UNK         0.0800 
    142 H142        1.2179  -19.8298  -48.3149 H         1 UNK         0.0800 
    143 H143        1.0699  -22.3061  -48.2208 H         1 UNK         0.0600 
    144 H144        0.4903  -20.5880  -46.0597 H         1 UNK         0.3000 
    145 H145        0.6169  -23.0327  -43.4299 H         1 UNK         0.0600 
    146 H146        2.2192  -21.2714  -42.6610 H         1 UNK         0.0600 
    147 H147        2.9223  -22.2910  -43.9084 H         1 UNK         0.0600 
    148 H148        2.3631  -20.6761  -44.3143 H         1 UNK         0.0600 
    149 H149        0.0173  -20.2565  -43.3536 H         1 UNK         0.3000 
    150 H150       -3.5436  -20.5601  -43.7266 H         1 UNK         0.0600 
    151 H151       -2.9846  -21.0414  -41.3319 H         1 UNK         0.0600 
    152 H152       -3.4302  -19.3585  -41.5715 H         1 UNK         0.0600 
    153 H153       -1.7364  -19.8000  -41.3708 H         1 UNK         0.0600 
    154 H154       -1.9081  -18.2813  -43.3153 H         1 UNK         0.3000 
    155 H155       -1.3198  -17.5169  -46.7898 H         1 UNK         0.0600 
    156 H156       -2.2035  -15.3776  -45.8790 H         1 UNK         0.0600 
    157 H157       -2.8264  -16.2101  -44.4574 H         1 UNK         0.0600 
    158 H158       -3.4989  -16.5533  -46.0376 H         1 UNK         0.0600 
    159 H159       -0.3140  -16.3408  -44.3937 H         1 UNK         0.3000 
    160 H160        2.5352  -18.3611  -43.9226 H         1 UNK         0.0600 
    161 H161        2.4654  -15.6618  -45.3298 H         1 UNK         0.0600 
    162 H162        3.4420  -17.0603  -45.7480 H         1 UNK         0.0600 
    163 H163        3.7670  -16.1981  -44.2531 H         1 UNK         0.0600 
    164 H164        1.5539  -15.8095  -42.9126 H         1 UNK         0.3000 
    165 H165       -0.0206  -17.4172  -40.0631 H         1 UNK         0.0600 
    166 H166        2.2330  -15.3880  -40.5054 H         1 UNK         0.0600 
    167 H167        1.3735  -15.6947  -38.9993 H         1 UNK         0.0600 
    168 H168        2.4204  -16.9312  -39.6787 H         1 UNK         0.0600 
    169 H169       -0.1262  -14.6981  -40.8102 H         1 UNK         0.3000 
    170 H170       -3.2317  -14.7722  -42.5615 H         1 UNK         0.0600 
    171 H171       -3.7798  -14.8791  -40.1663 H         1 UNK         0.0600 
    172 H172       -2.4348  -13.8258  -39.7625 H         1 UNK         0.0600 
    173 H173       -3.7844  -13.2103  -40.7150 H         1 UNK         0.0600 
    174 H174       -1.9819  -13.2066  -43.4244 H         1 UNK         0.3000 
    175 H175       -0.4319  -11.8320  -43.9350 H         1 UNK         0.0600 
    176 H176       -0.0548   -9.4910  -43.2120 H         1 UNK         0.0600 
    177 H177       -1.5332  -10.1066  -42.4907 H         1 UNK         0.0600 
    178 H178       -0.0737   -9.9789  -41.5166 H         1 UNK         0.0600 
    179 H179        1.9136  -10.9522  -42.6651 H         1 UNK         0.3000 
    180 H180        3.8898  -11.7122  -43.3268 H         1 UNK         0.0600 
    181 H181        3.9580  -14.5186  -42.0620 H         1 UNK         0.0600 
    182 H182        3.7807  -13.0160  -41.1608 H         1 UNK         0.0600 
    183 H183        5.2690  -13.3420  -42.0368 H         1 UNK         0.0600 
    184 H184        3.4636  -14.0910  -44.9292 H         1 UNK         0.3000 
    185 H185        6.0218  -13.2180  -47.1487 H         1 UNK         0.0600 
    186 H186        6.7902  -15.5755  -47.0965 H         1 UNK         0.0600 
    187 H187        7.4158  -14.7080  -45.7034 H         1 UNK         0.0600 
    188 H188        6.0570  -15.8089  -45.5097 H         1 UNK         0.0600 
    189 H189        4.3090  -15.4532  -47.2601 H         1 UNK         0.3000 
    190 H190       -2.1150  -21.3439  -46.8072 H         1 UNK         0.3000 
    191 H191       -3.7816  -22.8137  -48.5160 H         1 UNK         0.0600 
    192 H192       -4.6175  -21.1047  -46.9530 H         1 UNK         0.0600 
    193 H193       -5.4484  -22.6283  -46.6874 H         1 UNK         0.0600 
    194 H194       -4.1894  -22.1132  -45.5735 H         1 UNK         0.0600 
    195 H195       -2.1069  -23.8905  -45.5474 H         1 UNK         0.3000 
    196 H196       -3.2446  -26.5396  -45.5605 H         1 UNK         0.0600 
    197 H197       -1.5550  -26.9418  -43.7599 H         1 UNK         0.0600 
    198 H198       -2.4853  -25.4781  -43.4761 H         1 UNK         0.0600 
    199 H199       -0.8349  -25.3671  -44.0775 H         1 UNK         0.0600 
    200 H200        0.0874  -25.3323  -46.3298 H         1 UNK         0.3000 
    201 H201        0.9465  -28.0222  -46.9732 H         1 UNK         0.0600 
    202 H202        2.3537  -26.4106  -45.6992 H         1 UNK         0.0600 
    203 H203        2.4463  -25.3585  -47.1109 H         1 UNK         0.0600 
    204 H204        3.1674  -26.9618  -47.1561 H         1 UNK         0.0600 
    205 H205        0.2052  -25.1056  -48.9135 H         1 UNK         0.3000 
    206 H206        1.1885  -26.4632  -51.3946 H         1 UNK         0.0600 
    207 H207        2.2913  -24.2936  -50.7266 H         1 UNK         0.0600 
    208 H208        1.4665  -24.2016  -52.2728 H         1 UNK         0.0600 
    209 H209        0.7302  -23.4848  -50.8494 H         1 UNK         0.0600 
    210 H210       -1.6211  -26.2174  -49.7802 H         1 UNK         0.3000 
    211 H211       -3.8063  -26.1978  -50.1900 H         1 UNK         0.0600 
    212 H212       -3.1209  -26.9314  -53.0837 H         1 UNK         0.0600 
    213 H213       -4.6604  -27.1818  -52.2736 H         1 UNK         0.0600 
    214 H214       -3.2443  -28.0767  -51.7489 H         1 UNK         0.0600 
    215 H215       -2.4017  -23.7649  -50.2925 H         1 UNK         0.3000 
    216 H216       -2.6991  -21.6292  -50.4751 H         1 UNK         0.0600 
    217 H217       -5.1814  -21.9502  -50.2958 H         1 UNK         0.0600 
    218 H218       -5.2868  -22.0067  -52.0558 H         1 UNK         0.0600 
    219 H219       -4.7422  -20.5459  -51.2578 H         1 UNK         0.0600 
    220 H220       -1.8161  -23.5456  -52.9152 H         1 UNK         0.3000 
    221 H221       -0.7433  -23.3635  -54.8299 H         1 UNK         0.0600 
    222 H222       -0.0187  -20.5553  -53.8113 H         1 UNK         0.0600 
    223 H223        0.8377  -22.0471  -53.4639 H         1 UNK         0.0600 
    224 H224        0.8120  -21.4239  -55.1025 H         1 UNK         0.0600 
    225 H225       -0.9734  -20.0373  -55.5423 H         1 UNK         0.3000 
    226 H226       -2.9509  -20.5259  -57.6988 H         1 UNK         0.0600 
    227 H227       -0.7355  -19.5536  -58.2927 H         1 UNK         0.0600 
    228 H228       -2.0287  -18.4109  -58.6140 H         1 UNK         0.0600 
    229 H229       -1.0149  -18.2049  -57.1907 H         1 UNK         0.0600 
    230 H230       -3.0398  -19.3424  -54.4807 H         1 UNK         0.3000 
    231 H231       -4.8050  -17.0547  -54.9912 H         1 UNK         0.0600 
    232 H232       -3.0852  -17.0175  -53.1532 H         1 UNK         0.0600 
    233 H233       -3.9390  -18.3308  -52.3483 H         1 UNK         0.0600 
    234 H234       -4.7205  -16.7731  -52.5609 H         1 UNK         0.0600 
    235 H235       -6.9941  -17.0094  -54.6277 H         1 UNK         0.3000 
    236 H236       -8.4449  -19.5659  -54.5890 H         1 UNK         0.0600 
    237 H237       -8.9661  -17.8506  -56.3067 H         1 UNK         0.0600 
    238 H238      -10.3534  -18.1408  -55.2717 H         1 UNK         0.0600 
    239 H239       -9.3847  -16.6878  -55.0490 H         1 UNK         0.0600 
    240 H240       -7.3384  -19.4813  -52.2009 H         1 UNK         0.3000 
    241 H241       -8.9147  -18.0564  -50.2210 H         1 UNK         0.0600 
    242 H242       -9.6679  -21.0067  -51.8297 H         1 UNK         0.3800 
    243 H243      -10.7359  -21.6258  -50.5978 H         1 UNK         0.3800 
    244 H244       -7.4548  -19.1093  -48.5437 H         1 UNK         0.0800 
    245 H245       -6.7856  -20.1850  -49.7471 H         1 UNK         0.0800 
    246 H246       -4.9310  -18.1261  -47.8157 H         1 UNK         0.0800 
    247 H247       -4.5120  -19.4865  -48.8299 H         1 UNK         0.0800 
@<TRIPOS>BOND
     1    1    2 1    
     2    1  127 1    
     3    1  128 1    
     4    1  129 1    
     5    2    3 2    
     6    2    4 am   BACKBONE|DICT|INTERRES
     7    4    5 1    
     8    4  130 1    
     9    5    6 1    
    10    5   65 1    
    11    5  131 1    
    12    6    7 1    
    13    6  132 1    
    14    6  133 1    
    15    7    8 1    
    16    8    9 1    
    17    8  134 1    
    18    8  135 1    
    19    9   10 ar   
    20    9   14 ar   
    21   10   11 ar   
    22   10  136 1    
    23   11   12 ar   
    24   11  126 1    
    25   12   13 ar   
    26   12  137 1    
    27   13   14 ar   
    28   13   15 1    
    29   14  138 1    
    30   15   16 1    
    31   15  139 1    
    32   15  140 1    
    33   16   17 1    
    34   17   18 1    
    35   17  141 1    
    36   17  142 1    
    37   18   19 1    
    38   18   67 1    
    39   18  143 1    
    40   19   20 am   BACKBONE|DICT|INTERRES
    41   19  144 1    
    42   20   21 2    
    43   20   22 1    
    44   22   23 1    
    45   22   24 1    
    46   22  145 1    
    47   23  146 1    
    48   23  147 1    
    49   23  148 1    
    50   24   25 am   BACKBONE|DICT|INTERRES
    51   24  149 1    
    52   25   26 2    
    53   25   27 1    
    54   27   28 1    
    55   27   29 1    
    56   27  150 1    
    57   28  151 1    
    58   28  152 1    
    59   28  153 1    
    60   29   30 am   BACKBONE|DICT|INTERRES
    61   29  154 1    
    62   30   31 2    
    63   30   32 1    
    64   32   33 1    
    65   32   34 1    
    66   32  155 1    
    67   33  156 1    
    68   33  157 1    
    69   33  158 1    
    70   34   35 am   BACKBONE|DICT|INTERRES
    71   34  159 1    
    72   35   36 2    
    73   35   37 1    
    74   37   38 1    
    75   37   39 1    
    76   37  160 1    
    77   38  161 1    
    78   38  162 1    
    79   38  163 1    
    80   39   40 am   BACKBONE|DICT|INTERRES
    81   39  164 1    
    82   40   41 2    
    83   40   42 1    
    84   42   43 1    
    85   42   44 1    
    86   42  165 1    
    87   43  166 1    
    88   43  167 1    
    89   43  168 1    
    90   44   45 am   BACKBONE|DICT|INTERRES
    91   44  169 1    
    92   45   46 2    
    93   45   47 1    
    94   47   48 1    
    95   47   49 1    
    96   47  170 1    
    97   48  171 1    
    98   48  172 1    
    99   48  173 1    
   100   49   50 am   BACKBONE|DICT|INTERRES
   101   49  174 1    
   102   50   51 2    
   103   50   52 1    
   104   52   53 1    
   105   52   54 1    
   106   52  175 1    
   107   53  176 1    
   108   53  177 1    
   109   53  178 1    
   110   54   55 am   BACKBONE|DICT|INTERRES
   111   54  179 1    
   112   55   56 2    
   113   55   57 1    
   114   57   58 1    
   115   57   59 1    
   116   57  180 1    
   117   58  181 1    
   118   58  182 1    
   119   58  183 1    
   120   59   60 am   BACKBONE|DICT|INTERRES
   121   59  184 1    
   122   60   61 2    
   123   60   62 1    
   124   62   63 1    
   125   62   64 1    
   126   62  185 1    
   127   63  186 1    
   128   63  187 1    
   129   63  188 1    
   130   64   65 am   BACKBONE|DICT|INTERRES
   131   64  189 1    
   132   65   66 2    
   133   67   68 2    
   134   67   69 am   BACKBONE|DICT|INTERRES
   135   69   70 1    
   136   69  190 1    
   137   70   71 1    
   138   70   72 1    
   139   70  191 1    
   140   71  192 1    
   141   71  193 1    
   142   71  194 1    
   143   72   73 2    
   144   72   74 am   BACKBONE|DICT|INTERRES
   145   74   75 1    
   146   74  195 1    
   147   75   76 1    
   148   75   77 1    
   149   75  196 1    
   150   76  197 1    
   151   76  198 1    
   152   76  199 1    
   153   77   78 2    
   154   77   79 am   BACKBONE|DICT|INTERRES
   155   79   80 1    
   156   79  200 1    
   157   80   81 1    
   158   80   82 1    
   159   80  201 1    
   160   81  202 1    
   161   81  203 1    
   162   81  204 1    
   163   82   83 2    
   164   82   84 am   BACKBONE|DICT|INTERRES
   165   84   85 1    
   166   84  205 1    
   167   85   86 1    
   168   85   87 1    
   169   85  206 1    
   170   86  207 1    
   171   86  208 1    
   172   86  209 1    
   173   87   88 2    
   174   87   89 am   BACKBONE|DICT|INTERRES
   175   89   90 1    
   176   89  210 1    
   177   90   91 1    
   178   90   92 1    
   179   90  211 1    
   180   91  212 1    
   181   91  213 1    
   182   91  214 1    
   183   92   93 2    
   184   92   94 am   BACKBONE|DICT|INTERRES
   185   94   95 1    
   186   94  215 1    
   187   95   96 1    
   188   95   97 1    
   189   95  216 1    
   190   96  217 1    
   191   96  218 1    
   192   96  219 1    
   193   97   98 2    
   194   97   99 am   BACKBONE|DICT|INTERRES
   195   99  100 1    
   196   99  220 1    
   197  100  101 1    
   198  100  102 1    
   199  100  221 1    
   200  101  222 1    
   201  101  223 1    
   202  101  224 1    
   203  102  103 2    
   204  102  104 am   BACKBONE|DICT|INTERRES
   205  104  105 1    
   206  104  225 1    
   207  105  106 1    
   208  105  107 1    
   209  105  226 1    
   210  106  227 1    
   211  106  228 1    
   212  106  229 1    
   213  107  108 2    
   214  107  109 am   BACKBONE|DICT|INTERRES
   215  109  110 1    
   216  109  230 1    
   217  110  111 1    
   218  110  112 1    
   219  110  231 1    
   220  111  232 1    
   221  111  233 1    
   222  111  234 1    
   223  112  113 2    
   224  112  114 am   BACKBONE|DICT|INTERRES
   225  114  115 1    
   226  114  235 1    
   227  115  116 1    
   228  115  117 1    
   229  115  236 1    
   230  116  237 1    
   231  116  238 1    
   232  116  239 1    
   233  117  118 2    
   234  117  119 am   BACKBONE|DICT|INTERRES
   235  119  120 1    
   236  119  240 1    
   237  120  121 1    
   238  120  124 1    
   239  120  241 1    
   240  121  122 am   BACKBONE|DICT|INTERRES
   241  121  123 2    
   242  122  242 1    
   243  122  243 1    
   244  124  125 1    
   245  124  244 1    
   246  124  245 1    
   247  125  126 1    
   248  126  246 1    
   249  126  247 1    
@<TRIPOS>SUBSTRUCTURE
     1 UNK         1 GROUP             0       ****    0 ROOT    
