@<TRIPOS>MOLECULE
3R540
247   249    1
SMALL
USER_CHARGES


@<TRIPOS>ATOM
      1 CA          0.1001   -7.8288  -49.5445 C.3       0 UNK        -0.1800 
      2 C           0.5447   -9.2846  -49.5370 C.2       0 UNK         0.5000 
      3 O           1.6837   -9.5789  -49.8994 O.2       0 UNK        -0.5000 
      4 N          -0.3470  -10.1943  -49.1211 N.am      1 UNK        -0.5000 
      5 CA         -0.0992  -11.6426  -49.0486 C.3       1 UNK         0.1400 
      6 C6         -1.4289  -12.4459  -49.0934 C.3       23 UNK        -0.0398 
      7 S7         -1.3072  -13.9279  -50.1480 S.3       23 UNK        -0.2404 
      8 C8         -1.4776  -15.2768  -48.9398 C.3       23 UNK        -0.0205 
      9 C9         -1.4342  -16.6208  -49.6493 C.ar      23 UNK        -0.0193 
     10 C10        -2.5825  -17.1260  -50.2637 C.ar      23 UNK        -0.1150 
     11 C11        -2.5437  -18.3323  -50.9707 C.ar      23 UNK        -0.0193 
     12 C12        -1.3399  -19.0411  -51.0501 C.ar      23 UNK        -0.1150 
     13 C13        -0.1871  -18.5552  -50.4213 C.ar      23 UNK        -0.0193 
     14 C14        -0.2423  -17.3452  -49.7221 C.ar      23 UNK        -0.1150 
     15 C15         1.1324  -19.3093  -50.5264 C.3       23 UNK        -0.0205 
     16 S16         1.0971  -20.9430  -49.7207 S.3       23 UNK        -0.2404 
     17 C17         0.8480  -20.5126  -47.9638 C.3       23 UNK        -0.0398 
     18 CA         -0.3036  -21.3231  -47.3228 C.3       11 UNK         0.1400 
     19 N          -0.2136  -21.3568  -45.8613 N.am      11 UNK        -0.5000 
     20 C          -0.9768  -22.1257  -45.0705 C.2       10 UNK         0.5000 
     21 O          -1.8081  -22.9294  -45.4914 O.2       10 UNK        -0.5000 
     22 CA         -0.8302  -21.9229  -43.5530 C.3       10 UNK         0.1400 
     23 CB          0.4096  -22.6541  -43.0174 C.3       10 UNK        -0.1800 
     24 N          -0.7723  -20.5084  -43.1857 N.am      10 UNK        -0.5000 
     25 C          -1.7675  -19.6316  -43.3863 C.2       9 UNK         0.5000 
     26 O          -2.8662  -19.9379  -43.8491 O.2       9 UNK        -0.5000 
     27 CA         -1.4666  -18.1585  -43.0584 C.3       9 UNK         0.1400 
     28 CB         -1.5385  -17.9233  -41.5421 C.3       9 UNK        -0.1800 
     29 N          -0.1616  -17.7320  -43.5667 N.am      9 UNK        -0.5000 
     30 C           0.1879  -17.7145  -44.8614 C.2       8 UNK         0.5000 
     31 O          -0.5793  -17.9907  -45.7806 O.2       8 UNK        -0.5000 
     32 CA          1.6551  -17.3912  -45.1867 C.3       8 UNK         0.1400 
     33 CB          1.8920  -15.8787  -45.2315 C.3       8 UNK        -0.1800 
     34 N           2.5744  -18.0015  -44.2289 N.am      8 UNK        -0.5000 
     35 C           2.8180  -19.3163  -44.1538 C.2       7 UNK         0.5000 
     36 O           2.3123  -20.1489  -44.9063 O.2       7 UNK        -0.5000 
     37 CA          3.7521  -19.7763  -43.0206 C.3       7 UNK         0.1400 
     38 CB          5.2236  -19.5862  -43.4175 C.3       7 UNK        -0.1800 
     39 N           3.4914  -19.0738  -41.7626 N.am      7 UNK        -0.5000 
     40 C           2.3691  -19.2145  -41.0438 C.2       6 UNK         0.5000 
     41 O           1.4474  -19.9667  -41.3583 O.2       6 UNK        -0.5000 
     42 CA          2.2366  -18.3411  -39.7826 C.3       6 UNK         0.1400 
     43 CB          2.9179  -19.0186  -38.5843 C.3       6 UNK        -0.1800 
     44 N           2.7644  -16.9816  -39.9377 N.am      6 UNK        -0.5000 
     45 C           2.3127  -16.0847  -40.8239 C.2       5 UNK         0.5000 
     46 O           1.4693  -16.3395  -41.6858 O.2       5 UNK        -0.5000 
     47 CA          2.9298  -14.6782  -40.7618 C.3       5 UNK         0.1400 
     48 CB          4.0291  -14.5285  -41.8244 C.3       5 UNK        -0.1800 
     49 N           1.9017  -13.6631  -40.9838 N.am      5 UNK        -0.5000 
     50 C           0.9982  -13.2869  -40.0651 C.2       4 UNK         0.5000 
     51 O           1.0163  -13.6759  -38.8963 O.2       4 UNK        -0.5000 
     52 CA         -0.1171  -12.3194  -40.5171 C.3       4 UNK         0.1400 
     53 CB          0.2739  -10.8655  -40.2114 C.3       4 UNK        -0.1800 
     54 N          -0.4193  -12.4402  -41.9424 N.am      4 UNK        -0.5000 
     55 C          -1.0287  -13.4915  -42.5051 C.2       3 UNK         0.5000 
     56 O          -1.5984  -14.3648  -41.8524 O.2       3 UNK        -0.5000 
     57 CA         -0.9898  -13.6058  -44.0458 C.3       3 UNK         0.1400 
     58 CB         -2.4076  -13.6564  -44.6379 C.3       3 UNK        -0.1800 
     59 N          -0.2262  -12.5662  -44.7493 N.am      3 UNK        -0.5000 
     60 C           1.0912  -12.3279  -44.6561 C.2       2 UNK         0.5000 
     61 O           1.8250  -12.8854  -43.8402 O.2       2 UNK        -0.5000 
     62 CA          1.6690  -11.2581  -45.6063 C.3       2 UNK         0.1400 
     63 CB          3.1745  -11.4578  -45.8797 C.3       2 UNK        -0.1800 
     64 N           0.9167  -11.1241  -46.8613 N.am      2 UNK        -0.5000 
     65 C           0.7660  -12.0440  -47.8299 C.2       1 UNK         0.5000 
     66 O           1.2614  -13.1698  -47.7868 O.2       1 UNK        -0.5000 
     67 C          -1.6913  -20.8513  -47.8046 C.2       11 UNK         0.5000 
     68 O          -2.2661  -21.4898  -48.6825 O.2       11 UNK        -0.5000 
     69 N          -2.2335  -19.7923  -47.1879 N.am      12 UNK        -0.5000 
     70 CA         -3.5687  -19.2649  -47.4700 C.3       12 UNK         0.1400 
     71 CB         -3.7679  -17.9348  -46.7280 C.3       12 UNK        -0.1800 
     72 C          -4.6995  -20.2561  -47.1428 C.2       12 UNK         0.5000 
     73 O          -5.6636  -20.3425  -47.9041 O.2       12 UNK        -0.5000 
     74 N          -4.5561  -20.9933  -46.0332 N.am      13 UNK        -0.5000 
     75 CA         -5.4858  -22.0394  -45.6101 C.3       13 UNK         0.1400 
     76 CB         -5.1874  -22.4303  -44.1544 C.3       13 UNK        -0.1800 
     77 C          -5.4476  -23.2744  -46.5298 C.2       13 UNK         0.5000 
     78 O          -6.5039  -23.7938  -46.8924 O.2       13 UNK        -0.5000 
     79 N          -4.2363  -23.7224  -46.8853 N.am      14 UNK        -0.5000 
     80 CA         -3.9970  -24.8721  -47.7584 C.3       14 UNK         0.1400 
     81 CB         -2.5345  -25.3084  -47.6044 C.3       14 UNK        -0.1800 
     82 C          -4.3233  -24.5895  -49.2362 C.2       14 UNK         0.5000 
     83 O          -4.8321  -25.4754  -49.9254 O.2       14 UNK        -0.5000 
     84 N          -4.0151  -23.3679  -49.6920 N.am      15 UNK        -0.5000 
     85 CA         -4.1857  -22.8374  -51.0430 C.3       15 UNK         0.1400 
     86 CB         -5.6725  -22.5170  -51.3065 C.3       15 UNK        -0.1800 
     87 C          -3.5279  -23.7473  -52.0966 C.2       15 UNK         0.5000 
     88 O          -2.3024  -23.8759  -52.0976 O.2       15 UNK        -0.5000 
     89 N          -4.3475  -24.4042  -52.9286 N.am      16 UNK        -0.5000 
     90 CA         -3.9426  -25.3283  -53.9903 C.3       16 UNK         0.1400 
     91 CB         -5.2039  -25.8129  -54.7208 C.3       16 UNK        -0.1800 
     92 C          -3.1090  -26.5366  -53.5129 C.2       16 UNK         0.5000 
     93 O          -2.3836  -27.1226  -54.3170 O.2       16 UNK        -0.5000 
     94 N          -3.2216  -26.8945  -52.2255 N.am      17 UNK        -0.5000 
     95 CA         -2.4352  -27.9573  -51.6004 C.3       17 UNK         0.1400 
     96 CB         -3.1909  -28.4850  -50.3709 C.3       17 UNK        -0.1800 
     97 C          -1.0046  -27.5194  -51.2218 C.2       17 UNK         0.5000 
     98 O          -0.1655  -28.3920  -50.9938 O.2       17 UNK        -0.5000 
     99 N          -0.7438  -26.2053  -51.1499 N.am      18 UNK        -0.5000 
    100 CA         0.5588  -25.6373  -50.7924 C.3       18 UNK         0.1400 
    101 CB         0.3928  -24.6776  -49.6044 C.3       18 UNK        -0.1800 
    102 C          1.2211  -24.9112  -51.9727 C.2       18 UNK         0.5000 
    103 O          2.4313  -25.0493  -52.1587 O.2       18 UNK        -0.5000 
    104 N          0.4362  -24.1502  -52.7420 N.am      19 UNK        -0.5000 
    105 CA         0.9012  -23.3276  -53.8534 C.3       19 UNK         0.1400 
    106 CB         1.4391  -21.9834  -53.3158 C.3       19 UNK        -0.1800 
    107 C         -0.2329  -23.1884  -54.8826 C.2       19 UNK         0.5000 
    108 O         -0.8515  -24.1918  -55.2402 O.2       19 UNK        -0.5000 
    109 N         -0.4793  -21.9629  -55.3595 N.am      20 UNK        -0.5000 
    110 CA        -1.5857  -21.6233  -56.2500 C.3       20 UNK         0.1400 
    111 CB        -1.2966  -20.2594  -56.8964 C.3       20 UNK        -0.1800 
    112 C         -2.9232  -21.5810  -55.4903 C.2       20 UNK         0.5000 
    113 O         -2.9472  -21.2814  -54.2941 O.2       20 UNK        -0.5000 
    114 N         -4.0171  -21.8465  -56.2128 N.am      21 UNK        -0.5000 
    115 CA        -5.3818  -21.7005  -55.7133 C.3       21 UNK         0.1400 
    116 CB        -6.3495  -22.3842  -56.6921 C.3       21 UNK        -0.1800 
    117 C         -5.7474  -20.2137  -55.5440 C.2       21 UNK         0.5000 
    118 O         -5.4457  -19.4112  -56.4311 O.2       21 UNK        -0.5000 
    119 N         -6.4114  -19.8902  -54.4302 N.am      22 UNK        -0.5000 
    120 CA        -6.8919  -18.5379  -54.0933 C.3       22 UNK         0.1400 
    121 C         -8.4465  -18.4334  -54.0717 C.2       22 UNK         0.5000 
    122 N         -9.1935  -19.4634  -54.4524 N.am      22 UNK        -0.7600 
    123 O         -8.9926  -17.3905  -53.7219 O.2       22 UNK        -0.5000 
    124 C124       -6.2667  -18.0232  -52.7694 C.3       23 UNK        -0.0398 
    125 S125       -4.4632  -17.7511  -52.8919 S.3       23 UNK        -0.2404 
    126 C126       -3.8143  -18.8745  -51.6126 C.3       23 UNK        -0.0205 
    127 H127       -0.9277   -7.7161  -49.1987 H         1 UNK         0.0600 
    128 H128        0.1653   -7.4222  -50.5538 H         1 UNK         0.0600 
    129 H129        0.7444   -7.2362  -48.8950 H         1 UNK         0.0600 
    130 H130       -1.2684   -9.8879  -48.8409 H         1 UNK         0.3000 
    131 H131        0.4876  -11.9005  -49.9333 H         1 UNK         0.0600 
    132 H132       -1.7871  -12.7110  -48.0967 H         1 UNK         0.0800 
    133 H133       -2.2237  -11.8396  -49.5302 H         1 UNK         0.0800 
    134 H134       -0.6815  -15.2099  -48.1962 H         1 UNK         0.0800 
    135 H135       -2.4204  -15.1713  -48.4013 H         1 UNK         0.0800 
    136 H136       -3.5078  -16.5700  -50.2059 H         1 UNK         0.1150 
    137 H137       -1.3001  -19.9773  -51.5899 H         1 UNK         0.1150 
    138 H138        0.6475  -16.9535  -49.2495 H         1 UNK         0.1150 
    139 H139        1.3771  -19.4412  -51.5806 H         1 UNK         0.0800 
    140 H140        1.9493  -18.7258  -50.0992 H         1 UNK         0.0800 
    141 H141        1.7861  -20.7357  -47.4550 H         1 UNK         0.0800 
    142 H142        0.6895  -19.4402  -47.8424 H         1 UNK         0.0800 
    143 H143       -0.1934  -22.3603  -47.6470 H         1 UNK         0.0600 
    144 H144        0.4809  -20.7525  -45.4338 H         1 UNK         0.3000 
    145 H145       -1.7112  -22.3551  -43.0742 H         1 UNK         0.0600 
    146 H146        0.4682  -22.5841  -41.9311 H         1 UNK         0.0600 
    147 H147        0.3793  -23.7137  -43.2741 H         1 UNK         0.0600 
    148 H148        1.3315  -22.2421  -43.4281 H         1 UNK         0.0600 
    149 H149        0.0846  -20.1879  -42.7441 H         1 UNK         0.3000 
    150 H150       -2.2273  -17.5398  -43.5387 H         1 UNK         0.0600 
    151 H151       -2.5360  -18.1456  -41.1617 H         1 UNK         0.0600 
    152 H152       -1.3163  -16.8881  -41.2882 H         1 UNK         0.0600 
    153 H153       -0.8340  -18.5534  -41.0002 H         1 UNK         0.0600 
    154 H154        0.5151  -17.4199  -42.8741 H         1 UNK         0.3000 
    155 H155        1.8727  -17.7950  -46.1778 H         1 UNK         0.0600 
    156 H156        2.9086  -15.6434  -45.5460 H         1 UNK         0.0600 
    157 H157        1.7329  -15.4299  -44.2523 H         1 UNK         0.0600 
    158 H158        1.2138  -15.3938  -45.9351 H         1 UNK         0.0600 
    159 H159        2.9819  -17.3910  -43.5367 H         1 UNK         0.3000 
    160 H160        3.5778  -20.8423  -42.8584 H         1 UNK         0.0600 
    161 H161        5.4700  -18.5343  -43.5676 H         1 UNK         0.0600 
    162 H162        5.4476  -20.1119  -44.3467 H         1 UNK         0.0600 
    163 H163        5.8921  -19.9818  -42.6526 H         1 UNK         0.0600 
    164 H164        4.1992  -18.4332  -41.4353 H         1 UNK         0.3000 
    165 H165        1.1715  -18.2532  -39.5591 H         1 UNK         0.0600 
    166 H166        3.9963  -19.0998  -38.7260 H         1 UNK         0.0600 
    167 H167        2.7405  -18.4629  -37.6633 H         1 UNK         0.0600 
    168 H168        2.5296  -20.0268  -38.4330 H         1 UNK         0.0600 
    169 H169        3.4710  -16.6986  -39.2741 H         1 UNK         0.3000 
    170 H170        3.3752  -14.5214  -39.7771 H         1 UNK         0.0600 
    171 H171        4.8336  -15.2462  -41.6594 H         1 UNK         0.0600 
    172 H172        3.6440  -14.6931  -42.8313 H         1 UNK         0.0600 
    173 H173        4.4705  -13.5322  -41.7966 H         1 UNK         0.0600 
    174 H174        1.7976  -13.3406  -41.9416 H         1 UNK         0.3000 
    175 H175       -1.0184  -12.5596  -39.9493 H         1 UNK         0.0600 
    176 H176       -0.5304  -10.1773  -40.4721 H         1 UNK         0.0600 
    177 H177        0.4826  -10.7330  -39.1490 H         1 UNK         0.0600 
    178 H178        1.1665  -10.5645  -40.7615 H         1 UNK         0.0600 
    179 H179        0.0236  -11.7732  -42.5560 H         1 UNK         0.3000 
    180 H180       -0.5115  -14.5617  -44.2623 H         1 UNK         0.0600 
    181 H181       -2.3807  -13.8525  -45.7100 H         1 UNK         0.0600 
    182 H182       -2.9969  -14.4538  -44.1828 H         1 UNK         0.0600 
    183 H183       -2.9425  -12.7195  -44.4781 H         1 UNK         0.0600 
    184 H184       -0.7456  -12.0211  -45.4206 H         1 UNK         0.3000 
    185 H185        1.5575  -10.3065  -45.0849 H         1 UNK         0.0600 
    186 H186        3.5573  -10.6952  -46.5579 H         1 UNK         0.0600 
    187 H187        3.7520  -11.3898  -44.9571 H         1 UNK         0.0600 
    188 H188        3.3810  -12.4339  -46.3198 H         1 UNK         0.0600 
    189 H189        0.4688  -10.2301  -47.0055 H         1 UNK         0.3000 
    190 H190       -1.6773  -19.2766  -46.5097 H         1 UNK         0.3000 
    191 H191       -3.6215  -19.0660  -48.5390 H         1 UNK         0.0600 
    192 H192       -4.7389  -17.4978  -46.9634 H         1 UNK         0.0600 
    193 H193       -3.0064  -17.2087  -47.0114 H         1 UNK         0.0600 
    194 H194       -3.7176  -18.0647  -45.6469 H         1 UNK         0.0600 
    195 H195       -3.7617  -20.8121  -45.4273 H         1 UNK         0.3000 
    196 H196       -6.4967  -21.6279  -45.6472 H         1 UNK         0.0600 
    197 H197       -5.8794  -23.1980  -43.8060 H         1 UNK         0.0600 
    198 H198       -5.2891  -21.5732  -43.4884 H         1 UNK         0.0600 
    199 H199       -4.1763  -22.8221  -44.0402 H         1 UNK         0.0600 
    200 H200       -3.4127  -23.2651  -46.5028 H         1 UNK         0.3000 
    201 H201       -4.6344  -25.6961  -47.4309 H         1 UNK         0.0600 
    202 H202       -2.3336  -25.6605  -46.5925 H         1 UNK         0.0600 
    203 H203       -1.8595  -24.4768  -47.8051 H         1 UNK         0.0600 
    204 H204       -2.2789  -26.1165  -48.2893 H         1 UNK         0.0600 
    205 H205       -3.5085  -22.7397  -49.0706 H         1 UNK         0.3000 
    206 H206       -3.6311  -21.9001  -51.0705 H         1 UNK         0.0600 
    207 H207       -6.0419  -21.7907  -50.5818 H         1 UNK         0.0600 
    208 H208       -5.8110  -22.0797  -52.2949 H         1 UNK         0.0600 
    209 H209       -6.3059  -23.4018  -51.2338 H         1 UNK         0.0600 
    210 H210       -5.3411  -24.2839  -52.8007 H         1 UNK         0.3000 
    211 H211       -3.3345  -24.7638  -54.6979 H         1 UNK         0.0600 
    212 H212       -5.8474  -26.3991  -54.0635 H         1 UNK         0.0600 
    213 H213       -4.9443  -26.4419  -55.5733 H         1 UNK         0.0600 
    214 H214       -5.7888  -24.9767  -55.1011 H         1 UNK         0.0600 
    215 H215       -3.8448  -26.3706  -51.6205 H         1 UNK         0.3000 
    216 H216       -2.3412  -28.7845  -52.3073 H         1 UNK         0.0600 
    217 H217       -2.6484  -29.3058  -49.9001 H         1 UNK         0.0600 
    218 H218       -4.1752  -28.8635  -50.6470 H         1 UNK         0.0600 
    219 H219       -3.3314  -27.7113  -49.6178 H         1 UNK         0.0600 
    220 H220       -1.4687  -25.5433  -51.4063 H         1 UNK         0.3000 
    221 H221        1.2493  -26.4232  -50.4797 H         1 UNK         0.0600 
    222 H222        0.1369  -25.2267  -48.6997 H         1 UNK         0.0600 
    223 H223        1.3196  -24.1407  -49.3979 H         1 UNK         0.0600 
    224 H224       -0.3838  -23.9334  -49.7887 H         1 UNK         0.0600 
    225 H225       -0.5626  -24.0928  -52.5483 H         1 UNK         0.3000 
    226 H226        1.7139  -23.8454  -54.3667 H         1 UNK         0.0600 
    227 H227        0.6502  -21.4062  -52.8322 H         1 UNK         0.0600 
    228 H228        2.2290  -22.1395  -52.5809 H         1 UNK         0.0600 
    229 H229        1.8673  -21.3746  -54.1128 H         1 UNK         0.0600 
    230 H230        0.0462  -21.1872  -54.9852 H         1 UNK         0.3000 
    231 H231       -1.6485  -22.3782  -57.0368 H         1 UNK         0.0600 
    232 H232       -2.0897  -19.9792  -57.5910 H         1 UNK         0.0600 
    233 H233       -0.3637  -20.2787  -57.4601 H         1 UNK         0.0600 
    234 H234       -1.2225  -19.4681  -56.1491 H         1 UNK         0.0600 
    235 H235       -3.9206  -22.0379  -57.1992 H         1 UNK         0.3000 
    236 H236       -5.4496  -22.2062  -54.7482 H         1 UNK         0.0600 
    237 H237       -6.3568  -21.8878  -57.6635 H         1 UNK         0.0600 
    238 H238       -6.0811  -23.4274  -56.8565 H         1 UNK         0.0600 
    239 H239       -7.3698  -22.3668  -56.3076 H         1 UNK         0.0600 
    240 H240       -6.6357  -20.6094  -53.7596 H         1 UNK         0.3000 
    241 H241       -6.5927  -17.8402  -54.8774 H         1 UNK         0.0600 
    242 H242      -10.1979  -19.3749  -54.4392 H         1 UNK         0.3800 
    243 H243       -8.7733  -20.3172  -54.7812 H         1 UNK         0.3800 
    244 H244       -6.4987  -18.7089  -51.9536 H         1 UNK         0.0800 
    245 H245       -6.7019  -17.0637  -52.4847 H         1 UNK         0.0800 
    246 H246       -4.5539  -19.0313  -50.8269 H         1 UNK         0.0800 
    247 H247       -3.6344  -19.8453  -52.0736 H         1 UNK         0.0800 
@<TRIPOS>BOND
     1    1    2 1    
     2    1  127 1    
     3    1  128 1    
     4    1  129 1    
     5    2    3 2    
     6    2    4 am   BACKBONE|DICT|INTERRES
     7    4    5 1    
     8    4  130 1    
     9    5    6 1    
    10    5   65 1    
    11    5  131 1    
    12    6    7 1    
    13    6  132 1    
    14    6  133 1    
    15    7    8 1    
    16    8    9 1    
    17    8  134 1    
    18    8  135 1    
    19    9   10 ar   
    20    9   14 ar   
    21   10   11 ar   
    22   10  136 1    
    23   11   12 ar   
    24   11  126 1    
    25   12   13 ar   
    26   12  137 1    
    27   13   14 ar   
    28   13   15 1    
    29   14  138 1    
    30   15   16 1    
    31   15  139 1    
    32   15  140 1    
    33   16   17 1    
    34   17   18 1    
    35   17  141 1    
    36   17  142 1    
    37   18   19 1    
    38   18   67 1    
    39   18  143 1    
    40   19   20 am   BACKBONE|DICT|INTERRES
    41   19  144 1    
    42   20   21 2    
    43   20   22 1    
    44   22   23 1    
    45   22   24 1    
    46   22  145 1    
    47   23  146 1    
    48   23  147 1    
    49   23  148 1    
    50   24   25 am   BACKBONE|DICT|INTERRES
    51   24  149 1    
    52   25   26 2    
    53   25   27 1    
    54   27   28 1    
    55   27   29 1    
    56   27  150 1    
    57   28  151 1    
    58   28  152 1    
    59   28  153 1    
    60   29   30 am   BACKBONE|DICT|INTERRES
    61   29  154 1    
    62   30   31 2    
    63   30   32 1    
    64   32   33 1    
    65   32   34 1    
    66   32  155 1    
    67   33  156 1    
    68   33  157 1    
    69   33  158 1    
    70   34   35 am   BACKBONE|DICT|INTERRES
    71   34  159 1    
    72   35   36 2    
    73   35   37 1    
    74   37   38 1    
    75   37   39 1    
    76   37  160 1    
    77   38  161 1    
    78   38  162 1    
    79   38  163 1    
    80   39   40 am   BACKBONE|DICT|INTERRES
    81   39  164 1    
    82   40   41 2    
    83   40   42 1    
    84   42   43 1    
    85   42   44 1    
    86   42  165 1    
    87   43  166 1    
    88   43  167 1    
    89   43  168 1    
    90   44   45 am   BACKBONE|DICT|INTERRES
    91   44  169 1    
    92   45   46 2    
    93   45   47 1    
    94   47   48 1    
    95   47   49 1    
    96   47  170 1    
    97   48  171 1    
    98   48  172 1    
    99   48  173 1    
   100   49   50 am   BACKBONE|DICT|INTERRES
   101   49  174 1    
   102   50   51 2    
   103   50   52 1    
   104   52   53 1    
   105   52   54 1    
   106   52  175 1    
   107   53  176 1    
   108   53  177 1    
   109   53  178 1    
   110   54   55 am   BACKBONE|DICT|INTERRES
   111   54  179 1    
   112   55   56 2    
   113   55   57 1    
   114   57   58 1    
   115   57   59 1    
   116   57  180 1    
   117   58  181 1    
   118   58  182 1    
   119   58  183 1    
   120   59   60 am   BACKBONE|DICT|INTERRES
   121   59  184 1    
   122   60   61 2    
   123   60   62 1    
   124   62   63 1    
   125   62   64 1    
   126   62  185 1    
   127   63  186 1    
   128   63  187 1    
   129   63  188 1    
   130   64   65 am   BACKBONE|DICT|INTERRES
   131   64  189 1    
   132   65   66 2    
   133   67   68 2    
   134   67   69 am   BACKBONE|DICT|INTERRES
   135   69   70 1    
   136   69  190 1    
   137   70   71 1    
   138   70   72 1    
   139   70  191 1    
   140   71  192 1    
   141   71  193 1    
   142   71  194 1    
   143   72   73 2    
   144   72   74 am   BACKBONE|DICT|INTERRES
   145   74   75 1    
   146   74  195 1    
   147   75   76 1    
   148   75   77 1    
   149   75  196 1    
   150   76  197 1    
   151   76  198 1    
   152   76  199 1    
   153   77   78 2    
   154   77   79 am   BACKBONE|DICT|INTERRES
   155   79   80 1    
   156   79  200 1    
   157   80   81 1    
   158   80   82 1    
   159   80  201 1    
   160   81  202 1    
   161   81  203 1    
   162   81  204 1    
   163   82   83 2    
   164   82   84 am   BACKBONE|DICT|INTERRES
   165   84   85 1    
   166   84  205 1    
   167   85   86 1    
   168   85   87 1    
   169   85  206 1    
   170   86  207 1    
   171   86  208 1    
   172   86  209 1    
   173   87   88 2    
   174   87   89 am   BACKBONE|DICT|INTERRES
   175   89   90 1    
   176   89  210 1    
   177   90   91 1    
   178   90   92 1    
   179   90  211 1    
   180   91  212 1    
   181   91  213 1    
   182   91  214 1    
   183   92   93 2    
   184   92   94 am   BACKBONE|DICT|INTERRES
   185   94   95 1    
   186   94  215 1    
   187   95   96 1    
   188   95   97 1    
   189   95  216 1    
   190   96  217 1    
   191   96  218 1    
   192   96  219 1    
   193   97   98 2    
   194   97   99 am   BACKBONE|DICT|INTERRES
   195   99  100 1    
   196   99  220 1    
   197  100  101 1    
   198  100  102 1    
   199  100  221 1    
   200  101  222 1    
   201  101  223 1    
   202  101  224 1    
   203  102  103 2    
   204  102  104 am   BACKBONE|DICT|INTERRES
   205  104  105 1    
   206  104  225 1    
   207  105  106 1    
   208  105  107 1    
   209  105  226 1    
   210  106  227 1    
   211  106  228 1    
   212  106  229 1    
   213  107  108 2    
   214  107  109 am   BACKBONE|DICT|INTERRES
   215  109  110 1    
   216  109  230 1    
   217  110  111 1    
   218  110  112 1    
   219  110  231 1    
   220  111  232 1    
   221  111  233 1    
   222  111  234 1    
   223  112  113 2    
   224  112  114 am   BACKBONE|DICT|INTERRES
   225  114  115 1    
   226  114  235 1    
   227  115  116 1    
   228  115  117 1    
   229  115  236 1    
   230  116  237 1    
   231  116  238 1    
   232  116  239 1    
   233  117  118 2    
   234  117  119 am   BACKBONE|DICT|INTERRES
   235  119  120 1    
   236  119  240 1    
   237  120  121 1    
   238  120  124 1    
   239  120  241 1    
   240  121  122 am   BACKBONE|DICT|INTERRES
   241  121  123 2    
   242  122  242 1    
   243  122  243 1    
   244  124  125 1    
   245  124  244 1    
   246  124  245 1    
   247  125  126 1    
   248  126  246 1    
   249  126  247 1    
@<TRIPOS>SUBSTRUCTURE
     1 UNK         1 GROUP             0       ****    0 ROOT    
