@<TRIPOS>MOLECULE
3R540
247   249    1
SMALL
USER_CHARGES


@<TRIPOS>ATOM
      1 CA         -3.3880  -15.0915  -48.7574 C.3       0 UNK        -0.1800 
      2 C          -2.2379  -14.7923  -47.8089 C.2       0 UNK         0.5000 
      3 O          -2.4407  -14.1356  -46.7876 O.2       0 UNK        -0.5000 
      4 N          -1.0328  -15.2827  -48.1300 N.am      1 UNK        -0.5000 
      5 CA          0.2090  -15.0400  -47.3817 C.3       1 UNK         0.1400 
      6 C6          1.4440  -15.6513  -48.0779 C.3       23 UNK        -0.0398 
      7 S7          1.7065  -14.9922  -49.7536 S.3       23 UNK        -0.2404 
      8 C8          2.9851  -16.1346  -50.3649 C.3       23 UNK        -0.0205 
      9 C9          2.4397  -17.5363  -50.5997 C.ar      23 UNK        -0.0193 
     10 C10         1.5528  -17.7709  -51.6537 C.ar      23 UNK        -0.1150 
     11 C11         1.0724  -19.0581  -51.9056 C.ar      23 UNK        -0.0193 
     12 C12         1.4712  -20.1128  -51.0789 C.ar      23 UNK        -0.1150 
     13 C13         2.3521  -19.8937  -50.0157 C.ar      23 UNK        -0.0193 
     14 C14         2.8380  -18.6022  -49.7858 C.ar      23 UNK        -0.1150 
     15 C15         2.8138  -21.0645  -49.1539 C.3       23 UNK        -0.0205 
     16 S16         2.4482  -20.8514  -47.3807 S.3       23 UNK        -0.2404 
     17 C17         0.6258  -20.9090  -47.3473 C.3       23 UNK        -0.0398 
     18 CA          0.0591  -22.2735  -46.8858 C.3       11 UNK         0.1400 
     19 N           0.5911  -22.7144  -45.5921 N.am      11 UNK        -0.5000 
     20 C           0.4726  -23.9669  -45.1240 C.2       10 UNK         0.5000 
     21 O          -0.0937  -24.8699  -45.7387 O.2       10 UNK        -0.5000 
     22 CA          1.0234  -24.2530  -43.7131 C.3       10 UNK         0.1400 
     23 CB          2.5015  -24.6623  -43.7907 C.3       10 UNK        -0.1800 
     24 N           0.8890  -23.1254  -42.7918 N.am      10 UNK        -0.5000 
     25 C          -0.2475  -22.4773  -42.4992 C.2       9 UNK         0.5000 
     26 O          -1.3530  -22.8232  -42.9165 O.2       9 UNK        -0.5000 
     27 CA         -0.1247  -21.1964  -41.6484 C.3       9 UNK         0.1400 
     28 CB         -0.5950  -21.4619  -40.2110 C.3       9 UNK        -0.1800 
     29 N           1.2263  -20.6220  -41.6128 N.am      9 UNK        -0.5000 
     30 C           1.9169  -20.1814  -42.6743 C.2       8 UNK         0.5000 
     31 O           1.4893  -20.2121  -43.8316 O.2       8 UNK        -0.5000 
     32 CA          3.3585  -19.7234  -42.3856 C.3       8 UNK         0.1400 
     33 CB          4.2811  -20.9451  -42.2419 C.3       8 UNK        -0.1800 
     34 N           3.8950  -18.8627  -43.4370 N.am      8 UNK        -0.5000 
     35 C           3.4986  -17.6083  -43.6725 C.2       7 UNK         0.5000 
     36 O           2.6616  -17.0102  -42.9893 O.2       7 UNK        -0.5000 
     37 CA          4.1663  -16.9098  -44.8669 C.3       7 UNK         0.1400 
     38 CB          3.7897  -17.5843  -46.1961 C.3       7 UNK        -0.1800 
     39 N           3.7417  -15.5168  -44.8891 N.am      7 UNK        -0.5000 
     40 C           4.5092  -14.4587  -45.1726 C.2       6 UNK         0.5000 
     41 O           5.6719  -14.5419  -45.5696 O.2       6 UNK        -0.5000 
     42 CA          3.8756  -13.0695  -44.9643 C.3       6 UNK         0.1400 
     43 CB          3.4075  -12.4799  -46.3040 C.3       6 UNK        -0.1800 
     44 N           2.7326  -13.1312  -44.0554 N.am      6 UNK        -0.5000 
     45 C           2.7940  -13.0867  -42.7188 C.2       5 UNK         0.5000 
     46 O           3.8326  -12.8748  -42.0905 O.2       5 UNK        -0.5000 
     47 CA          1.4672  -13.3481  -41.9717 C.3       5 UNK         0.1400 
     48 CB          1.4299  -12.7273  -40.5599 C.3       5 UNK        -0.1800 
     49 N           0.2876  -12.9667  -42.7578 N.am      5 UNK        -0.5000 
     50 C          -0.0741  -11.7372  -43.1566 C.2       4 UNK         0.5000 
     51 O           0.5111  -10.7054  -42.8263 O.2       4 UNK        -0.5000 
     52 CA         -1.2753  -11.6409  -44.1204 C.3       4 UNK         0.1400 
     53 CB         -0.7860  -11.3246  -45.5425 C.3       4 UNK        -0.1800 
     54 N          -2.0880  -12.8580  -44.1689 N.am      4 UNK        -0.5000 
     55 C          -2.9116  -13.2728  -43.1967 C.2       3 UNK         0.5000 
     56 O          -3.1194  -12.6444  -42.1584 O.2       3 UNK        -0.5000 
     57 CA         -3.5893  -14.6368  -43.4115 C.3       3 UNK         0.1400 
     58 CB         -4.8768  -14.4852  -44.2361 C.3       3 UNK        -0.1800 
     59 N          -2.6959  -15.5889  -44.0736 N.am      3 UNK        -0.5000 
     60 C          -1.6976  -16.2424  -43.4624 C.2       2 UNK         0.5000 
     61 O          -1.4364  -16.1268  -42.2654 O.2       2 UNK        -0.5000 
     62 CA         -0.8379  -17.1693  -44.3425 C.3       2 UNK         0.1400 
     63 CB         -1.5151  -18.5378  -44.4920 C.3       2 UNK        -0.1800 
     64 N          -0.5860  -16.6186  -45.6742 N.am      2 UNK        -0.5000 
     65 C           0.1466  -15.5247  -45.9198 C.2       1 UNK         0.5000 
     66 O           0.7387  -14.8872  -45.0502 O.2       1 UNK        -0.5000 
     67 C          -1.4848  -22.2470  -46.8953 C.2       11 UNK         0.5000 
     68 O          -2.0799  -22.4983  -47.9432 O.2       11 UNK        -0.5000 
     69 N          -2.1124  -21.9634  -45.7434 N.am      12 UNK        -0.5000 
     70 CA         -3.5646  -22.0372  -45.5688 C.3       12 UNK         0.1400 
     71 CB         -4.0174  -21.1525  -44.3972 C.3       12 UNK        -0.1800 
     72 C          -4.0352  -23.4852  -45.3680 C.2       12 UNK         0.5000 
     73 O          -5.0586  -23.8653  -45.9343 O.2       12 UNK        -0.5000 
     74 N          -3.2668  -24.2785  -44.6068 N.am      13 UNK        -0.5000 
     75 CA         -3.5262  -25.7005  -44.3574 C.3       13 UNK         0.1400 
     76 CB         -2.5279  -26.2305  -43.3182 C.3       13 UNK        -0.1800 
     77 C          -3.4825  -26.5538  -45.6406 C.2       13 UNK         0.5000 
     78 O          -4.3084  -27.4518  -45.8056 O.2       13 UNK        -0.5000 
     79 N          -2.5504  -26.2234  -46.5447 N.am      14 UNK        -0.5000 
     80 CA         -2.4328  -26.8016  -47.8849 C.3       14 UNK         0.1400 
     81 CB         -1.0136  -26.5261  -48.4088 C.3       14 UNK        -0.1800 
     82 C          -3.4780  -26.2609  -48.8845 C.2       14 UNK         0.5000 
     83 O          -3.5717  -26.7898  -49.9922 O.2       14 UNK        -0.5000 
     84 N          -4.2064  -25.2003  -48.5000 N.am      15 UNK        -0.5000 
     85 CA         -5.1711  -24.4225  -49.2890 C.3       15 UNK         0.1400 
     86 CB         -6.3590  -25.2934  -49.7447 C.3       15 UNK        -0.1800 
     87 C          -4.5373  -23.6342  -50.4549 C.2       15 UNK         0.5000 
     88 O          -5.2612  -23.1056  -51.2986 O.2       15 UNK        -0.5000 
     89 N          -3.2037  -23.5226  -50.4651 N.am      16 UNK        -0.5000 
     90 CA         -2.4263  -22.8000  -51.4664 C.3       16 UNK         0.1400 
     91 CB         -0.9433  -23.1677  -51.3135 C.3       16 UNK        -0.1800 
     92 C          -2.6363  -21.2815  -51.3656 C.2       16 UNK         0.5000 
     93 O          -2.7995  -20.6277  -52.3912 O.2       16 UNK        -0.5000 
     94 N          -2.6759  -20.7541  -50.1336 N.am      17 UNK        -0.5000 
     95 CA         -2.9711  -19.3452  -49.8580 C.3       17 UNK         0.1400 
     96 CB         -2.5656  -19.0047  -48.4143 C.3       17 UNK        -0.1800 
     97 C          -4.4495  -18.9841  -50.1018 C.2       17 UNK         0.5000 
     98 O          -4.7486  -17.8245  -50.3855 O.2       17 UNK        -0.5000 
     99 N          -5.3446  -19.9741  -49.9768 N.am      18 UNK        -0.5000 
    100 CA        -6.7774  -19.8256  -50.2293 C.3       18 UNK         0.1400 
    101 CB        -7.5404  -20.9605  -49.5276 C.3       18 UNK        -0.1800 
    102 C         -7.0993  -19.7922  -51.7346 C.2       18 UNK         0.5000 
    103 O         -7.9669  -19.0241  -52.1525 O.2       18 UNK        -0.5000 
    104 N         -6.3993  -20.6220  -52.5193 N.am      19 UNK        -0.5000 
    105 CA        -6.5175  -20.6962  -53.9723 C.3       19 UNK         0.1400 
    106 CB        -5.7963  -21.9599  -54.4675 C.3       19 UNK        -0.1800 
    107 C         -5.9357  -19.4467  -54.6567 C.2       19 UNK         0.5000 
    108 O         -4.7865  -19.0849  -54.3995 O.2       19 UNK        -0.5000 
    109 N         -6.7096  -18.8452  -55.5698 N.am      20 UNK        -0.5000 
    110 CA        -6.2964  -17.6885  -56.3749 C.3       20 UNK         0.1400 
    111 CB        -7.5176  -17.1398  -57.1283 C.3       20 UNK        -0.1800 
    112 C         -5.1511  -18.0054  -57.3594 C.2       20 UNK         0.5000 
    113 O         -4.3925  -17.1075  -57.7253 O.2       20 UNK        -0.5000 
    114 N         -5.0370  -19.2824  -57.7478 N.am      21 UNK        -0.5000 
    115 CA        -3.9782  -19.8216  -58.6006 C.3       21 UNK         0.1400 
    116 CB        -4.5121  -21.0913  -59.2849 C.3       21 UNK        -0.1800 
    117 C         -2.6664  -20.1239  -57.8433 C.2       21 UNK         0.5000 
    118 O         -1.6951  -20.5244  -58.4855 O.2       21 UNK        -0.5000 
    119 N         -2.6522  -19.9558  -56.5110 N.am      22 UNK        -0.5000 
    120 CA        -1.5316  -20.2788  -55.6070 C.3       22 UNK         0.1400 
    121 C         -1.3109  -21.8118  -55.3926 C.2       22 UNK         0.5000 
    122 N         -2.2664  -22.6713  -55.7282 N.am      22 UNK        -0.7600 
    123 O         -0.2702  -22.2406  -54.9041 O.2       22 UNK        -0.5000 
    124 C124       -0.2260  -19.5064  -55.9766 C.3       23 UNK        -0.0398 
    125 S125        1.0125  -19.1547  -54.6676 S.3       23 UNK        -0.2404 
    126 C126        0.1362  -19.3081  -53.0781 C.3       23 UNK        -0.0205 
    127 H127       -3.8414  -14.1619  -49.1008 H         1 UNK         0.0600 
    128 H128       -4.1533  -15.6769  -48.2478 H         1 UNK         0.0600 
    129 H129       -3.0566  -15.6514  -49.6322 H         1 UNK         0.0600 
    130 H130       -0.9213  -15.7911  -48.9956 H         1 UNK         0.3000 
    131 H131        0.3472  -13.9580  -47.3476 H         1 UNK         0.0600 
    132 H132        2.3488  -15.4446  -47.5050 H         1 UNK         0.0800 
    133 H133        1.3464  -16.7367  -48.1323 H         1 UNK         0.0800 
    134 H134        3.3830  -15.7470  -51.3037 H         1 UNK         0.0800 
    135 H135        3.8209  -16.1525  -49.6636 H         1 UNK         0.0800 
    136 H136        1.2499  -16.9520  -52.2913 H         1 UNK         0.1150 
    137 H137        1.1114  -21.1111  -51.2761 H         1 UNK         0.1150 
    138 H138        3.5332  -18.4332  -48.9764 H         1 UNK         0.1150 
    139 H139        2.3682  -22.0006  -49.4943 H         1 UNK         0.0800 
    140 H140        3.8917  -21.1789  -49.2744 H         1 UNK         0.0800 
    141 H141        0.2474  -20.6612  -48.3399 H         1 UNK         0.0800 
    142 H142        0.2925  -20.1096  -46.6862 H         1 UNK         0.0800 
    143 H143        0.3614  -23.0150  -47.6288 H         1 UNK         0.0600 
    144 H144        1.0576  -22.0104  -45.0308 H         1 UNK         0.3000 
    145 H145        0.4588  -25.0870  -43.2948 H         1 UNK         0.0600 
    146 H146        2.8849  -24.9478  -42.8110 H         1 UNK         0.0600 
    147 H147        2.6349  -25.5190  -44.4528 H         1 UNK         0.0600 
    148 H148        3.1238  -23.8519  -44.1728 H         1 UNK         0.0600 
    149 H149        1.7451  -22.7641  -42.4002 H         1 UNK         0.3000 
    150 H150       -0.7881  -20.4529  -42.0920 H         1 UNK         0.0600 
    151 H151        0.0483  -22.1820  -39.7037 H         1 UNK         0.0600 
    152 H152       -1.6097  -21.8627  -40.1991 H         1 UNK         0.0600 
    153 H153       -0.6039  -20.5444  -39.6224 H         1 UNK         0.0600 
    154 H154        1.6610  -20.5783  -40.7022 H         1 UNK         0.3000 
    155 H155        3.3636  -19.1643  -41.4475 H         1 UNK         0.0600 
    156 H156        4.3045  -21.5414  -43.1553 H         1 UNK         0.0600 
    157 H157        3.9523  -21.5978  -41.4322 H         1 UNK         0.0600 
    158 H158        5.3033  -20.6424  -42.0136 H         1 UNK         0.0600 
    159 H159        4.5559  -19.2915  -44.0676 H         1 UNK         0.3000 
    160 H160        5.2476  -16.9647  -44.7242 H         1 UNK         0.0600 
    161 H161        2.7089  -17.6744  -46.3087 H         1 UNK         0.0600 
    162 H162        4.2071  -18.5895  -46.2565 H         1 UNK         0.0600 
    163 H163        4.1785  -17.0257  -47.0473 H         1 UNK         0.0600 
    164 H164        2.8112  -15.3588  -44.5174 H         1 UNK         0.3000 
    165 H165        4.6388  -12.4106  -44.5451 H         1 UNK         0.0600 
    166 H166        3.0031  -11.4762  -46.1714 H         1 UNK         0.0600 
    167 H167        4.2357  -12.4064  -47.0100 H         1 UNK         0.0600 
    168 H168        2.6343  -13.0921  -46.7673 H         1 UNK         0.0600 
    169 H169        1.8453  -13.4004  -44.4682 H         1 UNK         0.3000 
    170 H170        1.4038  -14.4310  -41.8534 H         1 UNK         0.0600 
    171 H171        2.2128  -13.1489  -39.9285 H         1 UNK         0.0600 
    172 H172        1.5794  -11.6478  -40.5849 H         1 UNK         0.0600 
    173 H173        0.4771  -12.9241  -40.0684 H         1 UNK         0.0600 
    174 H174       -0.2464  -13.7414  -43.1278 H         1 UNK         0.3000 
    175 H175       -1.9071  -10.8173  -43.7816 H         1 UNK         0.0600 
    176 H176       -0.2328  -10.3849  -45.5670 H         1 UNK         0.0600 
    177 H177       -0.1238  -12.1038  -45.9198 H         1 UNK         0.0600 
    178 H178       -1.6211  -11.2289  -46.2369 H         1 UNK         0.0600 
    179 H179       -2.0381  -13.4053  -45.0237 H         1 UNK         0.3000 
    180 H180       -3.8611  -15.0347  -42.4313 H         1 UNK         0.0600 
    181 H181       -4.6770  -14.0892  -45.2323 H         1 UNK         0.0600 
    182 H182       -5.5739  -13.8037  -43.7469 H         1 UNK         0.0600 
    183 H183       -5.3855  -15.4423  -44.3517 H         1 UNK         0.0600 
    184 H184       -2.8027  -15.6843  -45.0737 H         1 UNK         0.3000 
    185 H185        0.1196  -17.3129  -43.8382 H         1 UNK         0.0600 
    186 H186       -1.8604  -18.9160  -43.5295 H         1 UNK         0.0600 
    187 H187       -2.3784  -18.4815  -45.1548 H         1 UNK         0.0600 
    188 H188       -0.8262  -19.2754  -44.8979 H         1 UNK         0.0600 
    189 H189       -1.0444  -17.0711  -46.4499 H         1 UNK         0.3000 
    190 H190       -1.5630  -21.8371  -44.9041 H         1 UNK         0.3000 
    191 H191       -4.0509  -21.6600  -46.4713 H         1 UNK         0.0600 
    192 H192       -3.8921  -20.0977  -44.6310 H         1 UNK         0.0600 
    193 H193       -5.0765  -21.3012  -44.1824 H         1 UNK         0.0600 
    194 H194       -3.4667  -21.3662  -43.4816 H         1 UNK         0.0600 
    195 H195       -2.4704  -23.8668  -44.1298 H         1 UNK         0.3000 
    196 H196       -4.5306  -25.7821  -43.9367 H         1 UNK         0.0600 
    197 H197       -2.7750  -27.2528  -43.0296 H         1 UNK         0.0600 
    198 H198       -2.5363  -25.6239  -42.4123 H         1 UNK         0.0600 
    199 H199       -1.5111  -26.2401  -43.7089 H         1 UNK         0.0600 
    200 H200       -1.8522  -25.5299  -46.2912 H         1 UNK         0.3000 
    201 H201       -2.5710  -27.8824  -47.8151 H         1 UNK         0.0600 
    202 H202       -0.8625  -26.9703  -49.3935 H         1 UNK         0.0600 
    203 H203       -0.2596  -26.9488  -47.7443 H         1 UNK         0.0600 
    204 H204       -0.8188  -25.4562  -48.4969 H         1 UNK         0.0600 
    205 H205       -4.0777  -24.8661  -47.5530 H         1 UNK         0.3000 
    206 H206       -5.5673  -23.6672  -48.6094 H         1 UNK         0.0600 
    207 H207       -6.7965  -25.8329  -48.9047 H         1 UNK         0.0600 
    208 H208       -7.1482  -24.6800  -50.1810 H         1 UNK         0.0600 
    209 H209       -6.0634  -26.0239  -50.4979 H         1 UNK         0.0600 
    210 H210       -2.6922  -23.8983  -49.6791 H         1 UNK         0.3000 
    211 H211       -2.7595  -23.1228  -52.4553 H         1 UNK         0.0600 
    212 H212       -0.5360  -22.8292  -50.3598 H         1 UNK         0.0600 
    213 H213       -0.3512  -22.7168  -52.1100 H         1 UNK         0.0600 
    214 H214       -0.7965  -24.2461  -51.3764 H         1 UNK         0.0600 
    215 H215       -2.5317  -21.3699  -49.3368 H         1 UNK         0.3000 
    216 H216       -2.3705  -18.7297  -50.5317 H         1 UNK         0.0600 
    217 H217       -2.8337  -17.9784  -48.1633 H         1 UNK         0.0600 
    218 H218       -1.4899  -19.0956  -48.2768 H         1 UNK         0.0600 
    219 H219       -3.0594  -19.6547  -47.6917 H         1 UNK         0.0600 
    220 H220       -5.0080  -20.9013  -49.7690 H         1 UNK         0.3000 
    221 H221       -7.1104  -18.8803  -49.7951 H         1 UNK         0.0600 
    222 H222       -7.2760  -21.9387  -49.9293 H         1 UNK         0.0600 
    223 H223       -7.3374  -20.9708  -48.4566 H         1 UNK         0.0600 
    224 H224       -8.6170  -20.8381  -49.6528 H         1 UNK         0.0600 
    225 H225       -5.7253  -21.2476  -52.0935 H         1 UNK         0.3000 
    226 H226       -7.5761  -20.7843  -54.2251 H         1 UNK         0.0600 
    227 H227       -5.8603  -22.0519  -55.5523 H         1 UNK         0.0600 
    228 H228       -4.7395  -21.9487  -54.1964 H         1 UNK         0.0600 
    229 H229       -6.2386  -22.8589  -54.0376 H         1 UNK         0.0600 
    230 H230       -7.6440  -19.1936  -55.7304 H         1 UNK         0.3000 
    231 H231       -5.9377  -16.9140  -55.6936 H         1 UNK         0.0600 
    232 H232       -7.9343  -17.8794  -57.8132 H         1 UNK         0.0600 
    233 H233       -7.2511  -16.2609  -57.7170 H         1 UNK         0.0600 
    234 H234       -8.3054  -16.8389  -56.4374 H         1 UNK         0.0600 
    235 H235       -5.7170  -19.9433  -57.4029 H         1 UNK         0.3000 
    236 H236       -3.7428  -19.0904  -59.3767 H         1 UNK         0.0600 
    237 H237       -5.4098  -20.8783  -59.8657 H         1 UNK         0.0600 
    238 H238       -3.7754  -21.5070  -59.9737 H         1 UNK         0.0600 
    239 H239       -4.7574  -21.8677  -58.5592 H         1 UNK         0.0600 
    240 H240       -3.4875  -19.6153  -56.0495 H         1 UNK         0.3000 
    241 H241       -1.8847  -19.9009  -54.6521 H         1 UNK         0.0600 
    242 H242       -3.1271  -22.3493  -56.1366 H         1 UNK         0.3800 
    243 H243       -2.1115  -23.6572  -55.5908 H         1 UNK         0.3800 
    244 H244        0.2926  -20.0182  -56.7886 H         1 UNK         0.0800 
    245 H245       -0.4974  -18.5313  -56.3833 H         1 UNK         0.0800 
    246 H246       -0.6964  -18.6042  -53.0382 H         1 UNK         0.0800 
    247 H247       -0.2825  -20.3097  -52.9990 H         1 UNK         0.0800 
@<TRIPOS>BOND
     1    1    2 1    
     2    1  127 1    
     3    1  128 1    
     4    1  129 1    
     5    2    3 2    
     6    2    4 am   BACKBONE|DICT|INTERRES
     7    4    5 1    
     8    4  130 1    
     9    5    6 1    
    10    5   65 1    
    11    5  131 1    
    12    6    7 1    
    13    6  132 1    
    14    6  133 1    
    15    7    8 1    
    16    8    9 1    
    17    8  134 1    
    18    8  135 1    
    19    9   10 ar   
    20    9   14 ar   
    21   10   11 ar   
    22   10  136 1    
    23   11   12 ar   
    24   11  126 1    
    25   12   13 ar   
    26   12  137 1    
    27   13   14 ar   
    28   13   15 1    
    29   14  138 1    
    30   15   16 1    
    31   15  139 1    
    32   15  140 1    
    33   16   17 1    
    34   17   18 1    
    35   17  141 1    
    36   17  142 1    
    37   18   19 1    
    38   18   67 1    
    39   18  143 1    
    40   19   20 am   BACKBONE|DICT|INTERRES
    41   19  144 1    
    42   20   21 2    
    43   20   22 1    
    44   22   23 1    
    45   22   24 1    
    46   22  145 1    
    47   23  146 1    
    48   23  147 1    
    49   23  148 1    
    50   24   25 am   BACKBONE|DICT|INTERRES
    51   24  149 1    
    52   25   26 2    
    53   25   27 1    
    54   27   28 1    
    55   27   29 1    
    56   27  150 1    
    57   28  151 1    
    58   28  152 1    
    59   28  153 1    
    60   29   30 am   BACKBONE|DICT|INTERRES
    61   29  154 1    
    62   30   31 2    
    63   30   32 1    
    64   32   33 1    
    65   32   34 1    
    66   32  155 1    
    67   33  156 1    
    68   33  157 1    
    69   33  158 1    
    70   34   35 am   BACKBONE|DICT|INTERRES
    71   34  159 1    
    72   35   36 2    
    73   35   37 1    
    74   37   38 1    
    75   37   39 1    
    76   37  160 1    
    77   38  161 1    
    78   38  162 1    
    79   38  163 1    
    80   39   40 am   BACKBONE|DICT|INTERRES
    81   39  164 1    
    82   40   41 2    
    83   40   42 1    
    84   42   43 1    
    85   42   44 1    
    86   42  165 1    
    87   43  166 1    
    88   43  167 1    
    89   43  168 1    
    90   44   45 am   BACKBONE|DICT|INTERRES
    91   44  169 1    
    92   45   46 2    
    93   45   47 1    
    94   47   48 1    
    95   47   49 1    
    96   47  170 1    
    97   48  171 1    
    98   48  172 1    
    99   48  173 1    
   100   49   50 am   BACKBONE|DICT|INTERRES
   101   49  174 1    
   102   50   51 2    
   103   50   52 1    
   104   52   53 1    
   105   52   54 1    
   106   52  175 1    
   107   53  176 1    
   108   53  177 1    
   109   53  178 1    
   110   54   55 am   BACKBONE|DICT|INTERRES
   111   54  179 1    
   112   55   56 2    
   113   55   57 1    
   114   57   58 1    
   115   57   59 1    
   116   57  180 1    
   117   58  181 1    
   118   58  182 1    
   119   58  183 1    
   120   59   60 am   BACKBONE|DICT|INTERRES
   121   59  184 1    
   122   60   61 2    
   123   60   62 1    
   124   62   63 1    
   125   62   64 1    
   126   62  185 1    
   127   63  186 1    
   128   63  187 1    
   129   63  188 1    
   130   64   65 am   BACKBONE|DICT|INTERRES
   131   64  189 1    
   132   65   66 2    
   133   67   68 2    
   134   67   69 am   BACKBONE|DICT|INTERRES
   135   69   70 1    
   136   69  190 1    
   137   70   71 1    
   138   70   72 1    
   139   70  191 1    
   140   71  192 1    
   141   71  193 1    
   142   71  194 1    
   143   72   73 2    
   144   72   74 am   BACKBONE|DICT|INTERRES
   145   74   75 1    
   146   74  195 1    
   147   75   76 1    
   148   75   77 1    
   149   75  196 1    
   150   76  197 1    
   151   76  198 1    
   152   76  199 1    
   153   77   78 2    
   154   77   79 am   BACKBONE|DICT|INTERRES
   155   79   80 1    
   156   79  200 1    
   157   80   81 1    
   158   80   82 1    
   159   80  201 1    
   160   81  202 1    
   161   81  203 1    
   162   81  204 1    
   163   82   83 2    
   164   82   84 am   BACKBONE|DICT|INTERRES
   165   84   85 1    
   166   84  205 1    
   167   85   86 1    
   168   85   87 1    
   169   85  206 1    
   170   86  207 1    
   171   86  208 1    
   172   86  209 1    
   173   87   88 2    
   174   87   89 am   BACKBONE|DICT|INTERRES
   175   89   90 1    
   176   89  210 1    
   177   90   91 1    
   178   90   92 1    
   179   90  211 1    
   180   91  212 1    
   181   91  213 1    
   182   91  214 1    
   183   92   93 2    
   184   92   94 am   BACKBONE|DICT|INTERRES
   185   94   95 1    
   186   94  215 1    
   187   95   96 1    
   188   95   97 1    
   189   95  216 1    
   190   96  217 1    
   191   96  218 1    
   192   96  219 1    
   193   97   98 2    
   194   97   99 am   BACKBONE|DICT|INTERRES
   195   99  100 1    
   196   99  220 1    
   197  100  101 1    
   198  100  102 1    
   199  100  221 1    
   200  101  222 1    
   201  101  223 1    
   202  101  224 1    
   203  102  103 2    
   204  102  104 am   BACKBONE|DICT|INTERRES
   205  104  105 1    
   206  104  225 1    
   207  105  106 1    
   208  105  107 1    
   209  105  226 1    
   210  106  227 1    
   211  106  228 1    
   212  106  229 1    
   213  107  108 2    
   214  107  109 am   BACKBONE|DICT|INTERRES
   215  109  110 1    
   216  109  230 1    
   217  110  111 1    
   218  110  112 1    
   219  110  231 1    
   220  111  232 1    
   221  111  233 1    
   222  111  234 1    
   223  112  113 2    
   224  112  114 am   BACKBONE|DICT|INTERRES
   225  114  115 1    
   226  114  235 1    
   227  115  116 1    
   228  115  117 1    
   229  115  236 1    
   230  116  237 1    
   231  116  238 1    
   232  116  239 1    
   233  117  118 2    
   234  117  119 am   BACKBONE|DICT|INTERRES
   235  119  120 1    
   236  119  240 1    
   237  120  121 1    
   238  120  124 1    
   239  120  241 1    
   240  121  122 am   BACKBONE|DICT|INTERRES
   241  121  123 2    
   242  122  242 1    
   243  122  243 1    
   244  124  125 1    
   245  124  244 1    
   246  124  245 1    
   247  125  126 1    
   248  126  246 1    
   249  126  247 1    
@<TRIPOS>SUBSTRUCTURE
     1 UNK         1 GROUP             0       ****    0 ROOT    
