@<TRIPOS>MOLECULE
3R540
247   249    1
SMALL
USER_CHARGES


@<TRIPOS>ATOM
      1 CA         -6.3848  -13.7499  -48.6566 C.3       0 UNK        -0.1800 
      2 C          -5.0348  -13.4339  -48.0299 C.2       0 UNK         0.5000 
      3 O          -4.9770  -12.9619  -46.8943 O.2       0 UNK        -0.5000 
      4 N          -3.9440  -13.7082  -48.7587 N.am      1 UNK        -0.5000 
      5 CA         -2.5584  -13.4435  -48.3447 C.3       1 UNK         0.1400 
      6 C6         -1.5882  -13.4375  -49.5519 C.3       23 UNK        -0.0398 
      7 S7         -1.3997  -15.0524  -50.3911 S.3       23 UNK        -0.2404 
      8 C8          0.2700  -15.5006  -49.8241 C.3       23 UNK        -0.0205 
      9 C9          0.7462  -16.8059  -50.4367 C.ar      23 UNK        -0.0193 
     10 C10         1.4909  -16.7888  -51.6199 C.ar      23 UNK        -0.1150 
     11 C11         1.9548  -17.9802  -52.1833 C.ar      23 UNK        -0.0193 
     12 C12         1.6711  -19.1941  -51.5520 C.ar      23 UNK        -0.1150 
     13 C13         0.9191  -19.2248  -50.3745 C.ar      23 UNK        -0.0193 
     14 C14         0.4605  -18.0272  -49.8170 C.ar      23 UNK        -0.1150 
     15 C15         0.5993  -20.5567  -49.7188 C.3       23 UNK        -0.0205 
     16 S16         1.8308  -20.9652  -48.4444 S.3       23 UNK        -0.2404 
     17 C17         1.7106  -22.7828  -48.3661 C.3       23 UNK        -0.0398 
     18 CA          0.7713  -23.3604  -47.2800 C.3       11 UNK         0.1400 
     19 N           1.0701  -22.9154  -45.9146 N.am      11 UNK        -0.5000 
     20 C           0.7445  -23.6411  -44.8332 C.2       10 UNK         0.5000 
     21 O           0.2324  -24.7592  -44.8956 O.2       10 UNK        -0.5000 
     22 CA          1.0021  -23.0227  -43.4487 C.3       10 UNK         0.1400 
     23 CB          2.4748  -23.1840  -43.0429 C.3       10 UNK        -0.1800 
     24 N           0.6075  -21.6184  -43.3532 N.am      10 UNK        -0.5000 
     25 C          -0.6426  -21.1593  -43.5115 C.2       9 UNK         0.5000 
     26 O          -1.6084  -21.8755  -43.7736 O.2       9 UNK        -0.5000 
     27 CA         -0.8422  -19.6380  -43.3818 C.3       9 UNK         0.1400 
     28 CB         -0.9495  -19.2312  -41.9042 C.3       9 UNK        -0.1800 
     29 N           0.2238  -18.8744  -44.0296 N.am      9 UNK        -0.5000 
     30 C           0.4941  -18.9153  -45.3418 C.2       8 UNK         0.5000 
     31 O          -0.1644  -19.5612  -46.1553 O.2       8 UNK        -0.5000 
     32 CA          1.7387  -18.1465  -45.8130 C.3       8 UNK         0.1400 
     33 CB          1.4328  -16.6507  -45.9858 C.3       8 UNK        -0.1800 
     34 N           2.8634  -18.3291  -44.8951 N.am      8 UNK        -0.5000 
     35 C           3.5206  -19.4871  -44.7262 C.2       7 UNK         0.5000 
     36 O           3.2831  -20.5126  -45.3636 O.2       7 UNK        -0.5000 
     37 CA          4.6001  -19.5143  -43.6279 C.3       7 UNK         0.1400 
     38 CB          5.9319  -18.9672  -44.1630 C.3       7 UNK        -0.1800 
     39 N           4.2097  -18.7580  -42.4374 N.am      7 UNK        -0.5000 
     40 C           3.2018  -19.0949  -41.6194 C.2       6 UNK         0.5000 
     41 O           2.5304  -20.1166  -41.7505 O.2       6 UNK        -0.5000 
     42 CA          2.8535  -18.0953  -40.4993 C.3       6 UNK         0.1400 
     43 CB          3.6653  -18.3995  -39.2317 C.3       6 UNK        -0.1800 
     44 N           3.0696  -16.6999  -40.8940 N.am      6 UNK        -0.5000 
     45 C           2.4078  -16.0858  -41.8829 C.2       5 UNK         0.5000 
     46 O           1.5157  -16.6213  -42.5438 O.2       5 UNK        -0.5000 
     47 CA          2.8818  -14.6743  -42.2428 C.3       5 UNK         0.1400 
     48 CB          4.1578  -14.7526  -43.1060 C.3       5 UNK        -0.1800 
     49 N           1.8277  -13.9738  -42.9707 N.am      5 UNK        -0.5000 
     50 C           1.7918  -12.6524  -43.1798 C.2       4 UNK         0.5000 
     51 O           2.6373  -11.8710  -42.7409 O.2       4 UNK        -0.5000 
     52 CA          0.6330  -12.0958  -44.0276 C.3       4 UNK         0.1400 
     53 CB          1.0621  -11.9875  -45.4989 C.3       4 UNK        -0.1800 
     54 N          -0.6103  -12.8667  -43.9351 N.am      4 UNK        -0.5000 
     55 C          -1.3881  -12.9105  -42.8415 C.2       3 UNK         0.5000 
     56 O          -1.0838  -12.3689  -41.7777 O.2       3 UNK        -0.5000 
     57 CA         -2.7482  -13.6355  -42.9378 C.3       3 UNK         0.1400 
     58 CB         -3.9021  -12.6215  -42.8779 C.3       3 UNK        -0.1800 
     59 N          -2.9116  -14.4428  -44.1452 N.am      3 UNK        -0.5000 
     60 C          -2.3365  -15.6340  -44.3520 C.2       2 UNK         0.5000 
     61 O          -1.6199  -16.1931  -43.5263 O.2       2 UNK        -0.5000 
     62 CA         -2.5923  -16.3032  -45.7176 C.3       2 UNK         0.1400 
     63 CB         -3.7928  -17.2546  -45.6151 C.3       2 UNK        -0.1800 
     64 N          -2.8470  -15.3616  -46.8112 N.am      2 UNK        -0.5000 
     65 C          -2.0554  -14.3499  -47.1959 C.2       1 UNK         0.5000 
     66 O          -0.9743  -14.1026  -46.6644 O.2       1 UNK        -0.5000 
     67 C          -0.7206  -23.1900  -47.6238 C.2       11 UNK         0.5000 
     68 O          -1.2979  -24.0908  -48.2340 O.2       11 UNK        -0.5000 
     69 N          -1.3436  -22.0825  -47.1908 N.am      12 UNK        -0.5000 
     70 CA         -2.7634  -21.7940  -47.4180 C.3       12 UNK         0.1400 
     71 CB         -3.0861  -20.3650  -46.9722 C.3       12 UNK        -0.1800 
     72 C          -3.7215  -22.7941  -46.7462 C.2       12 UNK         0.5000 
     73 O          -4.8353  -22.9716  -47.2333 O.2       12 UNK        -0.5000 
     74 N          -3.2715  -23.4722  -45.6827 N.am      13 UNK        -0.5000 
     75 CA         -3.9878  -24.5763  -45.0408 C.3       13 UNK         0.1400 
     76 CB         -3.2358  -24.9929  -43.7681 C.3       13 UNK        -0.1800 
     77 C          -4.2051  -25.7948  -45.9651 C.2       13 UNK         0.5000 
     78 O          -5.1570  -26.5459  -45.7482 O.2       13 UNK        -0.5000 
     79 N          -3.3386  -25.9630  -46.9745 N.am      14 UNK        -0.5000 
     80 CA         -3.4306  -27.0105  -47.9900 C.3       14 UNK         0.1400 
     81 CB         -2.0585  -27.6886  -48.1342 C.3       14 UNK        -0.1800 
     82 C          -3.8944  -26.4424  -49.3425 C.2       14 UNK         0.5000 
     83 O          -4.7563  -27.0395  -49.9879 O.2       14 UNK        -0.5000 
     84 N          -3.3093  -25.3104  -49.7564 N.am      15 UNK        -0.5000 
     85 CA         -3.5045  -24.7016  -51.0748 C.3       15 UNK         0.1400 
     86 CB         -2.2672  -23.8532  -51.4010 C.3       15 UNK        -0.1800 
     87 C          -4.7788  -23.8445  -51.2033 C.2       15 UNK         0.5000 
     88 O          -5.1374  -23.4883  -52.3260 O.2       15 UNK        -0.5000 
     89 N          -5.4137  -23.5274  -50.0660 N.am      16 UNK        -0.5000 
     90 CA         -6.5128  -22.5813  -49.8511 C.3       16 UNK         0.1400 
     91 CB         -7.7139  -22.8316  -50.7838 C.3       16 UNK        -0.1800 
     92 C          -6.0312  -21.1186  -49.9025 C.2       16 UNK         0.5000 
     93 O          -5.2239  -20.7445  -50.7584 O.2       16 UNK        -0.5000 
     94 N          -6.5496  -20.3030  -48.9752 N.am      17 UNK        -0.5000 
     95 CA         -6.3081  -18.8615  -48.9109 C.3       17 UNK         0.1400 
     96 CB         -6.8914  -18.3069  -47.6028 C.3       17 UNK        -0.1800 
     97 C          -6.9108  -18.1393  -50.1291 C.2       17 UNK         0.5000 
     98 O          -7.9381  -18.5759  -50.6532 O.2       17 UNK        -0.5000 
     99 N          -6.2353  -17.0732  -50.5765 N.am      18 UNK        -0.5000 
    100 CA        -6.4977  -16.2655  -51.7786 C.3       18 UNK         0.1400 
    101 CB        -7.9181  -15.6666  -51.7772 C.3       18 UNK        -0.1800 
    102 C         -6.1945  -16.9933  -53.1054 C.2       18 UNK         0.5000 
    103 O         -5.7152  -16.3501  -54.0395 O.2       18 UNK        -0.5000 
    104 N         -6.4376  -18.3100  -53.1648 N.am      19 UNK        -0.5000 
    105 CA        -6.0278  -19.1898  -54.2590 C.3       19 UNK         0.1400 
    106 CB        -6.7248  -20.5509  -54.1213 C.3       19 UNK        -0.1800 
    107 C         -4.4981  -19.3504  -54.2973 C.2       19 UNK         0.5000 
    108 O         -3.8987  -19.1656  -55.3572 O.2       19 UNK        -0.5000 
    109 N         -3.9027  -19.6490  -53.1311 N.am      20 UNK        -0.5000 
    110 CA        -2.4721  -19.6774  -52.7944 C.3       20 UNK         0.1400 
    111 CB        -1.8534  -18.2795  -52.9721 C.3       20 UNK        -0.1800 
    112 C         -1.6221  -20.7505  -53.5073 C.2       20 UNK         0.5000 
    113 O         -0.7196  -21.3075  -52.8815 O.2       20 UNK        -0.5000 
    114 N         -1.9148  -21.0256  -54.7847 N.am      21 UNK        -0.5000 
    115 CA        -1.2867  -21.9722  -55.7150 C.3       21 UNK         0.1400 
    116 CB        -1.4012  -23.4229  -55.2091 C.3       21 UNK        -0.1800 
    117 C          0.1666  -21.6220  -56.0906 C.2       21 UNK         0.5000 
    118 O          0.4788  -21.5405  -57.2791 O.2       21 UNK        -0.5000 
    119 N          1.0168  -21.4174  -55.0785 N.am      22 UNK        -0.5000 
    120 CA         2.4337  -21.0221  -55.1701 C.3       22 UNK         0.1400 
    121 C          3.3771  -22.0842  -55.8155 C.2       22 UNK         0.5000 
    122 N          2.9771  -23.3453  -55.9236 N.am      22 UNK        -0.7600 
    123 O          4.5036  -21.7741  -56.1949 O.2       22 UNK        -0.5000 
    124 C124        2.6343  -19.6002  -55.7705 C.3       23 UNK        -0.0398 
    125 S125        1.6717  -18.3129  -54.9029 S.3       23 UNK        -0.2404 
    126 C126        2.7496  -17.9616  -53.4782 C.3       23 UNK        -0.0205 
    127 H127       -7.0788  -12.9257  -48.4919 H         1 UNK         0.0600 
    128 H128       -6.2990  -13.9059  -49.7315 H         1 UNK         0.0600 
    129 H129       -6.8085  -14.6490  -48.2095 H         1 UNK         0.0600 
    130 H130       -4.0462  -14.0982  -49.6847 H         1 UNK         0.3000 
    131 H131       -2.5460  -12.4309  -47.9354 H         1 UNK         0.0600 
    132 H132       -0.6102  -13.0655  -49.2414 H         1 UNK         0.0800 
    133 H133       -1.9399  -12.7191  -50.2936 H         1 UNK         0.0800 
    134 H134        0.9667  -14.7001  -50.0779 H         1 UNK         0.0800 
    135 H135        0.2760  -15.5759  -48.7378 H         1 UNK         0.0800 
    136 H136        1.7047  -15.8470  -52.1055 H         1 UNK         0.1150 
    137 H137        2.0205  -20.1195  -51.9865 H         1 UNK         0.1150 
    138 H138       -0.1159  -18.0476  -48.9023 H         1 UNK         0.1150 
    139 H139       -0.3941  -20.5184  -49.2712 H         1 UNK         0.0800 
    140 H140        0.5658  -21.3402  -50.4769 H         1 UNK         0.0800 
    141 H141        2.7200  -23.1509  -48.1785 H         1 UNK         0.0800 
    142 H142        1.4460  -23.1772  -49.3487 H         1 UNK         0.0800 
    143 H143        0.9486  -24.4383  -47.3075 H         1 UNK         0.0600 
    144 H144        1.5020  -22.0051  -45.8059 H         1 UNK         0.3000 
    145 H145        0.3963  -23.5765  -42.7285 H         1 UNK         0.0600 
    146 H146        2.6405  -22.8498  -42.0188 H         1 UNK         0.0600 
    147 H147        3.1382  -22.6144  -43.6932 H         1 UNK         0.0600 
    148 H148        2.7822  -24.2292  -43.0956 H         1 UNK         0.0600 
    149 H149        1.3318  -20.9640  -43.0745 H         1 UNK         0.3000 
    150 H150       -1.7804  -19.3774  -43.8742 H         1 UNK         0.0600 
    151 H151       -1.7937  -19.7287  -41.4256 H         1 UNK         0.0600 
    152 H152       -1.1009  -18.1574  -41.7966 H         1 UNK         0.0600 
    153 H153       -0.0535  -19.4978  -41.3448 H         1 UNK         0.0600 
    154 H154        0.7685  -18.2541  -43.4389 H         1 UNK         0.3000 
    155 H155        2.0289  -18.5407  -46.7883 H         1 UNK         0.0600 
    156 H156        0.6176  -16.5087  -46.6935 H         1 UNK         0.0600 
    157 H157        2.2969  -16.1089  -46.3703 H         1 UNK         0.0600 
    158 H158        1.1272  -16.1801  -45.0524 H         1 UNK         0.0600 
    159 H159        3.0814  -17.5545  -44.2877 H         1 UNK         0.3000 
    160 H160        4.7510  -20.5553  -43.3343 H         1 UNK         0.0600 
    161 H161        5.8524  -17.9174  -44.4484 H         1 UNK         0.0600 
    162 H162        6.2555  -19.5234  -45.0439 H         1 UNK         0.0600 
    163 H163        6.7220  -19.0539  -43.4170 H         1 UNK         0.0600 
    164 H164        4.7177  -17.9069  -42.2494 H         1 UNK         0.3000 
    165 H165        1.7942  -18.2174  -40.2644 H         1 UNK         0.0600 
    166 H166        3.3702  -17.7485  -38.4085 H         1 UNK         0.0600 
    167 H167        3.5057  -19.4277  -38.9042 H         1 UNK         0.0600 
    168 H168        4.7356  -18.2698  -39.3966 H         1 UNK         0.0600 
    169 H169        3.7943  -16.1990  -40.3999 H         1 UNK         0.3000 
    170 H170        3.0932  -14.1366  -41.3162 H         1 UNK         0.0600 
    171 H171        3.9682  -15.2530  -44.0566 H         1 UNK         0.0600 
    172 H172        4.5533  -13.7613  -43.3268 H         1 UNK         0.0600 
    173 H173        4.9495  -15.3025  -42.5961 H         1 UNK         0.0600 
    174 H174        1.0777  -14.5640  -43.3100 H         1 UNK         0.3000 
    175 H175        0.4232  -11.0863  -43.6678 H         1 UNK         0.0600 
    176 H176        1.3220  -12.9623  -45.9136 H         1 UNK         0.0600 
    177 H177        0.2698  -11.5598  -46.1135 H         1 UNK         0.0600 
    178 H178        1.9373  -11.3451  -45.6038 H         1 UNK         0.0600 
    179 H179       -0.9030  -13.3518  -44.7769 H         1 UNK         0.3000 
    180 H180       -2.8269  -14.2919  -42.0686 H         1 UNK         0.0600 
    181 H181       -4.8693  -13.1245  -42.8711 H         1 UNK         0.0600 
    182 H182       -3.8835  -11.9417  -43.7308 H         1 UNK         0.0600 
    183 H183       -3.8474  -12.0154  -41.9727 H         1 UNK         0.0600 
    184 H184       -3.4825  -14.0494  -44.8808 H         1 UNK         0.3000 
    185 H185       -1.7068  -16.8846  -45.9786 H         1 UNK         0.0600 
    186 H186       -4.7017  -16.7256  -45.3251 H         1 UNK         0.0600 
    187 H187       -3.9867  -17.7463  -46.5671 H         1 UNK         0.0600 
    188 H188       -3.6150  -18.0323  -44.8718 H         1 UNK         0.0600 
    189 H189       -3.7214  -15.4714  -47.3009 H         1 UNK         0.3000 
    190 H190       -0.8100  -21.3638  -46.7089 H         1 UNK         0.3000 
    191 H191       -2.9429  -21.8551  -48.4936 H         1 UNK         0.0600 
    192 H192       -2.5121  -19.6344  -47.5425 H         1 UNK         0.0600 
    193 H193       -2.8659  -20.2200  -45.9147 H         1 UNK         0.0600 
    194 H194       -4.1421  -20.1395  -47.1219 H         1 UNK         0.0600 
    195 H195       -2.3805  -23.2066  -45.2794 H         1 UNK         0.3000 
    196 H196       -4.9730  -24.2068  -44.7492 H         1 UNK         0.0600 
    197 H197       -3.1298  -24.1550  -43.0789 H         1 UNK         0.0600 
    198 H198       -2.2380  -25.3680  -43.9965 H         1 UNK         0.0600 
    199 H199       -3.7701  -25.7831  -43.2392 H         1 UNK         0.0600 
    200 H200       -2.5953  -25.2850  -47.0930 H         1 UNK         0.3000 
    201 H201       -4.1493  -27.7753  -47.6884 H         1 UNK         0.0600 
    202 H202       -1.7506  -28.1525  -47.1970 H         1 UNK         0.0600 
    203 H203       -1.2830  -26.9786  -48.4249 H         1 UNK         0.0600 
    204 H204       -2.0876  -28.4732  -48.8913 H         1 UNK         0.0600 
    205 H205       -2.5868  -24.8877  -49.1765 H         1 UNK         0.3000 
    206 H206       -3.5721  -25.4973  -51.8196 H         1 UNK         0.0600 
    207 H207       -2.1560  -23.0152  -50.7116 H         1 UNK         0.0600 
    208 H208       -1.3532  -24.4457  -51.3614 H         1 UNK         0.0600 
    209 H209       -2.3429  -23.4404  -52.4059 H         1 UNK         0.0600 
    210 H210       -4.9979  -23.8604  -49.2052 H         1 UNK         0.3000 
    211 H211       -6.8629  -22.7771  -48.8370 H         1 UNK         0.0600 
    212 H212       -7.4892  -22.6003  -51.8236 H         1 UNK         0.0600 
    213 H213       -8.5610  -22.2082  -50.4952 H         1 UNK         0.0600 
    214 H214       -8.0417  -23.8699  -50.7341 H         1 UNK         0.0600 
    215 H215       -7.2242  -20.6721  -48.3215 H         1 UNK         0.3000 
    216 H216       -5.2278  -18.7015  -48.9065 H         1 UNK         0.0600 
    217 H217       -6.6911  -17.2391  -47.5061 H         1 UNK         0.0600 
    218 H218       -6.4522  -18.7983  -46.7343 H         1 UNK         0.0600 
    219 H219       -7.9725  -18.4436  -47.5550 H         1 UNK         0.0600 
    220 H220       -5.3826  -16.8310  -50.0934 H         1 UNK         0.3000 
    221 H221       -5.7968  -15.4311  -51.7223 H         1 UNK         0.0600 
    222 H222       -8.6840  -16.4264  -51.9339 H         1 UNK         0.0600 
    223 H223       -8.1366  -15.1602  -50.8374 H         1 UNK         0.0600 
    224 H224       -8.0269  -14.9322  -52.5760 H         1 UNK         0.0600 
    225 H225       -6.8763  -18.7428  -52.3598 H         1 UNK         0.3000 
    226 H226       -6.3468  -18.7372  -55.2003 H         1 UNK         0.0600 
    227 H227       -7.8095  -20.4425  -54.1162 H         1 UNK         0.0600 
    228 H228       -6.4652  -21.2073  -54.9527 H         1 UNK         0.0600 
    229 H229       -6.4334  -21.0590  -53.2028 H         1 UNK         0.0600 
    230 H230       -4.5085  -19.8814  -52.3475 H         1 UNK         0.3000 
    231 H231       -2.4312  -19.9178  -51.7306 H         1 UNK         0.0600 
    232 H232       -0.8127  -18.2748  -52.6550 H         1 UNK         0.0600 
    233 H233       -2.3771  -17.5347  -52.3729 H         1 UNK         0.0600 
    234 H234       -1.8721  -17.9516  -54.0116 H         1 UNK         0.0600 
    235 H235       -2.6443  -20.4451  -55.1937 H         1 UNK         0.3000 
    236 H236       -1.8723  -21.9034  -56.6330 H         1 UNK         0.0600 
    237 H237       -1.0461  -24.1251  -55.9642 H         1 UNK         0.0600 
    238 H238       -0.8108  -23.5908  -54.3082 H         1 UNK         0.0600 
    239 H239       -2.4363  -23.6816  -54.9857 H         1 UNK         0.0600 
    240 H240        0.6277  -21.4752  -54.1403 H         1 UNK         0.3000 
    241 H241        2.7729  -20.9755  -54.1356 H         1 UNK         0.0600 
    242 H242        3.5946  -24.0299  -56.3314 H         1 UNK         0.3800 
    243 H243        2.0609  -23.6194  -55.6074 H         1 UNK         0.3800 
    244 H244        2.3438  -19.5909  -56.8218 H         1 UNK         0.0800 
    245 H245        3.6865  -19.3119  -55.7505 H         1 UNK         0.0800 
    246 H246        3.5584  -18.6905  -53.4135 H         1 UNK         0.0800 
    247 H247        3.2264  -16.9910  -53.6226 H         1 UNK         0.0800 
@<TRIPOS>BOND
     1    1    2 1    
     2    1  127 1    
     3    1  128 1    
     4    1  129 1    
     5    2    3 2    
     6    2    4 am   BACKBONE|DICT|INTERRES
     7    4    5 1    
     8    4  130 1    
     9    5    6 1    
    10    5   65 1    
    11    5  131 1    
    12    6    7 1    
    13    6  132 1    
    14    6  133 1    
    15    7    8 1    
    16    8    9 1    
    17    8  134 1    
    18    8  135 1    
    19    9   10 ar   
    20    9   14 ar   
    21   10   11 ar   
    22   10  136 1    
    23   11   12 ar   
    24   11  126 1    
    25   12   13 ar   
    26   12  137 1    
    27   13   14 ar   
    28   13   15 1    
    29   14  138 1    
    30   15   16 1    
    31   15  139 1    
    32   15  140 1    
    33   16   17 1    
    34   17   18 1    
    35   17  141 1    
    36   17  142 1    
    37   18   19 1    
    38   18   67 1    
    39   18  143 1    
    40   19   20 am   BACKBONE|DICT|INTERRES
    41   19  144 1    
    42   20   21 2    
    43   20   22 1    
    44   22   23 1    
    45   22   24 1    
    46   22  145 1    
    47   23  146 1    
    48   23  147 1    
    49   23  148 1    
    50   24   25 am   BACKBONE|DICT|INTERRES
    51   24  149 1    
    52   25   26 2    
    53   25   27 1    
    54   27   28 1    
    55   27   29 1    
    56   27  150 1    
    57   28  151 1    
    58   28  152 1    
    59   28  153 1    
    60   29   30 am   BACKBONE|DICT|INTERRES
    61   29  154 1    
    62   30   31 2    
    63   30   32 1    
    64   32   33 1    
    65   32   34 1    
    66   32  155 1    
    67   33  156 1    
    68   33  157 1    
    69   33  158 1    
    70   34   35 am   BACKBONE|DICT|INTERRES
    71   34  159 1    
    72   35   36 2    
    73   35   37 1    
    74   37   38 1    
    75   37   39 1    
    76   37  160 1    
    77   38  161 1    
    78   38  162 1    
    79   38  163 1    
    80   39   40 am   BACKBONE|DICT|INTERRES
    81   39  164 1    
    82   40   41 2    
    83   40   42 1    
    84   42   43 1    
    85   42   44 1    
    86   42  165 1    
    87   43  166 1    
    88   43  167 1    
    89   43  168 1    
    90   44   45 am   BACKBONE|DICT|INTERRES
    91   44  169 1    
    92   45   46 2    
    93   45   47 1    
    94   47   48 1    
    95   47   49 1    
    96   47  170 1    
    97   48  171 1    
    98   48  172 1    
    99   48  173 1    
   100   49   50 am   BACKBONE|DICT|INTERRES
   101   49  174 1    
   102   50   51 2    
   103   50   52 1    
   104   52   53 1    
   105   52   54 1    
   106   52  175 1    
   107   53  176 1    
   108   53  177 1    
   109   53  178 1    
   110   54   55 am   BACKBONE|DICT|INTERRES
   111   54  179 1    
   112   55   56 2    
   113   55   57 1    
   114   57   58 1    
   115   57   59 1    
   116   57  180 1    
   117   58  181 1    
   118   58  182 1    
   119   58  183 1    
   120   59   60 am   BACKBONE|DICT|INTERRES
   121   59  184 1    
   122   60   61 2    
   123   60   62 1    
   124   62   63 1    
   125   62   64 1    
   126   62  185 1    
   127   63  186 1    
   128   63  187 1    
   129   63  188 1    
   130   64   65 am   BACKBONE|DICT|INTERRES
   131   64  189 1    
   132   65   66 2    
   133   67   68 2    
   134   67   69 am   BACKBONE|DICT|INTERRES
   135   69   70 1    
   136   69  190 1    
   137   70   71 1    
   138   70   72 1    
   139   70  191 1    
   140   71  192 1    
   141   71  193 1    
   142   71  194 1    
   143   72   73 2    
   144   72   74 am   BACKBONE|DICT|INTERRES
   145   74   75 1    
   146   74  195 1    
   147   75   76 1    
   148   75   77 1    
   149   75  196 1    
   150   76  197 1    
   151   76  198 1    
   152   76  199 1    
   153   77   78 2    
   154   77   79 am   BACKBONE|DICT|INTERRES
   155   79   80 1    
   156   79  200 1    
   157   80   81 1    
   158   80   82 1    
   159   80  201 1    
   160   81  202 1    
   161   81  203 1    
   162   81  204 1    
   163   82   83 2    
   164   82   84 am   BACKBONE|DICT|INTERRES
   165   84   85 1    
   166   84  205 1    
   167   85   86 1    
   168   85   87 1    
   169   85  206 1    
   170   86  207 1    
   171   86  208 1    
   172   86  209 1    
   173   87   88 2    
   174   87   89 am   BACKBONE|DICT|INTERRES
   175   89   90 1    
   176   89  210 1    
   177   90   91 1    
   178   90   92 1    
   179   90  211 1    
   180   91  212 1    
   181   91  213 1    
   182   91  214 1    
   183   92   93 2    
   184   92   94 am   BACKBONE|DICT|INTERRES
   185   94   95 1    
   186   94  215 1    
   187   95   96 1    
   188   95   97 1    
   189   95  216 1    
   190   96  217 1    
   191   96  218 1    
   192   96  219 1    
   193   97   98 2    
   194   97   99 am   BACKBONE|DICT|INTERRES
   195   99  100 1    
   196   99  220 1    
   197  100  101 1    
   198  100  102 1    
   199  100  221 1    
   200  101  222 1    
   201  101  223 1    
   202  101  224 1    
   203  102  103 2    
   204  102  104 am   BACKBONE|DICT|INTERRES
   205  104  105 1    
   206  104  225 1    
   207  105  106 1    
   208  105  107 1    
   209  105  226 1    
   210  106  227 1    
   211  106  228 1    
   212  106  229 1    
   213  107  108 2    
   214  107  109 am   BACKBONE|DICT|INTERRES
   215  109  110 1    
   216  109  230 1    
   217  110  111 1    
   218  110  112 1    
   219  110  231 1    
   220  111  232 1    
   221  111  233 1    
   222  111  234 1    
   223  112  113 2    
   224  112  114 am   BACKBONE|DICT|INTERRES
   225  114  115 1    
   226  114  235 1    
   227  115  116 1    
   228  115  117 1    
   229  115  236 1    
   230  116  237 1    
   231  116  238 1    
   232  116  239 1    
   233  117  118 2    
   234  117  119 am   BACKBONE|DICT|INTERRES
   235  119  120 1    
   236  119  240 1    
   237  120  121 1    
   238  120  124 1    
   239  120  241 1    
   240  121  122 am   BACKBONE|DICT|INTERRES
   241  121  123 2    
   242  122  242 1    
   243  122  243 1    
   244  124  125 1    
   245  124  244 1    
   246  124  245 1    
   247  125  126 1    
   248  126  246 1    
   249  126  247 1    
@<TRIPOS>SUBSTRUCTURE
     1 UNK         1 GROUP             0       ****    0 ROOT    
