@<TRIPOS>MOLECULE
3R540
247   249    1
SMALL
USER_CHARGES


@<TRIPOS>ATOM
      1 CA         -4.7096  -18.6506  -45.2530 C.3       0 UNK        -0.1800 
      2 C          -4.8257  -17.7958  -46.5075 C.2       0 UNK         0.5000 
      3 O          -5.6274  -18.1109  -47.3859 O.2       0 UNK        -0.5000 
      4 N          -4.0417  -16.7159  -46.5917 N.am      1 UNK        -0.5000 
      5 CA         -4.0713  -15.7545  -47.6915 C.3       1 UNK         0.1400 
      6 C6         -3.4096  -16.2576  -49.0063 C.3       23 UNK        -0.0398 
      7 S7         -1.7031  -16.8988  -48.8660 S.3       23 UNK        -0.2404 
      8 C8         -1.4911  -17.4674  -50.5801 C.3       23 UNK        -0.0205 
      9 C9         -0.1443  -18.1323  -50.8100 C.ar      23 UNK        -0.0193 
     10 C10         0.9386  -17.3936  -51.2978 C.ar      23 UNK        -0.1150 
     11 C11         2.1582  -18.0213  -51.5744 C.ar      23 UNK        -0.0193 
     12 C12         2.2863  -19.3974  -51.3603 C.ar      23 UNK        -0.1150 
     13 C13         1.2190  -20.1399  -50.8470 C.ar      23 UNK        -0.0193 
     14 C14         0.0055  -19.5021  -50.5785 C.ar      23 UNK        -0.1150 
     15 C15         1.3770  -21.6265  -50.5752 C.3       23 UNK        -0.0205 
     16 S16         2.3498  -21.9121  -49.0643 S.3       23 UNK        -0.2404 
     17 C17         1.9710  -23.6652  -48.7208 C.3       23 UNK        -0.0398 
     18 CA          1.0352  -23.8900  -47.5059 C.3       11 UNK         0.1400 
     19 N           1.5603  -23.3099  -46.2678 N.am      11 UNK        -0.5000 
     20 C           1.0678  -23.5167  -45.0390 C.2       10 UNK         0.5000 
     21 O           0.0104  -24.1112  -44.8223 O.2       10 UNK        -0.5000 
     22 CA          1.9257  -23.0328  -43.8553 C.3       10 UNK         0.1400 
     23 CB          3.4281  -22.9435  -44.1910 C.3       10 UNK        -0.1800 
     24 N           1.4691  -21.7348  -43.3682 N.am      10 UNK        -0.5000 
     25 C           0.6267  -21.5515  -42.3434 C.2       9 UNK         0.5000 
     26 O           0.1122  -22.4695  -41.7042 O.2       9 UNK        -0.5000 
     27 CA          0.3243  -20.0953  -41.9371 C.3       9 UNK         0.1400 
     28 CB          1.3673  -19.5877  -40.9296 C.3       9 UNK        -0.1800 
     29 N           0.2737  -19.1739  -43.0702 N.am      9 UNK        -0.5000 
     30 C          -0.6932  -19.1633  -43.9967 C.2       8 UNK         0.5000 
     31 O          -1.6689  -19.9121  -43.9840 O.2       8 UNK        -0.5000 
     32 CA         -0.5192  -18.1599  -45.1485 C.3       8 UNK         0.1400 
     33 CB         -0.9991  -16.7600  -44.7526 C.3       8 UNK        -0.1800 
     34 N           0.8573  -18.1043  -45.6317 N.am      8 UNK        -0.5000 
     35 C           1.4727  -19.1165  -46.2593 C.2       7 UNK         0.5000 
     36 O           0.9339  -20.1930  -46.5163 O.2       7 UNK        -0.5000 
     37 CA          2.9538  -18.8988  -46.6161 C.3       7 UNK         0.1400 
     38 CB          3.0737  -18.1394  -47.9438 C.3       7 UNK        -0.1800 
     39 N           3.6848  -18.1676  -45.5795 N.am      7 UNK        -0.5000 
     40 C           3.8983  -18.6148  -44.3335 C.2       6 UNK         0.5000 
     41 O           3.5401  -19.7200  -43.9323 O.2       6 UNK        -0.5000 
     42 CA          4.5653  -17.6303  -43.3555 C.3       6 UNK         0.1400 
     43 CB          6.0938  -17.6696  -43.4998 C.3       6 UNK        -0.1800 
     44 N           4.0890  -16.2561  -43.5377 N.am      6 UNK        -0.5000 
     45 C           2.8238  -15.8680  -43.3311 C.2       5 UNK         0.5000 
     46 O           1.9363  -16.6259  -42.9312 O.2       5 UNK        -0.5000 
     47 CA          2.4879  -14.4154  -43.7104 C.3       5 UNK         0.1400 
     48 CB          2.1356  -14.3231  -45.2015 C.3       5 UNK        -0.1800 
     49 N           1.3698  -13.8906  -42.9295 N.am      5 UNK        -0.5000 
     50 C           1.4617  -13.5139  -41.6472 C.2       4 UNK         0.5000 
     51 O           2.5151  -13.5534  -41.0077 O.2       4 UNK        -0.5000 
     52 CA          0.1699  -13.0129  -40.9621 C.3       4 UNK         0.1400 
     53 CB          0.4521  -12.0006  -39.8317 C.3       4 UNK        -0.1800 
     54 N          -0.8413  -12.4818  -41.8851 N.am      4 UNK        -0.5000 
     55 C          -0.7260  -11.4332  -42.7134 C.2       3 UNK         0.5000 
     56 O           0.2940  -10.7535  -42.8441 O.2       3 UNK        -0.5000 
     57 CA         -1.9782  -11.1002  -43.5481 C.3       3 UNK         0.1400 
     58 CB         -2.3377   -9.6089  -43.4409 C.3       3 UNK        -0.1800 
     59 N          -1.8444  -11.4579  -44.9618 N.am      3 UNK        -0.5000 
     60 C          -1.5845  -12.6817  -45.4398 C.2       2 UNK         0.5000 
     61 O          -1.3199  -13.6551  -44.7319 O.2       2 UNK        -0.5000 
     62 CA         -1.6352  -12.8403  -46.9730 C.3       2 UNK         0.1400 
     63 CB         -0.2273  -12.7936  -47.5839 C.3       2 UNK        -0.1800 
     64 N          -2.2891  -14.0822  -47.3904 N.am      2 UNK        -0.5000 
     65 C          -3.5732  -14.3931  -47.1736 C.2       1 UNK         0.5000 
     66 O          -4.3646  -13.6516  -46.5883 O.2       1 UNK        -0.5000 
     67 C          -0.4256  -23.5105  -47.8131 C.2       11 UNK         0.5000 
     68 O          -1.1758  -24.3752  -48.2627 O.2       11 UNK        -0.5000 
     69 N          -0.8295  -22.2621  -47.5394 N.am      12 UNK        -0.5000 
     70 CA         -2.2041  -21.8101  -47.7650 C.3       12 UNK         0.1400 
     71 CB         -2.2842  -20.2827  -47.6921 C.3       12 UNK        -0.1800 
     72 C          -3.2006  -22.4465  -46.7813 C.2       12 UNK         0.5000 
     73 O          -4.3334  -22.7204  -47.1705 O.2       12 UNK        -0.5000 
     74 N          -2.7725  -22.6998  -45.5380 N.am      13 UNK        -0.5000 
     75 CA         -3.5800  -23.4014  -44.5403 C.3       13 UNK         0.1400 
     76 CB         -2.9504  -23.2400  -43.1495 C.3       13 UNK        -0.1800 
     77 C          -3.7596  -24.8877  -44.8986 C.2       13 UNK         0.5000 
     78 O          -4.8509  -25.4294  -44.7204 O.2       13 UNK        -0.5000 
     79 N          -2.6942  -25.5071  -45.4247 N.am      14 UNK        -0.5000 
     80 CA         -2.6823  -26.8957  -45.8798 C.3       14 UNK         0.1400 
     81 CB         -1.2275  -27.3483  -46.0802 C.3       14 UNK        -0.1800 
     82 C          -3.5047  -27.1167  -47.1642 C.2       14 UNK         0.5000 
     83 O          -4.2711  -28.0779  -47.2345 O.2       14 UNK        -0.5000 
     84 N          -3.3278  -26.2331  -48.1553 N.am      15 UNK        -0.5000 
     85 CA         -3.8884  -26.3621  -49.5032 C.3       15 UNK         0.1400 
     86 CB         -2.8147  -25.9486  -50.5241 C.3       15 UNK        -0.1800 
     87 C          -5.1966  -25.5729  -49.7133 C.2       15 UNK         0.5000 
     88 O          -5.5925  -25.3794  -50.8633 O.2       15 UNK        -0.5000 
     89 N          -5.8432  -25.1267  -48.6253 N.am      16 UNK        -0.5000 
     90 CA         -7.1361  -24.4263  -48.5874 C.3       16 UNK         0.1400 
     91 CB         -8.2789  -25.3879  -48.9739 C.3       16 UNK        -0.1800 
     92 C          -7.1334  -23.1297  -49.4257 C.2       16 UNK         0.5000 
     93 O          -7.8581  -23.0144  -50.4151 O.2       16 UNK        -0.5000 
     94 N          -6.2548  -22.2049  -49.0231 N.am      17 UNK        -0.5000 
     95 CA         -5.8959  -20.9211  -49.6360 C.3       17 UNK         0.1400 
     96 CB         -7.1288  -20.0524  -49.9559 C.3       17 UNK        -0.1800 
     97 C          -4.9520  -21.0530  -50.8461 C.2       17 UNK         0.5000 
     98 O          -4.5076  -20.0291  -51.3646 O.2       17 UNK        -0.5000 
     99 N          -4.6548  -22.2901  -51.2780 N.am      18 UNK        -0.5000 
    100 CA        -3.7487  -22.6627  -52.3743 C.3       18 UNK         0.1400 
    101 CB        -2.2925  -22.3163  -51.9977 C.3       18 UNK        -0.1800 
    102 C         -4.1509  -22.0728  -53.7452 C.2       18 UNK         0.5000 
    103 O         -3.2895  -21.8667  -54.6013 O.2       18 UNK        -0.5000 
    104 N         -5.4484  -21.7671  -53.9121 N.am      19 UNK        -0.5000 
    105 CA        -6.0419  -21.0134  -55.0255 C.3       19 UNK         0.1400 
    106 CB        -5.9966  -21.8370  -56.3295 C.3       19 UNK        -0.1800 
    107 C         -5.4325  -19.5993  -55.1821 C.2       19 UNK         0.5000 
    108 O         -5.3129  -19.0989  -56.3006 O.2       19 UNK        -0.5000 
    109 N         -5.0220  -19.0074  -54.0491 N.am      20 UNK        -0.5000 
    110 CA        -4.3068  -17.7398  -53.8628 C.3       20 UNK         0.1400 
    111 CB        -5.0415  -16.5566  -54.5237 C.3       20 UNK        -0.1800 
    112 C         -2.8145  -17.7787  -54.2520 C.2       20 UNK         0.5000 
    113 O         -2.1037  -16.8366  -53.9016 O.2       20 UNK        -0.5000 
    114 N         -2.3665  -18.8511  -54.9260 N.am      21 UNK        -0.5000 
    115 CA        -1.0015  -19.1779  -55.3563 C.3       21 UNK         0.1400 
    116 CB        -0.2505  -19.8857  -54.2145 C.3       21 UNK        -0.1800 
    117 C         -0.2195  -17.9847  -55.9427 C.2       21 UNK         0.5000 
    118 O         -0.3600  -17.6938  -57.1317 O.2       21 UNK        -0.5000 
    119 N          0.5816  -17.3237  -55.0976 N.am      22 UNK        -0.5000 
    120 CA         1.3623  -16.1203  -55.4182 C.3       22 UNK         0.1400 
    121 C          0.5124  -14.8564  -55.7458 C.2       22 UNK         0.5000 
    122 N         -0.7557  -14.7868  -55.3597 N.am      22 UNK        -0.7600 
    123 O          1.0172  -13.9214  -56.3615 O.2       22 UNK        -0.5000 
    124 C124        2.3860  -15.7865  -54.3032 C.3       23 UNK        -0.0398 
    125 S125        3.4885  -17.1793  -53.8748 S.3       23 UNK        -0.2404 
    126 C126        3.3565  -17.2169  -52.0579 C.3       23 UNK        -0.0205 
    127 H127       -4.5779  -19.6996  -45.5182 H         1 UNK         0.0600 
    128 H128       -5.6185  -18.5645  -44.6579 H         1 UNK         0.0600 
    129 H129       -3.8671  -18.3495  -44.6317 H         1 UNK         0.0600 
    130 H130       -3.4227  -16.4753  -45.8311 H         1 UNK         0.3000 
    131 H131       -5.1227  -15.5813  -47.9330 H         1 UNK         0.0600 
    132 H132       -4.0242  -17.0600  -49.4176 H         1 UNK         0.0800 
    133 H133       -3.4258  -15.4680  -49.7595 H         1 UNK         0.0800 
    134 H134       -1.6043  -16.6175  -51.2545 H         1 UNK         0.0800 
    135 H135       -2.2898  -18.1674  -50.8329 H         1 UNK         0.0800 
    136 H136        0.8280  -16.3314  -51.4616 H         1 UNK         0.1150 
    137 H137        3.2279  -19.8878  -51.5637 H         1 UNK         0.1150 
    138 H138       -0.8295  -20.0754  -50.2043 H         1 UNK         0.1150 
    139 H139        0.3971  -22.0946  -50.4733 H         1 UNK         0.0800 
    140 H140        1.8665  -22.1088  -51.4224 H         1 UNK         0.0800 
    141 H141        1.5640  -24.1419  -49.6145 H         1 UNK         0.0800 
    142 H142        2.9203  -24.1696  -48.5359 H         1 UNK         0.0800 
    143 H143        1.0205  -24.9683  -47.3333 H         1 UNK         0.0600 
    144 H144        2.3992  -22.7576  -46.3658 H         1 UNK         0.3000 
    145 H145        1.8205  -23.7803  -43.0663 H         1 UNK         0.0600 
    146 H146        4.0085  -22.6908  -43.3034 H         1 UNK         0.0600 
    147 H147        3.6409  -22.1855  -44.9454 H         1 UNK         0.0600 
    148 H148        3.8056  -23.8976  -44.5612 H         1 UNK         0.0600 
    149 H149        1.8889  -20.9193  -43.8010 H         1 UNK         0.3000 
    150 H150       -0.6527  -20.0844  -41.4492 H         1 UNK         0.0600 
    151 H151        1.4079  -20.2319  -40.0505 H         1 UNK         0.0600 
    152 H152        1.1267  -18.5813  -40.5861 H         1 UNK         0.0600 
    153 H153        2.3669  -19.5614  -41.3650 H         1 UNK         0.0600 
    154 H154        1.0163  -18.4861  -43.1361 H         1 UNK         0.3000 
    155 H155       -1.1400  -18.4776  -45.9804 H         1 UNK         0.0600 
    156 H156       -2.0216  -16.7832  -44.3772 H         1 UNK         0.0600 
    157 H157       -0.9820  -16.0941  -45.6146 H         1 UNK         0.0600 
    158 H158       -0.3840  -16.3164  -43.9715 H         1 UNK         0.0600 
    159 H159        1.3854  -17.2747  -45.4120 H         1 UNK         0.3000 
    160 H160        3.4159  -19.8810  -46.7348 H         1 UNK         0.0600 
    161 H161        2.6850  -17.1231  -47.8695 H         1 UNK         0.0600 
    162 H162        2.5059  -18.6465  -48.7220 H         1 UNK         0.0600 
    163 H163        4.1091  -18.0844  -48.2796 H         1 UNK         0.0600 
    164 H164        4.0193  -17.2476  -45.8230 H         1 UNK         0.3000 
    165 H165        4.3092  -17.9452  -42.3415 H         1 UNK         0.0600 
    166 H166        6.5761  -17.0324  -42.7584 H         1 UNK         0.0600 
    167 H167        6.4727  -18.6818  -43.3524 H         1 UNK         0.0600 
    168 H168        6.4159  -17.3390  -44.4880 H         1 UNK         0.0600 
    169 H169        4.7654  -15.5827  -43.8678 H         1 UNK         0.3000 
    170 H170        3.3658  -13.7931  -43.5238 H         1 UNK         0.0600 
    171 H171        1.2487  -14.9094  -45.4421 H         1 UNK         0.0600 
    172 H172        1.9430  -13.2898  -45.4904 H         1 UNK         0.0600 
    173 H173        2.9519  -14.6868  -45.8266 H         1 UNK         0.0600 
    174 H174        0.4669  -13.8539  -43.3877 H         1 UNK         0.3000 
    175 H175       -0.2786  -13.8954  -40.5039 H         1 UNK         0.0600 
    176 H176        0.9651  -11.1129  -40.2029 H         1 UNK         0.0600 
    177 H177       -0.4714  -11.6781  -39.3510 H         1 UNK         0.0600 
    178 H178        1.0807  -12.4409  -39.0569 H         1 UNK         0.0600 
    179 H179       -1.7096  -12.9988  -41.9062 H         1 UNK         0.3000 
    180 H180       -2.8203  -11.6695  -43.1491 H         1 UNK         0.0600 
    181 H181       -2.4469   -9.3078  -42.3982 H         1 UNK         0.0600 
    182 H182       -3.2823   -9.3929  -43.9405 H         1 UNK         0.0600 
    183 H183       -1.5696   -8.9753  -43.8865 H         1 UNK         0.0600 
    184 H184       -2.0165  -10.7114  -45.6190 H         1 UNK         0.3000 
    185 H185       -2.2117  -12.0094  -47.3847 H         1 UNK         0.0600 
    186 H186        0.3477  -13.6846  -47.3344 H         1 UNK         0.0600 
    187 H187       -0.2753  -12.7266  -48.6709 H         1 UNK         0.0600 
    188 H188        0.3308  -11.9261  -47.2293 H         1 UNK         0.0600 
    189 H189       -1.7046  -14.7688  -47.8486 H         1 UNK         0.3000 
    190 H190       -0.1634  -21.5882  -47.1643 H         1 UNK         0.3000 
    191 H191       -2.4890  -22.1097  -48.7751 H         1 UNK         0.0600 
    192 H192       -1.3571  -19.8060  -48.0062 H         1 UNK         0.0600 
    193 H193       -2.5039  -19.9533  -46.6794 H         1 UNK         0.0600 
    194 H194       -3.0795  -19.9012  -48.3317 H         1 UNK         0.0600 
    195 H195       -1.8229  -22.4656  -45.2827 H         1 UNK         0.3000 
    196 H196       -4.5695  -22.9396  -44.5158 H         1 UNK         0.0600 
    197 H197       -2.8432  -22.1884  -42.8832 H         1 UNK         0.0600 
    198 H198       -1.9640  -23.7003  -43.0956 H         1 UNK         0.0600 
    199 H199       -3.5711  -23.7080  -42.3848 H         1 UNK         0.0600 
    200 H200       -1.8251  -24.9900  -45.4982 H         1 UNK         0.3000 
    201 H201       -3.1208  -27.5131  -45.0929 H         1 UNK         0.0600 
    202 H202       -0.6539  -27.2509  -45.1581 H         1 UNK         0.0600 
    203 H203       -0.7241  -26.7619  -46.8493 H         1 UNK         0.0600 
    204 H204       -1.1825  -28.3950  -46.3834 H         1 UNK         0.0600 
    205 H205       -2.6505  -25.4835  -48.0301 H         1 UNK         0.3000 
    206 H206       -4.1279  -27.4097  -49.6962 H         1 UNK         0.0600 
    207 H207       -1.8887  -26.5029  -50.3706 H         1 UNK         0.0600 
    208 H208       -2.5842  -24.8873  -50.4487 H         1 UNK         0.0600 
    209 H209       -3.1414  -26.1435  -51.5462 H         1 UNK         0.0600 
    210 H210       -5.4046  -25.2877  -47.7292 H         1 UNK         0.3000 
    211 H211       -7.2964  -24.1269  -47.5504 H         1 UNK         0.0600 
    212 H212       -8.1906  -25.7333  -50.0045 H         1 UNK         0.0600 
    213 H213       -9.2489  -24.8991  -48.8754 H         1 UNK         0.0600 
    214 H214       -8.2902  -26.2651  -48.3271 H         1 UNK         0.0600 
    215 H215       -5.6593  -22.4535  -48.2308 H         1 UNK         0.3000 
    216 H216       -5.3252  -20.3939  -48.8719 H         1 UNK         0.0600 
    217 H217       -6.8263  -19.0382  -50.2199 H         1 UNK         0.0600 
    218 H218       -7.7917  -19.9756  -49.0941 H         1 UNK         0.0600 
    219 H219       -7.7037  -20.4455  -50.7943 H         1 UNK         0.0600 
    220 H220       -5.1179  -23.0657  -50.8225 H         1 UNK         0.3000 
    221 H221       -3.8203  -23.7459  -52.4773 H         1 UNK         0.0600 
    222 H222       -2.1276  -21.2386  -51.9841 H         1 UNK         0.0600 
    223 H223       -2.0278  -22.7051  -51.0160 H         1 UNK         0.0600 
    224 H224       -1.5905  -22.7472  -52.7121 H         1 UNK         0.0600 
    225 H225       -6.0754  -21.9873  -53.1507 H         1 UNK         0.3000 
    226 H226       -7.0910  -20.8621  -54.7678 H         1 UNK         0.0600 
    227 H227       -6.4340  -22.8250  -56.1868 H         1 UNK         0.0600 
    228 H228       -6.5613  -21.3452  -57.1223 H         1 UNK         0.0600 
    229 H229       -4.9766  -21.9707  -56.6908 H         1 UNK         0.0600 
    230 H230       -5.1013  -19.5435  -53.1899 H         1 UNK         0.3000 
    231 H231       -4.3217  -17.5642  -52.7859 H         1 UNK         0.0600 
    232 H232       -4.5947  -15.6081  -54.2233 H         1 UNK         0.0600 
    233 H233       -6.0907  -16.5280  -54.2300 H         1 UNK         0.0600 
    234 H234       -4.9950  -16.6021  -55.6117 H         1 UNK         0.0600 
    235 H235       -3.0506  -19.5621  -55.1472 H         1 UNK         0.3000 
    236 H236       -1.1044  -19.8994  -56.1682 H         1 UNK         0.0600 
    237 H237       -0.2589  -19.2888  -53.3065 H         1 UNK         0.0600 
    238 H238       -0.7093  -20.8458  -53.9846 H         1 UNK         0.0600 
    239 H239        0.7898  -20.0821  -54.4774 H         1 UNK         0.0600 
    240 H240        0.6158  -17.6264  -54.1352 H         1 UNK         0.3000 
    241 H241        1.9272  -16.3478  -56.3241 H         1 UNK         0.0600 
    242 H242       -1.2978  -13.9664  -55.5769 H         1 UNK         0.3800 
    243 H243       -1.1818  -15.5506  -54.8374 H         1 UNK         0.3800 
    244 H244        1.8628  -15.4452  -53.4093 H         1 UNK         0.0800 
    245 H245        3.0211  -14.9544  -54.6125 H         1 UNK         0.0800 
    246 H246        3.3214  -16.2009  -51.6618 H         1 UNK         0.0800 
    247 H247        4.2701  -17.6578  -51.6562 H         1 UNK         0.0800 
@<TRIPOS>BOND
     1    1    2 1    
     2    1  127 1    
     3    1  128 1    
     4    1  129 1    
     5    2    3 2    
     6    2    4 am   BACKBONE|DICT|INTERRES
     7    4    5 1    
     8    4  130 1    
     9    5    6 1    
    10    5   65 1    
    11    5  131 1    
    12    6    7 1    
    13    6  132 1    
    14    6  133 1    
    15    7    8 1    
    16    8    9 1    
    17    8  134 1    
    18    8  135 1    
    19    9   10 ar   
    20    9   14 ar   
    21   10   11 ar   
    22   10  136 1    
    23   11   12 ar   
    24   11  126 1    
    25   12   13 ar   
    26   12  137 1    
    27   13   14 ar   
    28   13   15 1    
    29   14  138 1    
    30   15   16 1    
    31   15  139 1    
    32   15  140 1    
    33   16   17 1    
    34   17   18 1    
    35   17  141 1    
    36   17  142 1    
    37   18   19 1    
    38   18   67 1    
    39   18  143 1    
    40   19   20 am   BACKBONE|DICT|INTERRES
    41   19  144 1    
    42   20   21 2    
    43   20   22 1    
    44   22   23 1    
    45   22   24 1    
    46   22  145 1    
    47   23  146 1    
    48   23  147 1    
    49   23  148 1    
    50   24   25 am   BACKBONE|DICT|INTERRES
    51   24  149 1    
    52   25   26 2    
    53   25   27 1    
    54   27   28 1    
    55   27   29 1    
    56   27  150 1    
    57   28  151 1    
    58   28  152 1    
    59   28  153 1    
    60   29   30 am   BACKBONE|DICT|INTERRES
    61   29  154 1    
    62   30   31 2    
    63   30   32 1    
    64   32   33 1    
    65   32   34 1    
    66   32  155 1    
    67   33  156 1    
    68   33  157 1    
    69   33  158 1    
    70   34   35 am   BACKBONE|DICT|INTERRES
    71   34  159 1    
    72   35   36 2    
    73   35   37 1    
    74   37   38 1    
    75   37   39 1    
    76   37  160 1    
    77   38  161 1    
    78   38  162 1    
    79   38  163 1    
    80   39   40 am   BACKBONE|DICT|INTERRES
    81   39  164 1    
    82   40   41 2    
    83   40   42 1    
    84   42   43 1    
    85   42   44 1    
    86   42  165 1    
    87   43  166 1    
    88   43  167 1    
    89   43  168 1    
    90   44   45 am   BACKBONE|DICT|INTERRES
    91   44  169 1    
    92   45   46 2    
    93   45   47 1    
    94   47   48 1    
    95   47   49 1    
    96   47  170 1    
    97   48  171 1    
    98   48  172 1    
    99   48  173 1    
   100   49   50 am   BACKBONE|DICT|INTERRES
   101   49  174 1    
   102   50   51 2    
   103   50   52 1    
   104   52   53 1    
   105   52   54 1    
   106   52  175 1    
   107   53  176 1    
   108   53  177 1    
   109   53  178 1    
   110   54   55 am   BACKBONE|DICT|INTERRES
   111   54  179 1    
   112   55   56 2    
   113   55   57 1    
   114   57   58 1    
   115   57   59 1    
   116   57  180 1    
   117   58  181 1    
   118   58  182 1    
   119   58  183 1    
   120   59   60 am   BACKBONE|DICT|INTERRES
   121   59  184 1    
   122   60   61 2    
   123   60   62 1    
   124   62   63 1    
   125   62   64 1    
   126   62  185 1    
   127   63  186 1    
   128   63  187 1    
   129   63  188 1    
   130   64   65 am   BACKBONE|DICT|INTERRES
   131   64  189 1    
   132   65   66 2    
   133   67   68 2    
   134   67   69 am   BACKBONE|DICT|INTERRES
   135   69   70 1    
   136   69  190 1    
   137   70   71 1    
   138   70   72 1    
   139   70  191 1    
   140   71  192 1    
   141   71  193 1    
   142   71  194 1    
   143   72   73 2    
   144   72   74 am   BACKBONE|DICT|INTERRES
   145   74   75 1    
   146   74  195 1    
   147   75   76 1    
   148   75   77 1    
   149   75  196 1    
   150   76  197 1    
   151   76  198 1    
   152   76  199 1    
   153   77   78 2    
   154   77   79 am   BACKBONE|DICT|INTERRES
   155   79   80 1    
   156   79  200 1    
   157   80   81 1    
   158   80   82 1    
   159   80  201 1    
   160   81  202 1    
   161   81  203 1    
   162   81  204 1    
   163   82   83 2    
   164   82   84 am   BACKBONE|DICT|INTERRES
   165   84   85 1    
   166   84  205 1    
   167   85   86 1    
   168   85   87 1    
   169   85  206 1    
   170   86  207 1    
   171   86  208 1    
   172   86  209 1    
   173   87   88 2    
   174   87   89 am   BACKBONE|DICT|INTERRES
   175   89   90 1    
   176   89  210 1    
   177   90   91 1    
   178   90   92 1    
   179   90  211 1    
   180   91  212 1    
   181   91  213 1    
   182   91  214 1    
   183   92   93 2    
   184   92   94 am   BACKBONE|DICT|INTERRES
   185   94   95 1    
   186   94  215 1    
   187   95   96 1    
   188   95   97 1    
   189   95  216 1    
   190   96  217 1    
   191   96  218 1    
   192   96  219 1    
   193   97   98 2    
   194   97   99 am   BACKBONE|DICT|INTERRES
   195   99  100 1    
   196   99  220 1    
   197  100  101 1    
   198  100  102 1    
   199  100  221 1    
   200  101  222 1    
   201  101  223 1    
   202  101  224 1    
   203  102  103 2    
   204  102  104 am   BACKBONE|DICT|INTERRES
   205  104  105 1    
   206  104  225 1    
   207  105  106 1    
   208  105  107 1    
   209  105  226 1    
   210  106  227 1    
   211  106  228 1    
   212  106  229 1    
   213  107  108 2    
   214  107  109 am   BACKBONE|DICT|INTERRES
   215  109  110 1    
   216  109  230 1    
   217  110  111 1    
   218  110  112 1    
   219  110  231 1    
   220  111  232 1    
   221  111  233 1    
   222  111  234 1    
   223  112  113 2    
   224  112  114 am   BACKBONE|DICT|INTERRES
   225  114  115 1    
   226  114  235 1    
   227  115  116 1    
   228  115  117 1    
   229  115  236 1    
   230  116  237 1    
   231  116  238 1    
   232  116  239 1    
   233  117  118 2    
   234  117  119 am   BACKBONE|DICT|INTERRES
   235  119  120 1    
   236  119  240 1    
   237  120  121 1    
   238  120  124 1    
   239  120  241 1    
   240  121  122 am   BACKBONE|DICT|INTERRES
   241  121  123 2    
   242  122  242 1    
   243  122  243 1    
   244  124  125 1    
   245  124  244 1    
   246  124  245 1    
   247  125  126 1    
   248  126  246 1    
   249  126  247 1    
@<TRIPOS>SUBSTRUCTURE
     1 UNK         1 GROUP             0       ****    0 ROOT    
