@<TRIPOS>MOLECULE
3R540
247   249    1
SMALL
USER_CHARGES


@<TRIPOS>ATOM
      1 CA          0.9701  -15.8175  -42.2666 C.3       0 UNK        -0.1800 
      2 C           1.2541  -14.3728  -42.6545 C.2       0 UNK         0.5000 
      3 O           2.2579  -13.8072  -42.2203 O.2       0 UNK        -0.5000 
      4 N           0.3698  -13.7725  -43.4599 N.am      1 UNK        -0.5000 
      5 CA          0.5176  -12.4296  -44.0269 C.3       1 UNK         0.1400 
      6 C6         -0.8119  -11.9082  -44.6351 C.3       23 UNK        -0.0398 
      7 S7         -1.5567  -13.0273  -45.8780 S.3       23 UNK        -0.2404 
      8 C8         -3.0235  -13.6288  -44.9800 C.3       23 UNK        -0.0205 
      9 C9         -3.5664  -14.9304  -45.5559 C.ar      23 UNK        -0.0193 
     10 C10        -3.9684  -15.0026  -46.8959 C.ar      23 UNK        -0.1150 
     11 C11        -4.4874  -16.1919  -47.4147 C.ar      23 UNK        -0.0193 
     12 C12        -4.6315  -17.2961  -46.5765 C.ar      23 UNK        -0.1150 
     13 C13        -4.2097  -17.2541  -45.2472 C.ar      23 UNK        -0.0193 
     14 C14        -3.6803  -16.0637  -44.7397 C.ar      23 UNK        -0.1150 
     15 C15        -4.3067  -18.5090  -44.3889 C.3       23 UNK        -0.0205 
     16 S16        -3.3207  -19.8518  -45.1200 S.3       23 UNK        -0.2404 
     17 C17        -3.6824  -21.2708  -44.0485 C.3       23 UNK        -0.0398 
     18 CA         -3.1309  -22.5617  -44.6975 C.3       11 UNK         0.1400 
     19 N          -1.6608  -22.5599  -44.7692 N.am      11 UNK        -0.5000 
     20 C          -0.9231  -23.4390  -45.4613 C.2       10 UNK         0.5000 
     21 O          -1.4170  -24.3714  -46.0982 O.2       10 UNK        -0.5000 
     22 CA          0.6078  -23.2733  -45.4178 C.3       10 UNK         0.1400 
     23 CB          1.2832  -23.7216  -46.7267 C.3       10 UNK        -0.1800 
     24 N           1.0067  -21.8936  -45.1355 N.am      10 UNK        -0.5000 
     25 C           1.8527  -21.5116  -44.1683 C.2       9 UNK         0.5000 
     26 O           2.3003  -22.2841  -43.3198 O.2       9 UNK        -0.5000 
     27 CA          2.3101  -20.0358  -44.1416 C.3       9 UNK         0.1400 
     28 CB          3.8053  -19.9323  -44.4816 C.3       9 UNK        -0.1800 
     29 N           1.5680  -19.1726  -45.0597 N.am      9 UNK        -0.5000 
     30 C           0.3410  -18.6903  -44.8256 C.2       8 UNK         0.5000 
     31 O          -0.2638  -18.8611  -43.7674 O.2       8 UNK        -0.5000 
     32 CA         -0.3306  -17.9138  -45.9744 C.3       8 UNK         0.1400 
     33 CB         -0.1064  -16.4060  -45.8197 C.3       8 UNK        -0.1800 
     34 N           0.0936  -18.3329  -47.3109 N.am      8 UNK        -0.5000 
     35 C          -0.0612  -19.5577  -47.8332 C.2       7 UNK         0.5000 
     36 O          -0.4881  -20.5224  -47.2022 O.2       7 UNK        -0.5000 
     37 CA          0.3594  -19.7452  -49.2968 C.3       7 UNK         0.1400 
     38 CB         -0.7363  -19.2224  -50.2315 C.3       7 UNK        -0.1800 
     39 N           1.6065  -19.0401  -49.5773 N.am      7 UNK        -0.5000 
     40 C           2.8100  -19.6216  -49.6513 C.2       6 UNK         0.5000 
     41 O           2.9919  -20.8365  -49.5668 O.2       6 UNK        -0.5000 
     42 CA          4.0253  -18.6930  -49.8494 C.3       6 UNK         0.1400 
     43 CB          4.3903  -18.5998  -51.3388 C.3       6 UNK        -0.1800 
     44 N           3.8357  -17.3401  -49.3198 N.am      6 UNK        -0.5000 
     45 C           3.6700  -17.0437  -48.0234 C.2       5 UNK         0.5000 
     46 O           3.6482  -17.8848  -47.1241 O.2       5 UNK        -0.5000 
     47 CA          3.4566  -15.5588  -47.6747 C.3       5 UNK         0.1400 
     48 CB          4.8111  -14.8457  -47.5505 C.3       5 UNK        -0.1800 
     49 N           2.5939  -14.7905  -48.5848 N.am      5 UNK        -0.5000 
     50 C           1.3988  -15.1579  -49.0723 C.2       4 UNK         0.5000 
     51 O           0.9446  -16.2974  -48.9827 O.2       4 UNK        -0.5000 
     52 CA          0.5678  -14.0712  -49.7720 C.3       4 UNK         0.1400 
     53 CB         -0.9409  -14.3909  -49.7826 C.3       4 UNK        -0.1800 
     54 N           0.7913  -12.7639  -49.1554 N.am      4 UNK        -0.5000 
     55 C           0.8507  -11.6083  -49.8292 C.2       3 UNK         0.5000 
     56 O           0.7487  -11.5264  -51.0539 O.2       3 UNK        -0.5000 
     57 CA          1.0505  -10.3170  -49.0116 C.3       3 UNK         0.1400 
     58 CB         -0.3022   -9.6281  -48.7717 C.3       3 UNK        -0.1800 
     59 N           1.7092  -10.5113  -47.7195 N.am      3 UNK        -0.5000 
     60 C           2.9752  -10.9120  -47.5361 C.2       2 UNK         0.5000 
     61 O           3.7411  -11.2074  -48.4534 O.2       2 UNK        -0.5000 
     62 CA          3.4607  -11.0097  -46.0752 C.3       2 UNK         0.1400 
     63 CB          4.2096   -9.7303  -45.6728 C.3       2 UNK        -0.1800 
     64 N           2.3771  -11.2518  -45.1168 N.am      2 UNK        -0.5000 
     65 C           1.6620  -12.3833  -45.0614 C.2       1 UNK         0.5000 
     66 O           1.8493  -13.3397  -45.8151 O.2       1 UNK        -0.5000 
     67 C          -3.7020  -23.8128  -44.0007 C.2       11 UNK         0.5000 
     68 O          -4.7944  -24.2571  -44.3529 O.2       11 UNK        -0.5000 
     69 N          -2.9364  -24.3768  -43.0587 N.am      12 UNK        -0.5000 
     70 CA         -3.2311  -25.6402  -42.3804 C.3       12 UNK         0.1400 
     71 CB         -2.6806  -25.5558  -40.9464 C.3       12 UNK        -0.1800 
     72 C          -2.6486  -26.8634  -43.1229 C.2       12 UNK         0.5000 
     73 O          -2.7523  -27.9791  -42.6103 O.2       12 UNK        -0.5000 
     74 N          -2.0239  -26.6427  -44.2866 N.am      13 UNK        -0.5000 
     75 CA         -1.3306  -27.6437  -45.0876 C.3       13 UNK         0.1400 
     76 CB          0.1904  -27.4688  -44.8926 C.3       13 UNK        -0.1800 
     77 C          -1.7942  -27.5522  -46.5545 C.2       13 UNK         0.5000 
     78 O          -2.9829  -27.3457  -46.8084 O.2       13 UNK        -0.5000 
     79 N          -0.8578  -27.7427  -47.4928 N.am      14 UNK        -0.5000 
     80 CA         -1.0983  -27.9318  -48.9242 C.3       14 UNK         0.1400 
     81 CB          0.2272  -28.3253  -49.5950 C.3       14 UNK        -0.1800 
     82 C          -1.7344  -26.7405  -49.6652 C.2       14 UNK         0.5000 
     83 O          -2.3739  -26.9636  -50.6944 O.2       14 UNK        -0.5000 
     84 N          -1.5510  -25.5091  -49.1652 N.am      15 UNK        -0.5000 
     85 CA         -2.1168  -24.3103  -49.7920 C.3       15 UNK         0.1400 
     86 CB         -1.3341  -23.0642  -49.3648 C.3       15 UNK        -0.1800 
     87 C          -3.6158  -24.1363  -49.4941 C.2       15 UNK         0.5000 
     88 O          -4.3189  -23.5020  -50.2833 O.2       15 UNK        -0.5000 
     89 N          -4.0747  -24.6823  -48.3563 N.am      16 UNK        -0.5000 
     90 CA         -5.4706  -24.7587  -47.9008 C.3       16 UNK         0.1400 
     91 CB         -6.2447  -25.7612  -48.7809 C.3       16 UNK        -0.1800 
     92 C          -6.2010  -23.3985  -47.7987 C.2       16 UNK         0.5000 
     93 O          -7.4323  -23.3671  -47.7996 O.2       16 UNK        -0.5000 
     94 N          -5.4267  -22.3042  -47.7383 N.am      17 UNK        -0.5000 
     95 CA         -5.8461  -20.9001  -47.7700 C.3       17 UNK         0.1400 
     96 CB         -6.7223  -20.5643  -46.5426 C.3       17 UNK        -0.1800 
     97 C          -6.5166  -20.4724  -49.0956 C.2       17 UNK         0.5000 
     98 O          -7.2504  -19.4822  -49.1011 O.2       17 UNK        -0.5000 
     99 N          -6.2746  -21.2117  -50.1884 N.am      18 UNK        -0.5000 
    100 CA        -6.9661  -21.0210  -51.4657 C.3       18 UNK         0.1400 
    101 CB        -8.1541  -21.9947  -51.5433 C.3       18 UNK        -0.1800 
    102 C         -6.0548  -21.1827  -52.6916 C.2       18 UNK         0.5000 
    103 O         -6.3002  -20.5213  -53.7007 O.2       18 UNK        -0.5000 
    104 N         -5.0410  -22.0518  -52.6099 N.am      19 UNK        -0.5000 
    105 CA        -4.0927  -22.3081  -53.6922 C.3       19 UNK         0.1400 
    106 CB        -3.7121  -23.7981  -53.6655 C.3       19 UNK        -0.1800 
    107 C         -2.8489  -21.4083  -53.5749 C.2       19 UNK         0.5000 
    108 O         -2.6888  -20.6821  -52.5897 O.2       19 UNK        -0.5000 
    109 N         -1.9824  -21.4911  -54.5948 N.am      20 UNK        -0.5000 
    110 CA        -0.7200  -20.7619  -54.7421 C.3       20 UNK         0.1400 
    111 CB         0.3256  -21.2786  -53.7262 C.3       20 UNK        -0.1800 
    112 C         -0.9418  -19.2348  -54.7261 C.2       20 UNK         0.5000 
    113 O         -1.7533  -18.7412  -55.5123 O.2       20 UNK        -0.5000 
    114 N         -0.2420  -18.5143  -53.8397 N.am      21 UNK        -0.5000 
    115 CA        -0.2979  -17.0569  -53.6938 C.3       21 UNK         0.1400 
    116 CB         0.7716  -16.6133  -52.6846 C.3       21 UNK        -0.1800 
    117 C         -1.6834  -16.4915  -53.3125 C.2       21 UNK         0.5000 
    118 O         -1.9353  -15.3151  -53.5758 O.2       21 UNK        -0.5000 
    119 N         -2.5603  -17.3248  -52.7359 N.am      22 UNK        -0.5000 
    120 CA        -3.9740  -16.9911  -52.4902 C.3       22 UNK         0.1400 
    121 C         -4.8818  -17.1226  -53.7503 C.2       22 UNK         0.5000 
    122 N         -4.4041  -17.6258  -54.8835 N.am      22 UNK        -0.7600 
    123 O         -6.0466  -16.7367  -53.7051 O.2       22 UNK        -0.5000 
    124 C124       -4.5635  -17.7850  -51.2978 C.3       23 UNK        -0.0398 
    125 S125       -3.7021  -17.4343  -49.7310 S.3       23 UNK        -0.2404 
    126 C126       -4.8683  -16.3247  -48.8804 C.3       23 UNK        -0.0205 
    127 H127        1.1099  -15.9551  -41.1944 H         1 UNK         0.0600 
    128 H128       -0.0511  -16.1105  -42.5114 H         1 UNK         0.0600 
    129 H129        1.6528  -16.4875  -42.7894 H         1 UNK         0.0600 
    130 H130       -0.4091  -14.2998  -43.8245 H         1 UNK         0.3000 
    131 H131        0.7878  -11.7610  -43.2066 H         1 UNK         0.0600 
    132 H132       -1.5291  -11.7330  -43.8324 H         1 UNK         0.0800 
    133 H133       -0.6657  -10.9316  -45.0994 H         1 UNK         0.0800 
    134 H134       -2.7729  -13.7627  -43.9268 H         1 UNK         0.0800 
    135 H135       -3.8031  -12.8670  -45.0179 H         1 UNK         0.0800 
    136 H136       -3.8612  -14.1375  -47.5351 H         1 UNK         0.1150 
    137 H137       -5.0294  -18.2115  -46.9819 H         1 UNK         0.1150 
    138 H138       -3.3566  -16.0213  -43.7093 H         1 UNK         0.1150 
    139 H139       -3.9545  -18.3171  -43.3743 H         1 UNK         0.0800 
    140 H140       -5.3509  -18.8144  -44.3131 H         1 UNK         0.0800 
    141 H141       -4.7620  -21.3300  -43.9027 H         1 UNK         0.0800 
    142 H142       -3.2409  -21.1032  -43.0648 H         1 UNK         0.0800 
    143 H143       -3.4949  -22.6037  -45.7255 H         1 UNK         0.0600 
    144 H144       -1.1892  -21.7948  -44.3083 H         1 UNK         0.3000 
    145 H145        0.9484  -23.9390  -44.6228 H         1 UNK         0.0600 
    146 H146        2.3688  -23.6995  -46.6317 H         1 UNK         0.0600 
    147 H147        1.0058  -24.7404  -46.9988 H         1 UNK         0.0600 
    148 H148        1.0126  -23.0693  -47.5568 H         1 UNK         0.0600 
    149 H149        0.6316  -21.1995  -45.7774 H         1 UNK         0.3000 
    150 H150        2.1687  -19.6691  -43.1228 H         1 UNK         0.0600 
    151 H151        4.4086  -20.5272  -43.7947 H         1 UNK         0.0600 
    152 H152        4.1551  -18.9021  -44.4106 H         1 UNK         0.0600 
    153 H153        4.0115  -20.2859  -45.4928 H         1 UNK         0.0600 
    154 H154        2.0161  -18.9552  -45.9419 H         1 UNK         0.3000 
    155 H155       -1.4033  -18.0820  -45.9193 H         1 UNK         0.0600 
    156 H156       -0.5728  -15.8516  -46.6341 H         1 UNK         0.0600 
    157 H157        0.9522  -16.1506  -45.7974 H         1 UNK         0.0600 
    158 H158       -0.5557  -16.0488  -44.8947 H         1 UNK         0.0600 
    159 H159        0.4363  -17.5903  -47.9176 H         1 UNK         0.3000 
    160 H160        0.4777  -20.8143  -49.4796 H         1 UNK         0.0600 
    161 H161       -0.8862  -18.1491  -50.1134 H         1 UNK         0.0600 
    162 H162       -1.6896  -19.7140  -50.0337 H         1 UNK         0.0600 
    163 H163       -0.4870  -19.4110  -51.2716 H         1 UNK         0.0600 
    164 H164        1.5541  -18.0262  -49.5856 H         1 UNK         0.3000 
    165 H165        4.8675  -19.1423  -49.3190 H         1 UNK         0.0600 
    166 H166        3.5931  -18.1356  -51.9196 H         1 UNK         0.0600 
    167 H167        5.2990  -18.0163  -51.4874 H         1 UNK         0.0600 
    168 H168        4.5689  -19.5900  -51.7603 H         1 UNK         0.0600 
    169 H169        3.8190  -16.5852  -49.9893 H         1 UNK         0.3000 
    170 H170        2.9817  -15.5357  -46.6940 H         1 UNK         0.0600 
    171 H171        5.4715  -15.3735  -46.8610 H         1 UNK         0.0600 
    172 H172        5.3213  -14.7809  -48.5122 H         1 UNK         0.0600 
    173 H173        4.6888  -13.8334  -47.1680 H         1 UNK         0.0600 
    174 H174        2.8756  -13.8325  -48.7374 H         1 UNK         0.3000 
    175 H175        0.9202  -14.0512  -50.8040 H         1 UNK         0.0600 
    176 H176       -1.1428  -15.3379  -50.2852 H         1 UNK         0.0600 
    177 H177       -1.5053  -13.6224  -50.3105 H         1 UNK         0.0600 
    178 H178       -1.3411  -14.4659  -48.7707 H         1 UNK         0.0600 
    179 H179        0.8946  -12.7564  -48.1482 H         1 UNK         0.3000 
    180 H180        1.6755   -9.6481  -49.6069 H         1 UNK         0.0600 
    181 H181       -0.9621  -10.2426  -48.1574 H         1 UNK         0.0600 
    182 H182       -0.8166   -9.4360  -49.7144 H         1 UNK         0.0600 
    183 H183       -0.1744   -8.6675  -48.2724 H         1 UNK         0.0600 
    184 H184        1.1617  -10.2928  -46.9013 H         1 UNK         0.3000 
    185 H185        4.1601  -11.8452  -46.0128 H         1 UNK         0.0600 
    186 H186        4.6248   -9.8150  -44.6683 H         1 UNK         0.0600 
    187 H187        5.0418   -9.5353  -46.3508 H         1 UNK         0.0600 
    188 H188        3.5567   -8.8568  -45.6951 H         1 UNK         0.0600 
    189 H189        2.1777  -10.5053  -44.4661 H         1 UNK         0.3000 
    190 H190       -2.0485  -23.9477  -42.8415 H         1 UNK         0.3000 
    191 H191       -4.3121  -25.7818  -42.3201 H         1 UNK         0.0600 
    192 H192       -3.1059  -24.7072  -40.4103 H         1 UNK         0.0600 
    193 H193       -2.9272  -26.4522  -40.3760 H         1 UNK         0.0600 
    194 H194       -1.5951  -25.4492  -40.9376 H         1 UNK         0.0600 
    195 H195       -2.0503  -25.7164  -44.6969 H         1 UNK         0.3000 
    196 H196       -1.6018  -28.6465  -44.7523 H         1 UNK         0.0600 
    197 H197        0.7527  -28.2647  -45.3819 H         1 UNK         0.0600 
    198 H198        0.4531  -27.5042  -43.8351 H         1 UNK         0.0600 
    199 H199        0.5411  -26.5144  -45.2860 H         1 UNK         0.0600 
    200 H200        0.0941  -27.8795  -47.1860 H         1 UNK         0.3000 
    201 H201       -1.7892  -28.7713  -49.0259 H         1 UNK         0.0600 
    202 H202        0.6350  -29.2385  -49.1609 H         1 UNK         0.0600 
    203 H203        0.9769  -27.5395  -49.4932 H         1 UNK         0.0600 
    204 H204        0.0883  -28.5100  -50.6612 H         1 UNK         0.0600 
    205 H205       -1.0591  -25.3922  -48.2895 H         1 UNK         0.3000 
    206 H206       -2.0015  -24.4033  -50.8723 H         1 UNK         0.0600 
    207 H207       -0.2738  -23.1688  -49.5930 H         1 UNK         0.0600 
    208 H208       -1.6950  -22.1840  -49.8981 H         1 UNK         0.0600 
    209 H209       -1.4381  -22.8629  -48.2999 H         1 UNK         0.0600 
    210 H210       -3.4077  -25.1772  -47.7764 H         1 UNK         0.3000 
    211 H211       -5.4369  -25.1628  -46.8884 H         1 UNK         0.0600 
    212 H212       -6.3654  -25.3921  -49.8001 H         1 UNK         0.0600 
    213 H213       -7.2408  -25.9523  -48.3803 H         1 UNK         0.0600 
    214 H214       -5.7282  -26.7201  -48.8304 H         1 UNK         0.0600 
    215 H215       -4.4298  -22.4562  -47.7790 H         1 UNK         0.3000 
    216 H216       -4.9244  -20.3229  -47.7008 H         1 UNK         0.0600 
    217 H217       -6.2609  -20.9072  -45.6190 H         1 UNK         0.0600 
    218 H218       -7.7078  -21.0252  -46.6109 H         1 UNK         0.0600 
    219 H219       -6.8795  -19.4899  -46.4482 H         1 UNK         0.0600 
    220 H220       -5.6425  -22.0021  -50.1173 H         1 UNK         0.3000 
    221 H221       -7.3597  -20.0040  -51.5248 H         1 UNK         0.0600 
    222 H222       -7.8260  -23.0321  -51.4657 H         1 UNK         0.0600 
    223 H223       -8.8678  -21.8095  -50.7403 H         1 UNK         0.0600 
    224 H224       -8.6907  -21.8867  -52.4868 H         1 UNK         0.0600 
    225 H225       -4.8531  -22.5429  -51.7403 H         1 UNK         0.3000 
    226 H226       -4.5648  -22.1002  -54.6548 H         1 UNK         0.0600 
    227 H227       -4.5982  -24.4312  -53.7160 H         1 UNK         0.0600 
    228 H228       -3.0792  -24.0640  -54.5127 H         1 UNK         0.0600 
    229 H229       -3.1700  -24.0590  -52.7591 H         1 UNK         0.0600 
    230 H230       -2.2220  -22.0885  -55.3732 H         1 UNK         0.3000 
    231 H231       -0.3451  -20.9942  -55.7398 H         1 UNK         0.0600 
    232 H232        1.2893  -20.7849  -53.8567 H         1 UNK         0.0600 
    233 H233        0.4981  -22.3460  -53.8640 H         1 UNK         0.0600 
    234 H234        0.0095  -21.1357  -52.6936 H         1 UNK         0.0600 
    235 H235        0.3927  -19.0021  -53.2259 H         1 UNK         0.3000 
    236 H236       -0.0396  -16.6280  -54.6642 H         1 UNK         0.0600 
    237 H237        0.8014  -15.5265  -52.6102 H         1 UNK         0.0600 
    238 H238        0.5778  -17.0082  -51.6880 H         1 UNK         0.0600 
    239 H239        1.7644  -16.9402  -52.9921 H         1 UNK         0.0600 
    240 H240       -2.2937  -18.2855  -52.5654 H         1 UNK         0.3000 
    241 H241       -4.0230  -15.9357  -52.2148 H         1 UNK         0.0600 
    242 H242       -3.4455  -17.9504  -54.9616 H         1 UNK         0.3800 
    243 H243       -5.0153  -17.6977  -55.6808 H         1 UNK         0.3800 
    244 H244       -5.6266  -17.5740  -51.1697 H         1 UNK         0.0800 
    245 H245       -4.4910  -18.8564  -51.4889 H         1 UNK         0.0800 
    246 H246       -5.8808  -16.7257  -48.9497 H         1 UNK         0.0800 
    247 H247       -4.8739  -15.3527  -49.3757 H         1 UNK         0.0800 
@<TRIPOS>BOND
     1    1    2 1    
     2    1  127 1    
     3    1  128 1    
     4    1  129 1    
     5    2    3 2    
     6    2    4 am   BACKBONE|DICT|INTERRES
     7    4    5 1    
     8    4  130 1    
     9    5    6 1    
    10    5   65 1    
    11    5  131 1    
    12    6    7 1    
    13    6  132 1    
    14    6  133 1    
    15    7    8 1    
    16    8    9 1    
    17    8  134 1    
    18    8  135 1    
    19    9   10 ar   
    20    9   14 ar   
    21   10   11 ar   
    22   10  136 1    
    23   11   12 ar   
    24   11  126 1    
    25   12   13 ar   
    26   12  137 1    
    27   13   14 ar   
    28   13   15 1    
    29   14  138 1    
    30   15   16 1    
    31   15  139 1    
    32   15  140 1    
    33   16   17 1    
    34   17   18 1    
    35   17  141 1    
    36   17  142 1    
    37   18   19 1    
    38   18   67 1    
    39   18  143 1    
    40   19   20 am   BACKBONE|DICT|INTERRES
    41   19  144 1    
    42   20   21 2    
    43   20   22 1    
    44   22   23 1    
    45   22   24 1    
    46   22  145 1    
    47   23  146 1    
    48   23  147 1    
    49   23  148 1    
    50   24   25 am   BACKBONE|DICT|INTERRES
    51   24  149 1    
    52   25   26 2    
    53   25   27 1    
    54   27   28 1    
    55   27   29 1    
    56   27  150 1    
    57   28  151 1    
    58   28  152 1    
    59   28  153 1    
    60   29   30 am   BACKBONE|DICT|INTERRES
    61   29  154 1    
    62   30   31 2    
    63   30   32 1    
    64   32   33 1    
    65   32   34 1    
    66   32  155 1    
    67   33  156 1    
    68   33  157 1    
    69   33  158 1    
    70   34   35 am   BACKBONE|DICT|INTERRES
    71   34  159 1    
    72   35   36 2    
    73   35   37 1    
    74   37   38 1    
    75   37   39 1    
    76   37  160 1    
    77   38  161 1    
    78   38  162 1    
    79   38  163 1    
    80   39   40 am   BACKBONE|DICT|INTERRES
    81   39  164 1    
    82   40   41 2    
    83   40   42 1    
    84   42   43 1    
    85   42   44 1    
    86   42  165 1    
    87   43  166 1    
    88   43  167 1    
    89   43  168 1    
    90   44   45 am   BACKBONE|DICT|INTERRES
    91   44  169 1    
    92   45   46 2    
    93   45   47 1    
    94   47   48 1    
    95   47   49 1    
    96   47  170 1    
    97   48  171 1    
    98   48  172 1    
    99   48  173 1    
   100   49   50 am   BACKBONE|DICT|INTERRES
   101   49  174 1    
   102   50   51 2    
   103   50   52 1    
   104   52   53 1    
   105   52   54 1    
   106   52  175 1    
   107   53  176 1    
   108   53  177 1    
   109   53  178 1    
   110   54   55 am   BACKBONE|DICT|INTERRES
   111   54  179 1    
   112   55   56 2    
   113   55   57 1    
   114   57   58 1    
   115   57   59 1    
   116   57  180 1    
   117   58  181 1    
   118   58  182 1    
   119   58  183 1    
   120   59   60 am   BACKBONE|DICT|INTERRES
   121   59  184 1    
   122   60   61 2    
   123   60   62 1    
   124   62   63 1    
   125   62   64 1    
   126   62  185 1    
   127   63  186 1    
   128   63  187 1    
   129   63  188 1    
   130   64   65 am   BACKBONE|DICT|INTERRES
   131   64  189 1    
   132   65   66 2    
   133   67   68 2    
   134   67   69 am   BACKBONE|DICT|INTERRES
   135   69   70 1    
   136   69  190 1    
   137   70   71 1    
   138   70   72 1    
   139   70  191 1    
   140   71  192 1    
   141   71  193 1    
   142   71  194 1    
   143   72   73 2    
   144   72   74 am   BACKBONE|DICT|INTERRES
   145   74   75 1    
   146   74  195 1    
   147   75   76 1    
   148   75   77 1    
   149   75  196 1    
   150   76  197 1    
   151   76  198 1    
   152   76  199 1    
   153   77   78 2    
   154   77   79 am   BACKBONE|DICT|INTERRES
   155   79   80 1    
   156   79  200 1    
   157   80   81 1    
   158   80   82 1    
   159   80  201 1    
   160   81  202 1    
   161   81  203 1    
   162   81  204 1    
   163   82   83 2    
   164   82   84 am   BACKBONE|DICT|INTERRES
   165   84   85 1    
   166   84  205 1    
   167   85   86 1    
   168   85   87 1    
   169   85  206 1    
   170   86  207 1    
   171   86  208 1    
   172   86  209 1    
   173   87   88 2    
   174   87   89 am   BACKBONE|DICT|INTERRES
   175   89   90 1    
   176   89  210 1    
   177   90   91 1    
   178   90   92 1    
   179   90  211 1    
   180   91  212 1    
   181   91  213 1    
   182   91  214 1    
   183   92   93 2    
   184   92   94 am   BACKBONE|DICT|INTERRES
   185   94   95 1    
   186   94  215 1    
   187   95   96 1    
   188   95   97 1    
   189   95  216 1    
   190   96  217 1    
   191   96  218 1    
   192   96  219 1    
   193   97   98 2    
   194   97   99 am   BACKBONE|DICT|INTERRES
   195   99  100 1    
   196   99  220 1    
   197  100  101 1    
   198  100  102 1    
   199  100  221 1    
   200  101  222 1    
   201  101  223 1    
   202  101  224 1    
   203  102  103 2    
   204  102  104 am   BACKBONE|DICT|INTERRES
   205  104  105 1    
   206  104  225 1    
   207  105  106 1    
   208  105  107 1    
   209  105  226 1    
   210  106  227 1    
   211  106  228 1    
   212  106  229 1    
   213  107  108 2    
   214  107  109 am   BACKBONE|DICT|INTERRES
   215  109  110 1    
   216  109  230 1    
   217  110  111 1    
   218  110  112 1    
   219  110  231 1    
   220  111  232 1    
   221  111  233 1    
   222  111  234 1    
   223  112  113 2    
   224  112  114 am   BACKBONE|DICT|INTERRES
   225  114  115 1    
   226  114  235 1    
   227  115  116 1    
   228  115  117 1    
   229  115  236 1    
   230  116  237 1    
   231  116  238 1    
   232  116  239 1    
   233  117  118 2    
   234  117  119 am   BACKBONE|DICT|INTERRES
   235  119  120 1    
   236  119  240 1    
   237  120  121 1    
   238  120  124 1    
   239  120  241 1    
   240  121  122 am   BACKBONE|DICT|INTERRES
   241  121  123 2    
   242  122  242 1    
   243  122  243 1    
   244  124  125 1    
   245  124  244 1    
   246  124  245 1    
   247  125  126 1    
   248  126  246 1    
   249  126  247 1    
@<TRIPOS>SUBSTRUCTURE
     1 UNK         1 GROUP             0       ****    0 ROOT    
