@<TRIPOS>MOLECULE
3R540
247   249    1
SMALL
USER_CHARGES


@<TRIPOS>ATOM
      1 CA         -2.3768  -10.3549  -48.4644 C.3       0 UNK        -0.1800 
      2 C          -1.0490  -11.0679  -48.6757 C.2       0 UNK         0.5000 
      3 O          -0.0085  -10.5670  -48.2457 O.2       0 UNK        -0.5000 
      4 N          -1.0777  -12.2328  -49.3364 N.am      1 UNK        -0.5000 
      5 CA          0.0821  -13.1000  -49.5663 C.3       1 UNK         0.1400 
      6 C6         -0.2240  -14.2620  -50.5463 C.3       23 UNK        -0.0398 
      7 S7         -1.7488  -15.2167  -50.1968 S.3       23 UNK        -0.2404 
      8 C8         -1.1183  -16.6619  -49.2805 C.3       23 UNK        -0.0205 
      9 C9         -0.0604  -17.4451  -50.0443 C.ar      23 UNK        -0.0193 
     10 C10        -0.3231  -17.9390  -51.3252 C.ar      23 UNK        -0.1150 
     11 C11         0.6542  -18.6424  -52.0360 C.ar      23 UNK        -0.0193 
     12 C12         1.9006  -18.8661  -51.4401 C.ar      23 UNK        -0.1150 
     13 C13         2.1702  -18.3971  -50.1499 C.ar      23 UNK        -0.0193 
     14 C14         1.1867  -17.6828  -49.4609 C.ar      23 UNK        -0.1150 
     15 C15         3.5294  -18.6461  -49.5103 C.3       23 UNK        -0.0205 
     16 S16         3.7123  -20.3532  -48.9006 S.3       23 UNK        -0.2404 
     17 C17         2.7224  -20.3241  -47.3651 C.3       23 UNK        -0.0398 
     18 CA          2.3476  -21.7409  -46.8548 C.3       11 UNK         0.1400 
     19 N           1.8604  -21.7160  -45.4780 N.am      11 UNK        -0.5000 
     20 C           1.7687  -22.7931  -44.6867 C.2       10 UNK         0.5000 
     21 O           2.1144  -23.9253  -45.0254 O.2       10 UNK        -0.5000 
     22 CA          1.1930  -22.5718  -43.2766 C.3       10 UNK         0.1400 
     23 CB          2.2905  -22.0918  -42.3150 C.3       10 UNK        -0.1800 
     24 N           0.0791  -21.6248  -43.2501 N.am      10 UNK        -0.5000 
     25 C          -1.0993  -21.8204  -43.8574 C.2       9 UNK         0.5000 
     26 O          -1.3823  -22.8212  -44.5183 O.2       9 UNK        -0.5000 
     27 CA         -2.1212  -20.6785  -43.7415 C.3       9 UNK         0.1400 
     28 CB         -2.7479  -20.6315  -42.3405 C.3       9 UNK        -0.1800 
     29 N          -1.5577  -19.3797  -44.0908 N.am      9 UNK        -0.5000 
     30 C          -1.0714  -19.0625  -45.2992 C.2       8 UNK         0.5000 
     31 O          -1.0584  -19.8326  -46.2621 O.2       8 UNK        -0.5000 
     32 CA         -0.4563  -17.6594  -45.4342 C.3       8 UNK         0.1400 
     33 CB         -1.5635  -16.6025  -45.5576 C.3       8 UNK        -0.1800 
     34 N           0.4176  -17.3227  -44.3088 N.am      8 UNK        -0.5000 
     35 C           1.5088  -18.0169  -43.9532 C.2       7 UNK         0.5000 
     36 O           1.9343  -18.9901  -44.5726 O.2       7 UNK        -0.5000 
     37 CA          2.2041  -17.5959  -42.6495 C.3       7 UNK         0.1400 
     38 CB          3.1092  -16.3756  -42.8699 C.3       7 UNK        -0.1800 
     39 N           1.2361  -17.3174  -41.5897 N.am      7 UNK        -0.5000 
     40 C           0.4819  -18.2531  -40.9946 C.2       6 UNK         0.5000 
     41 O           0.5500  -19.4552  -41.2523 O.2       6 UNK        -0.5000 
     42 CA         -0.5510  -17.7525  -39.9689 C.3       6 UNK         0.1400 
     43 CB          0.1063  -17.5369  -38.5976 C.3       6 UNK        -0.1800 
     44 N          -1.2055  -16.5144  -40.3948 N.am      6 UNK        -0.5000 
     45 C          -2.0313  -16.4209  -41.4467 C.2       5 UNK         0.5000 
     46 O          -2.3594  -17.3799  -42.1431 O.2       5 UNK        -0.5000 
     47 CA         -2.5388  -15.0130  -41.8082 C.3       5 UNK         0.1400 
     48 CB         -3.8150  -14.6803  -41.0213 C.3       5 UNK        -0.1800 
     49 N          -1.5396  -13.9651  -41.5826 N.am      5 UNK        -0.5000 
     50 C          -0.3739  -13.8768  -42.2358 C.2       4 UNK         0.5000 
     51 O           0.0001  -14.6909  -43.0832 O.2       4 UNK        -0.5000 
     52 CA          0.5528  -12.7240  -41.8232 C.3       4 UNK         0.1400 
     53 CB          1.6288  -13.2241  -40.8473 C.3       4 UNK        -0.1800 
     54 N           1.2043  -12.1422  -42.9915 N.am      4 UNK        -0.5000 
     55 C           0.6610  -11.2211  -43.7932 C.2       3 UNK         0.5000 
     56 O          -0.4546  -10.7317  -43.6101 O.2       3 UNK        -0.5000 
     57 CA          1.5073  -10.7485  -44.9915 C.3       3 UNK         0.1400 
     58 CB          2.7468   -9.9552  -44.5334 C.3       3 UNK        -0.1800 
     59 N           1.8684  -11.8118  -45.9352 N.am      3 UNK        -0.5000 
     60 C           2.6423  -12.8926  -45.7480 C.2       2 UNK         0.5000 
     61 O           3.2202  -13.1394  -44.6880 O.2       2 UNK        -0.5000 
     62 CA          2.8473  -13.8423  -46.9528 C.3       2 UNK         0.1400 
     63 CB          2.7141  -15.3251  -46.5519 C.3       2 UNK        -0.1800 
     64 N           2.0247  -13.5367  -48.1344 N.am      2 UNK        -0.5000 
     65 C           0.6885  -13.5942  -48.2351 C.2       1 UNK         0.5000 
     66 O          -0.0545  -13.9629  -47.3258 O.2       1 UNK        -0.5000 
     67 C           1.3502  -22.4398  -47.7987 C.2       11 UNK         0.5000 
     68 O           1.7466  -23.3605  -48.5156 O.2       11 UNK        -0.5000 
     69 N           0.0976  -21.9629  -47.8163 N.am      12 UNK        -0.5000 
     70 CA         -0.7894  -22.1612  -48.9587 C.3       12 UNK         0.1400 
     71 CB         -0.9692  -20.8094  -49.6449 C.3       12 UNK        -0.1800 
     72 C          -2.1444  -22.7867  -48.6128 C.2       12 UNK         0.5000 
     73 O          -2.6605  -23.5459  -49.4335 O.2       12 UNK        -0.5000 
     74 N          -2.7129  -22.5121  -47.4285 N.am      13 UNK        -0.5000 
     75 CA         -3.9726  -23.1515  -47.0165 C.3       13 UNK         0.1400 
     76 CB         -4.6088  -22.4443  -45.8147 C.3       13 UNK        -0.1800 
     77 C          -3.7720  -24.6502  -46.7356 C.2       13 UNK         0.5000 
     78 O          -4.5700  -25.4714  -47.1910 O.2       13 UNK        -0.5000 
     79 N          -2.6532  -24.9690  -46.0695 N.am      14 UNK        -0.5000 
     80 CA         -2.1551  -26.3234  -45.8260 C.3       14 UNK         0.1400 
     81 CB         -0.9458  -26.2379  -44.8826 C.3       14 UNK        -0.1800 
     82 C          -1.7810  -27.0900  -47.1124 C.2       14 UNK         0.5000 
     83 O          -1.7649  -28.3205  -47.0965 O.2       14 UNK        -0.5000 
     84 N          -1.5281  -26.3640  -48.2105 N.am      15 UNK        -0.5000 
     85 CA         -1.2568  -26.8955  -49.5474 C.3       15 UNK         0.1400 
     86 CB         -0.2358  -25.9844  -50.2518 C.3       15 UNK        -0.1800 
     87 C          -2.5556  -27.0701  -50.3657 C.2       15 UNK         0.5000 
     88 O          -2.5629  -26.8095  -51.5694 O.2       15 UNK        -0.5000 
     89 N          -3.6264  -27.5187  -49.6943 N.am      16 UNK        -0.5000 
     90 CA         -4.9626  -27.8024  -50.2237 C.3       16 UNK         0.1400 
     91 CB         -4.9199  -28.9800  -51.2211 C.3       16 UNK        -0.1800 
     92 C          -5.6665  -26.5501  -50.7850 C.2       16 UNK         0.5000 
     93 O          -6.1605  -26.5716  -51.9142 O.2       16 UNK        -0.5000 
     94 N          -5.7190  -25.4921  -49.9612 N.am      17 UNK        -0.5000 
     95 CA         -6.4285  -24.2293  -50.2034 C.3       17 UNK         0.1400 
     96 CB         -7.9547  -24.4595  -50.2286 C.3       17 UNK        -0.1800 
     97 C          -5.9115  -23.4566  -51.4363 C.2       17 UNK         0.5000 
     98 O          -6.7045  -22.9700  -52.2440 O.2       17 UNK        -0.5000 
     99 N          -4.5830  -23.3378  -51.5451 N.am      18 UNK        -0.5000 
    100 CA        -3.8887  -22.6020  -52.6051 C.3       18 UNK         0.1400 
    101 CB        -2.5420  -23.2941  -52.8786 C.3       18 UNK        -0.1800 
    102 C         -3.6791  -21.1123  -52.2608 C.2       18 UNK         0.5000 
    103 O         -3.0083  -20.4109  -53.0164 O.2       18 UNK        -0.5000 
    104 N         -4.2027  -20.6535  -51.1135 N.am      19 UNK        -0.5000 
    105 CA        -4.0999  -19.2740  -50.6368 C.3       19 UNK         0.1400 
    106 CB        -4.6739  -19.1831  -49.2151 C.3       19 UNK        -0.1800 
    107 C         -4.7976  -18.2899  -51.5926 C.2       19 UNK         0.5000 
    108 O         -5.9336  -18.5429  -52.0010 O.2       19 UNK        -0.5000 
    109 N         -4.0872  -17.2109  -51.9500 N.am      20 UNK        -0.5000 
    110 CA        -4.4024  -16.1843  -52.9531 C.3       20 UNK         0.1400 
    111 CB        -5.6820  -15.4071  -52.5909 C.3       20 UNK        -0.1800 
    112 C         -4.4521  -16.7187  -54.3999 C.2       20 UNK         0.5000 
    113 O         -3.7781  -16.1741  -55.2751 O.2       20 UNK        -0.5000 
    114 N         -5.2252  -17.7850  -54.6268 N.am      21 UNK        -0.5000 
    115 CA        -5.3555  -18.5069  -55.8887 C.3       21 UNK         0.1400 
    116 CB        -6.7431  -19.1722  -55.9268 C.3       21 UNK        -0.1800 
    117 C         -4.2049  -19.5194  -56.0573 C.2       21 UNK         0.5000 
    118 O         -4.4380  -20.7299  -56.0467 O.2       21 UNK        -0.5000 
    119 N         -2.9782  -18.9995  -56.1896 N.am      22 UNK        -0.5000 
    120 CA        -1.7346  -19.7828  -56.3042 C.3       22 UNK         0.1400 
    121 C         -1.5916  -20.6160  -57.6136 C.2       22 UNK         0.5000 
    122 N         -2.3757  -20.3664  -58.6556 N.am      22 UNK        -0.7600 
    123 O         -0.7498  -21.5072  -57.6847 O.2       22 UNK        -0.5000 
    124 C124       -0.4710  -18.9065  -56.0979 C.3       23 UNK        -0.0398 
    125 S125       -0.4518  -17.9861  -54.5226 S.3       23 UNK        -0.2404 
    126 C126        0.3580  -19.1983  -53.4250 C.3       23 UNK        -0.0205 
    127 H127       -2.3496   -9.3670  -48.9241 H         1 UNK         0.0600 
    128 H128       -2.5694  -10.2316  -47.3987 H         1 UNK         0.0600 
    129 H129       -3.2085  -10.9102  -48.8987 H         1 UNK         0.0600 
    130 H130       -1.9636  -12.6184  -49.6307 H         1 UNK         0.3000 
    131 H131        0.8359  -12.4741  -50.0491 H         1 UNK         0.0600 
    132 H132       -0.3489  -13.8438  -51.5458 H         1 UNK         0.0800 
    133 H133        0.6345  -14.9292  -50.6324 H         1 UNK         0.0800 
    134 H134       -1.9495  -17.3259  -49.0422 H         1 UNK         0.0800 
    135 H135       -0.7214  -16.3175  -48.3264 H         1 UNK         0.0800 
    136 H136       -1.2877  -17.7718  -51.7786 H         1 UNK         0.1150 
    137 H137        2.6613  -19.4194  -51.9728 H         1 UNK         0.1150 
    138 H138        1.3911  -17.3142  -48.4670 H         1 UNK         0.1150 
    139 H139        4.3091  -18.4546  -50.2488 H         1 UNK         0.0800 
    140 H140        3.7104  -17.9473  -48.6926 H         1 UNK         0.0800 
    141 H141        1.8302  -19.7116  -47.5037 H         1 UNK         0.0800 
    142 H142        3.3272  -19.8123  -46.6159 H         1 UNK         0.0800 
    143 H143        3.2636  -22.3363  -46.8531 H         1 UNK         0.0600 
    144 H144        1.6160  -20.8041  -45.1012 H         1 UNK         0.3000 
    145 H145        0.8203  -23.5334  -42.9173 H         1 UNK         0.0600 
    146 H146        1.9147  -22.0172  -41.2944 H         1 UNK         0.0600 
    147 H147        3.1320  -22.7856  -42.3024 H         1 UNK         0.0600 
    148 H148        2.6744  -21.1118  -42.6017 H         1 UNK         0.0600 
    149 H149        0.2204  -20.7745  -42.7127 H         1 UNK         0.3000 
    150 H150       -2.9174  -20.8620  -44.4567 H         1 UNK         0.0600 
    151 H151       -3.1809  -21.5965  -42.0741 H         1 UNK         0.0600 
    152 H152       -3.5482  -19.8930  -42.2928 H         1 UNK         0.0600 
    153 H153       -2.0136  -20.3778  -41.5760 H         1 UNK         0.0600 
    154 H154       -1.5807  -18.6665  -43.3677 H         1 UNK         0.3000 
    155 H155        0.1479  -17.6413  -46.3426 H         1 UNK         0.0600 
    156 H156       -2.1861  -16.7853  -46.4337 H         1 UNK         0.0600 
    157 H157       -1.1452  -15.6016  -45.6524 H         1 UNK         0.0600 
    158 H158       -2.2212  -16.6009  -44.6895 H         1 UNK         0.0600 
    159 H159        0.1676  -16.4989  -43.7685 H         1 UNK         0.3000 
    160 H160        2.8334  -18.4265  -42.3226 H         1 UNK         0.0600 
    161 H161        2.5520  -15.5168  -43.2449 H         1 UNK         0.0600 
    162 H162        3.8898  -16.6009  -43.5971 H         1 UNK         0.0600 
    163 H163        3.6056  -16.0787  -41.9460 H         1 UNK         0.0600 
    164 H164        1.0783  -16.3480  -41.3609 H         1 UNK         0.3000 
    165 H165       -1.3169  -18.5238  -39.8633 H         1 UNK         0.0600 
    166 H166       -0.6321  -17.2554  -37.8467 H         1 UNK         0.0600 
    167 H167        0.5900  -18.4507  -38.2496 H         1 UNK         0.0600 
    168 H168        0.8663  -16.7553  -38.6313 H         1 UNK         0.0600 
    169 H169       -0.9922  -15.6780  -39.8721 H         1 UNK         0.3000 
    170 H170       -2.7858  -15.0144  -42.8718 H         1 UNK         0.0600 
    171 H171       -4.5839  -15.4360  -41.1880 H         1 UNK         0.0600 
    172 H172       -3.6273  -14.6341  -39.9478 H         1 UNK         0.0600 
    173 H173       -4.2313  -13.7218  -41.3317 H         1 UNK         0.0600 
    174 H174       -1.7713  -13.2642  -40.8934 H         1 UNK         0.3000 
    175 H175       -0.0351  -11.9532  -41.3201 H         1 UNK         0.0600 
    176 H176        2.2729  -13.9745  -41.3055 H         1 UNK         0.0600 
    177 H177        2.2629  -12.4041  -40.5098 H         1 UNK         0.0600 
    178 H178        1.1787  -13.6721  -39.9605 H         1 UNK         0.0600 
    179 H179        2.0781  -12.5644  -43.2942 H         1 UNK         0.3000 
    180 H180        0.8798  -10.0602  -45.5601 H         1 UNK         0.0600 
    181 H181        3.4428  -10.5699  -43.9622 H         1 UNK         0.0600 
    182 H182        2.4574   -9.1174  -43.8979 H         1 UNK         0.0600 
    183 H183        3.2867   -9.5440  -45.3863 H         1 UNK         0.0600 
    184 H184        1.4207  -11.7235  -46.8387 H         1 UNK         0.3000 
    185 H185        3.8802  -13.6875  -47.2676 H         1 UNK         0.0600 
    186 H186        3.4228  -15.5832  -45.7655 H         1 UNK         0.0600 
    187 H187        1.7166  -15.5580  -46.1802 H         1 UNK         0.0600 
    188 H188        2.9261  -15.9786  -47.3961 H         1 UNK         0.0600 
    189 H189        2.5456  -13.1925  -48.9296 H         1 UNK         0.3000 
    190 H190       -0.1698  -21.2282  -47.1655 H         1 UNK         0.3000 
    191 H191       -0.3266  -22.8233  -49.6924 H         1 UNK         0.0600 
    192 H192       -1.5450  -20.1130  -49.0348 H         1 UNK         0.0600 
    193 H193       -1.4622  -20.9217  -50.6067 H         1 UNK         0.0600 
    194 H194        0.0012  -20.3589  -49.8411 H         1 UNK         0.0600 
    195 H195       -2.2455  -21.9028  -46.7706 H         1 UNK         0.3000 
    196 H196       -4.6728  -23.0538  -47.8453 H         1 UNK         0.0600 
    197 H197       -5.6400  -22.7746  -45.6841 H         1 UNK         0.0600 
    198 H198       -4.6329  -21.3634  -45.9528 H         1 UNK         0.0600 
    199 H199       -4.0878  -22.6743  -44.8861 H         1 UNK         0.0600 
    200 H200       -2.0869  -24.2106  -45.6974 H         1 UNK         0.3000 
    201 H201       -2.9459  -26.8862  -45.3261 H         1 UNK         0.0600 
    202 H202       -1.2137  -25.7614  -43.9392 H         1 UNK         0.0600 
    203 H203       -0.1322  -25.6627  -45.3267 H         1 UNK         0.0600 
    204 H204       -0.5587  -27.2302  -44.6478 H         1 UNK         0.0600 
    205 H205       -1.6303  -25.3615  -48.1496 H         1 UNK         0.3000 
    206 H206       -0.8034  -27.8845  -49.4559 H         1 UNK         0.0600 
    207 H207        0.6464  -25.8211  -49.6325 H         1 UNK         0.0600 
    208 H208        0.1032  -26.4300  -51.1876 H         1 UNK         0.0600 
    209 H209       -0.6631  -25.0120  -50.4929 H         1 UNK         0.0600 
    210 H210       -3.5106  -27.6819  -48.7037 H         1 UNK         0.3000 
    211 H211       -5.5618  -28.1252  -49.3711 H         1 UNK         0.0600 
    212 H212       -4.3703  -28.7271  -52.1282 H         1 UNK         0.0600 
    213 H213       -5.9267  -29.2722  -51.5216 H         1 UNK         0.0600 
    214 H214       -4.4481  -29.8562  -50.7765 H         1 UNK         0.0600 
    215 H215       -5.2636  -25.5724  -49.0564 H         1 UNK         0.3000 
    216 H216       -6.2245  -23.5920  -49.3450 H         1 UNK         0.0600 
    217 H217       -8.4921  -23.5116  -50.2770 H         1 UNK         0.0600 
    218 H218       -8.2903  -24.9747  -49.3285 H         1 UNK         0.0600 
    219 H219       -8.2632  -25.0530  -51.0897 H         1 UNK         0.0600 
    220 H220       -3.9866  -23.7234  -50.8170 H         1 UNK         0.3000 
    221 H221       -4.4785  -22.6406  -53.5233 H         1 UNK         0.0600 
    222 H222       -1.8752  -23.2342  -52.0183 H         1 UNK         0.0600 
    223 H223       -2.6820  -24.3480  -53.1199 H         1 UNK         0.0600 
    224 H224       -2.0288  -22.8336  -53.7239 H         1 UNK         0.0600 
    225 H225       -4.7549  -21.2880  -50.5592 H         1 UNK         0.3000 
    226 H226       -3.0408  -19.0189  -50.5923 H         1 UNK         0.0600 
    227 H227       -4.1389  -19.8409  -48.5294 H         1 UNK         0.0600 
    228 H228       -4.5878  -18.1683  -48.8245 H         1 UNK         0.0600 
    229 H229       -5.7294  -19.4568  -49.1898 H         1 UNK         0.0600 
    230 H230       -3.1710  -17.1025  -51.5402 H         1 UNK         0.3000 
    231 H231       -3.5732  -15.4759  -52.9135 H         1 UNK         0.0600 
    232 H232       -5.6105  -14.9778  -51.5915 H         1 UNK         0.0600 
    233 H233       -6.5704  -16.0382  -52.6221 H         1 UNK         0.0600 
    234 H234       -5.8447  -14.5840  -53.2876 H         1 UNK         0.0600 
    235 H235       -5.6906  -18.1933  -53.8200 H         1 UNK         0.3000 
    236 H236       -5.3006  -17.7996  -56.7188 H         1 UNK         0.0600 
    237 H237       -6.8901  -19.7185  -56.8592 H         1 UNK         0.0600 
    238 H238       -6.8741  -19.8782  -55.1054 H         1 UNK         0.0600 
    239 H239       -7.5375  -18.4288  -55.8577 H         1 UNK         0.0600 
    240 H240       -2.8736  -17.9941  -56.1301 H         1 UNK         0.3000 
    241 H241       -1.7549  -20.5144  -55.4943 H         1 UNK         0.0600 
    242 H242       -3.0718  -19.6398  -58.6115 H         1 UNK         0.3800 
    243 H243       -2.2752  -20.9144  -59.4958 H         1 UNK         0.3800 
    244 H244        0.4339  -19.5142  -56.1544 H         1 UNK         0.0800 
    245 H245       -0.3896  -18.1776  -56.9059 H         1 UNK         0.0800 
    246 H246        1.2806  -19.5398  -53.8964 H         1 UNK         0.0800 
    247 H247       -0.2852  -20.0731  -53.3215 H         1 UNK         0.0800 
@<TRIPOS>BOND
     1    1    2 1    
     2    1  127 1    
     3    1  128 1    
     4    1  129 1    
     5    2    3 2    
     6    2    4 am   BACKBONE|DICT|INTERRES
     7    4    5 1    
     8    4  130 1    
     9    5    6 1    
    10    5   65 1    
    11    5  131 1    
    12    6    7 1    
    13    6  132 1    
    14    6  133 1    
    15    7    8 1    
    16    8    9 1    
    17    8  134 1    
    18    8  135 1    
    19    9   10 ar   
    20    9   14 ar   
    21   10   11 ar   
    22   10  136 1    
    23   11   12 ar   
    24   11  126 1    
    25   12   13 ar   
    26   12  137 1    
    27   13   14 ar   
    28   13   15 1    
    29   14  138 1    
    30   15   16 1    
    31   15  139 1    
    32   15  140 1    
    33   16   17 1    
    34   17   18 1    
    35   17  141 1    
    36   17  142 1    
    37   18   19 1    
    38   18   67 1    
    39   18  143 1    
    40   19   20 am   BACKBONE|DICT|INTERRES
    41   19  144 1    
    42   20   21 2    
    43   20   22 1    
    44   22   23 1    
    45   22   24 1    
    46   22  145 1    
    47   23  146 1    
    48   23  147 1    
    49   23  148 1    
    50   24   25 am   BACKBONE|DICT|INTERRES
    51   24  149 1    
    52   25   26 2    
    53   25   27 1    
    54   27   28 1    
    55   27   29 1    
    56   27  150 1    
    57   28  151 1    
    58   28  152 1    
    59   28  153 1    
    60   29   30 am   BACKBONE|DICT|INTERRES
    61   29  154 1    
    62   30   31 2    
    63   30   32 1    
    64   32   33 1    
    65   32   34 1    
    66   32  155 1    
    67   33  156 1    
    68   33  157 1    
    69   33  158 1    
    70   34   35 am   BACKBONE|DICT|INTERRES
    71   34  159 1    
    72   35   36 2    
    73   35   37 1    
    74   37   38 1    
    75   37   39 1    
    76   37  160 1    
    77   38  161 1    
    78   38  162 1    
    79   38  163 1    
    80   39   40 am   BACKBONE|DICT|INTERRES
    81   39  164 1    
    82   40   41 2    
    83   40   42 1    
    84   42   43 1    
    85   42   44 1    
    86   42  165 1    
    87   43  166 1    
    88   43  167 1    
    89   43  168 1    
    90   44   45 am   BACKBONE|DICT|INTERRES
    91   44  169 1    
    92   45   46 2    
    93   45   47 1    
    94   47   48 1    
    95   47   49 1    
    96   47  170 1    
    97   48  171 1    
    98   48  172 1    
    99   48  173 1    
   100   49   50 am   BACKBONE|DICT|INTERRES
   101   49  174 1    
   102   50   51 2    
   103   50   52 1    
   104   52   53 1    
   105   52   54 1    
   106   52  175 1    
   107   53  176 1    
   108   53  177 1    
   109   53  178 1    
   110   54   55 am   BACKBONE|DICT|INTERRES
   111   54  179 1    
   112   55   56 2    
   113   55   57 1    
   114   57   58 1    
   115   57   59 1    
   116   57  180 1    
   117   58  181 1    
   118   58  182 1    
   119   58  183 1    
   120   59   60 am   BACKBONE|DICT|INTERRES
   121   59  184 1    
   122   60   61 2    
   123   60   62 1    
   124   62   63 1    
   125   62   64 1    
   126   62  185 1    
   127   63  186 1    
   128   63  187 1    
   129   63  188 1    
   130   64   65 am   BACKBONE|DICT|INTERRES
   131   64  189 1    
   132   65   66 2    
   133   67   68 2    
   134   67   69 am   BACKBONE|DICT|INTERRES
   135   69   70 1    
   136   69  190 1    
   137   70   71 1    
   138   70   72 1    
   139   70  191 1    
   140   71  192 1    
   141   71  193 1    
   142   71  194 1    
   143   72   73 2    
   144   72   74 am   BACKBONE|DICT|INTERRES
   145   74   75 1    
   146   74  195 1    
   147   75   76 1    
   148   75   77 1    
   149   75  196 1    
   150   76  197 1    
   151   76  198 1    
   152   76  199 1    
   153   77   78 2    
   154   77   79 am   BACKBONE|DICT|INTERRES
   155   79   80 1    
   156   79  200 1    
   157   80   81 1    
   158   80   82 1    
   159   80  201 1    
   160   81  202 1    
   161   81  203 1    
   162   81  204 1    
   163   82   83 2    
   164   82   84 am   BACKBONE|DICT|INTERRES
   165   84   85 1    
   166   84  205 1    
   167   85   86 1    
   168   85   87 1    
   169   85  206 1    
   170   86  207 1    
   171   86  208 1    
   172   86  209 1    
   173   87   88 2    
   174   87   89 am   BACKBONE|DICT|INTERRES
   175   89   90 1    
   176   89  210 1    
   177   90   91 1    
   178   90   92 1    
   179   90  211 1    
   180   91  212 1    
   181   91  213 1    
   182   91  214 1    
   183   92   93 2    
   184   92   94 am   BACKBONE|DICT|INTERRES
   185   94   95 1    
   186   94  215 1    
   187   95   96 1    
   188   95   97 1    
   189   95  216 1    
   190   96  217 1    
   191   96  218 1    
   192   96  219 1    
   193   97   98 2    
   194   97   99 am   BACKBONE|DICT|INTERRES
   195   99  100 1    
   196   99  220 1    
   197  100  101 1    
   198  100  102 1    
   199  100  221 1    
   200  101  222 1    
   201  101  223 1    
   202  101  224 1    
   203  102  103 2    
   204  102  104 am   BACKBONE|DICT|INTERRES
   205  104  105 1    
   206  104  225 1    
   207  105  106 1    
   208  105  107 1    
   209  105  226 1    
   210  106  227 1    
   211  106  228 1    
   212  106  229 1    
   213  107  108 2    
   214  107  109 am   BACKBONE|DICT|INTERRES
   215  109  110 1    
   216  109  230 1    
   217  110  111 1    
   218  110  112 1    
   219  110  231 1    
   220  111  232 1    
   221  111  233 1    
   222  111  234 1    
   223  112  113 2    
   224  112  114 am   BACKBONE|DICT|INTERRES
   225  114  115 1    
   226  114  235 1    
   227  115  116 1    
   228  115  117 1    
   229  115  236 1    
   230  116  237 1    
   231  116  238 1    
   232  116  239 1    
   233  117  118 2    
   234  117  119 am   BACKBONE|DICT|INTERRES
   235  119  120 1    
   236  119  240 1    
   237  120  121 1    
   238  120  124 1    
   239  120  241 1    
   240  121  122 am   BACKBONE|DICT|INTERRES
   241  121  123 2    
   242  122  242 1    
   243  122  243 1    
   244  124  125 1    
   245  124  244 1    
   246  124  245 1    
   247  125  126 1    
   248  126  246 1    
   249  126  247 1    
@<TRIPOS>SUBSTRUCTURE
     1 UNK         1 GROUP             0       ****    0 ROOT    
