@<TRIPOS>MOLECULE
3R540
247   249    1
SMALL
USER_CHARGES


@<TRIPOS>ATOM
      1 CA         -3.3737  -15.0036  -48.8674 C.3       0 UNK        -0.1800 
      2 C          -2.2034  -14.7988  -47.9187 C.2       0 UNK         0.5000 
      3 O          -2.3464  -14.1031  -46.9138 O.2       0 UNK        -0.5000 
      4 N          -1.0501  -15.4103  -48.2216 N.am      1 UNK        -0.5000 
      5 CA          0.2107  -15.2564  -47.4823 C.3       1 UNK         0.1400 
      6 C6          1.3796  -16.0087  -48.1544 C.3       23 UNK        -0.0398 
      7 S7          1.7472  -15.3866  -49.8242 S.3       23 UNK        -0.2404 
      8 C8          3.2048  -16.3941  -50.2376 C.3       23 UNK        -0.0205 
      9 C9          2.8141  -17.7894  -50.7020 C.ar      23 UNK        -0.0193 
     10 C10         2.5140  -18.0119  -52.0468 C.ar      23 UNK        -0.1150 
     11 C11         2.1833  -19.2903  -52.5004 C.ar      23 UNK        -0.0193 
     12 C12         2.1394  -20.3515  -51.5902 C.ar      23 UNK        -0.1150 
     13 C13         2.4370  -20.1496  -50.2366 C.ar      23 UNK        -0.0193 
     14 C14         2.7811  -18.8610  -49.8046 C.ar      23 UNK        -0.1150 
     15 C15         2.4522  -21.3600  -49.2990 C.3       23 UNK        -0.0205 
     16 S16         2.2712  -20.9945  -47.5162 S.3       23 UNK        -0.2404 
     17 C17         0.4619  -20.8632  -47.3303 C.3       23 UNK        -0.0398 
     18 CA         -0.1669  -22.1986  -46.8621 C.3       11 UNK         0.1400 
     19 N           0.3809  -22.6813  -45.5891 N.am      11 UNK        -0.5000 
     20 C           0.2850  -23.9547  -45.1755 C.2       10 UNK         0.5000 
     21 O          -0.2692  -24.8370  -45.8283 O.2       10 UNK        -0.5000 
     22 CA          0.8421  -24.2969  -43.7794 C.3       10 UNK         0.1400 
     23 CB          2.3279  -24.6726  -43.8749 C.3       10 UNK        -0.1800 
     24 N           0.6846  -23.2150  -42.8088 N.am      10 UNK        -0.5000 
     25 C          -0.4678  -22.6091  -42.4907 C.2       9 UNK         0.5000 
     26 O          -1.5643  -22.9807  -42.9088 O.2       9 UNK        -0.5000 
     27 CA         -0.3800  -21.3420  -41.6145 C.3       9 UNK         0.1400 
     28 CB         -0.8759  -21.6397  -40.1921 C.3       9 UNK        -0.1800 
     29 N           0.9604  -20.7466  -41.5397 N.am      9 UNK        -0.5000 
     30 C           1.6752  -20.2830  -42.5753 C.2       8 UNK         0.5000 
     31 O           1.2781  -20.2975  -43.7443 O.2       8 UNK        -0.5000 
     32 CA          3.1058  -19.8224  -42.2366 C.3       8 UNK         0.1400 
     33 CB          4.0058  -21.0405  -41.9673 C.3       8 UNK        -0.1800 
     34 N           3.7109  -19.0365  -43.3084 N.am      8 UNK        -0.5000 
     35 C           3.3712  -17.7830  -43.6222 C.2       7 UNK         0.5000 
     36 O           2.5371  -17.1180  -43.0003 O.2       7 UNK        -0.5000 
     37 CA          4.1030  -17.1774  -44.8293 C.3       7 UNK         0.1400 
     38 CB          3.7436  -17.9108  -46.1313 C.3       7 UNK        -0.1800 
     39 N           3.7341  -15.7738  -44.9427 N.am      7 UNK        -0.5000 
     40 C           4.5455  -14.7664  -45.2828 C.2       6 UNK         0.5000 
     41 O           5.7074  -14.9191  -45.6609 O.2       6 UNK        -0.5000 
     42 CA          3.9644  -13.3442  -45.1674 C.3       6 UNK         0.1400 
     43 CB          3.5179  -12.8287  -46.5444 C.3       6 UNK        -0.1800 
     44 N           2.8209  -13.3045  -44.2575 N.am      6 UNK        -0.5000 
     45 C           2.8893  -13.2094  -42.9236 C.2       5 UNK         0.5000 
     46 O           3.9393  -13.0226  -42.3063 O.2       5 UNK        -0.5000 
     47 CA          1.5547  -13.3787  -42.1645 C.3       5 UNK         0.1400 
     48 CB          1.5545  -12.7102  -40.7741 C.3       5 UNK        -0.1800 
     49 N           0.3932  -12.9646  -42.9604 N.am      5 UNK        -0.5000 
     50 C           0.0941  -11.7320  -43.3993 C.2       4 UNK         0.5000 
     51 O           0.7335  -10.7214  -43.1059 O.2       4 UNK        -0.5000 
     52 CA         -1.1047  -11.6064  -44.3621 C.3       4 UNK         0.1400 
     53 CB         -0.6055  -11.3703  -45.7965 C.3       4 UNK        -0.1800 
     54 N          -1.9811  -12.7792  -44.3635 N.am      4 UNK        -0.5000 
     55 C          -2.8208  -13.1165  -43.3753 C.2       3 UNK         0.5000 
     56 O          -2.9888  -12.4442  -42.3576 O.2       3 UNK        -0.5000 
     57 CA         -3.5723  -14.4480  -43.5436 C.3       3 UNK         0.1400 
     58 CB         -4.8413  -14.2584  -44.3889 C.3       3 UNK        -0.1800 
     59 N          -2.7276  -15.4737  -44.1578 N.am      3 UNK        -0.5000 
     60 C          -1.7759  -16.1608  -43.5101 C.2       2 UNK         0.5000 
     61 O          -1.5230  -16.0172  -42.3144 O.2       2 UNK        -0.5000 
     62 CA         -0.9606  -17.1671  -44.3442 C.3       2 UNK         0.1400 
     63 CB         -1.6907  -18.5148  -44.4141 C.3       2 UNK        -0.1800 
     64 N          -0.6954  -16.6943  -45.7037 N.am      2 UNK        -0.5000 
     65 C           0.1126  -15.6679  -46.0001 C.2       1 UNK         0.5000 
     66 O           0.7510  -15.0349  -45.1600 O.2       1 UNK        -0.5000 
     67 C          -1.7078  -22.1154  -46.8350 C.2       11 UNK         0.5000 
     68 O          -2.3275  -22.2576  -47.8881 O.2       11 UNK        -0.5000 
     69 N          -2.3147  -21.9234  -45.6537 N.am      12 UNK        -0.5000 
     70 CA         -3.7659  -22.0125  -45.4719 C.3       12 UNK         0.1400 
     71 CB         -4.2068  -21.2447  -44.2165 C.3       12 UNK        -0.1800 
     72 C          -4.2294  -23.4765  -45.4137 C.2       12 UNK         0.5000 
     73 O          -5.2394  -23.8111  -46.0308 O.2       12 UNK        -0.5000 
     74 N          -3.4622  -24.3308  -44.7204 N.am      13 UNK        -0.5000 
     75 CA         -3.7046  -25.7733  -44.6115 C.3       13 UNK         0.1400 
     76 CB         -2.7218  -26.3835  -43.6017 C.3       13 UNK        -0.1800 
     77 C          -3.6208  -26.5031  -45.9673 C.2       13 UNK         0.5000 
     78 O          -4.4388  -27.3823  -46.2388 O.2       13 UNK        -0.5000 
     79 N          -2.6642  -26.0907  -46.8102 N.am      14 UNK        -0.5000 
     80 CA         -2.4978  -26.5473  -48.1926 C.3       14 UNK         0.1400 
     81 CB         -1.0672  -26.2148  -48.6478 C.3       14 UNK        -0.1800 
     82 C          -3.5204  -25.9349  -49.1738 C.2       14 UNK         0.5000 
     83 O          -3.5572  -26.3490  -50.3324 O.2       14 UNK        -0.5000 
     84 N          -4.2988  -24.9447  -48.7103 N.am      15 UNK        -0.5000 
     85 CA         -5.2906  -24.1464  -49.4400 C.3       15 UNK         0.1400 
     86 CB         -6.4140  -25.0294  -50.0200 C.3       15 UNK        -0.1800 
     87 C          -4.6896  -23.1937  -50.4943 C.2       15 UNK         0.5000 
     88 O          -5.4425  -22.5835  -51.2537 O.2       15 UNK        -0.5000 
     89 N          -3.3611  -23.0257  -50.4913 N.am      16 UNK        -0.5000 
     90 CA         -2.6190  -22.1270  -51.3742 C.3       16 UNK         0.1400 
     91 CB         -1.1156  -22.4158  -51.2478 C.3       16 UNK        -0.1800 
     92 C          -2.9131  -20.6418  -51.0983 C.2       16 UNK         0.5000 
     93 O          -2.9550  -19.8469  -52.0342 O.2       16 UNK        -0.5000 
     94 N          -3.1304  -20.3057  -49.8203 N.am      17 UNK        -0.5000 
     95 CA         -3.5456  -18.9761  -49.3747 C.3       17 UNK         0.1400 
     96 CB         -3.0122  -18.7432  -47.9514 C.3       17 UNK        -0.1800 
     97 C          -5.0757  -18.7861  -49.4185 C.2       17 UNK         0.5000 
     98 O          -5.5370  -17.6457  -49.3816 O.2       17 UNK        -0.5000 
     99 N          -5.8358  -19.8898  -49.4625 N.am      18 UNK        -0.5000 
    100 CA        -7.2992  -19.8831  -49.4889 C.3       18 UNK         0.1400 
    101 CB        -7.8319  -21.1888  -48.8763 C.3       18 UNK        -0.1800 
    102 C         -7.8391  -19.6808  -50.9150 C.2       18 UNK         0.5000 
    103 O         -8.7024  -18.8275  -51.1258 O.2       18 UNK        -0.5000 
    104 N         -7.3159  -20.4658  -51.8642 N.am      19 UNK        -0.5000 
    105 CA        -7.5968  -20.3603  -53.2948 C.3       19 UNK         0.1400 
    106 CB        -7.4756  -21.7676  -53.9076 C.3       19 UNK        -0.1800 
    107 C         -6.6325  -19.3644  -53.9712 C.2       19 UNK         0.5000 
    108 O         -5.8149  -18.7349  -53.2964 O.2       19 UNK        -0.5000 
    109 N         -6.7331  -19.2417  -55.3032 N.am      20 UNK        -0.5000 
    110 CA        -5.7584  -18.5235  -56.1295 C.3       20 UNK         0.1400 
    111 CB        -6.3218  -18.3151  -57.5453 C.3       20 UNK        -0.1800 
    112 C         -4.4143  -19.2759  -56.1509 C.2       20 UNK         0.5000 
    113 O         -3.4093  -18.7269  -55.7013 O.2       20 UNK        -0.5000 
    114 N         -4.4683  -20.5384  -56.6082 N.am      21 UNK        -0.5000 
    115 CA        -3.4701  -21.6171  -56.5492 C.3       21 UNK         0.1400 
    116 CB        -3.2847  -22.0797  -55.0941 C.3       21 UNK        -0.1800 
    117 C         -2.0964  -21.3478  -57.1975 C.2       21 UNK         0.5000 
    118 O         -1.6494  -22.1463  -58.0222 O.2       21 UNK        -0.5000 
    119 N         -1.4331  -20.2743  -56.7671 N.am      22 UNK        -0.5000 
    120 CA        -0.0634  -19.8822  -57.1137 C.3       22 UNK         0.1400 
    121 C          0.1150  -19.5501  -58.6215 C.2       22 UNK         0.5000 
    122 N          1.2417  -19.9202  -59.2152 N.am      22 UNK        -0.7600 
    123 O         -0.7364  -18.9206  -59.2463 O.2       22 UNK        -0.5000 
    124 C124        0.4114  -18.6939  -56.2387 C.3       23 UNK        -0.0398 
    125 S125        0.2381  -18.9844  -54.4396 S.3       23 UNK        -0.2404 
    126 C126        1.9164  -19.5139  -53.9816 C.3       23 UNK        -0.0205 
    127 H127       -4.2305  -15.4013  -48.3238 H         1 UNK         0.0600 
    128 H128       -3.1289  -15.6959  -49.6729 H         1 UNK         0.0600 
    129 H129       -3.6646  -14.0521  -49.3119 H         1 UNK         0.0600 
    130 H130       -0.9859  -15.9468  -49.0750 H         1 UNK         0.3000 
    131 H131        0.4484  -14.1911  -47.4923 H         1 UNK         0.0600 
    132 H132        2.2897  -15.8968  -47.5636 H         1 UNK         0.0800 
    133 H133        1.1670  -17.0776  -48.2104 H         1 UNK         0.0800 
    134 H134        3.7627  -15.8905  -51.0285 H         1 UNK         0.0800 
    135 H135        3.8802  -16.4470  -49.3823 H         1 UNK         0.0800 
    136 H136        2.5475  -17.1885  -52.7467 H         1 UNK         0.1150 
    137 H137        1.8974  -21.3444  -51.9426 H         1 UNK         0.1150 
    138 H138        3.0422  -18.6863  -48.7725 H         1 UNK         0.1150 
    139 H139        1.6806  -22.0729  -49.5928 H         1 UNK         0.0800 
    140 H140        3.4052  -21.8716  -49.4379 H         1 UNK         0.0800 
    141 H141        0.0317  -20.5380  -48.2797 H         1 UNK         0.0800 
    142 H142        0.2582  -20.0685  -46.6121 H         1 UNK         0.0800 
    143 H143        0.0774  -22.9436  -47.6227 H         1 UNK         0.0600 
    144 H144        0.8376  -21.9934  -44.9998 H         1 UNK         0.3000 
    145 H145        0.2925  -25.1603  -43.4017 H         1 UNK         0.0600 
    146 H146        2.7177  -24.9933  -42.9087 H         1 UNK         0.0600 
    147 H147        2.4777  -25.4964  -44.5743 H         1 UNK         0.0600 
    148 H148        2.9335  -23.8338  -44.2209 H         1 UNK         0.0600 
    149 H149        1.5336  -22.8392  -42.4158 H         1 UNK         0.3000 
    150 H150       -1.0457  -20.6012  -42.0596 H         1 UNK         0.0600 
    151 H151       -0.2324  -22.3592  -39.6842 H         1 UNK         0.0600 
    152 H152       -1.8845  -22.0554  -40.2080 H         1 UNK         0.0600 
    153 H153       -0.9107  -20.7330  -39.5879 H         1 UNK         0.0600 
    154 H154        1.3726  -20.7130  -40.6182 H         1 UNK         0.3000 
    155 H155        3.0652  -19.2066  -41.3355 H         1 UNK         0.0600 
    156 H156        4.0677  -21.6957  -42.8374 H         1 UNK         0.0600 
    157 H157        3.6320  -21.6360  -41.1336 H         1 UNK         0.0600 
    158 H158        5.0190  -20.7316  -41.7092 H         1 UNK         0.0600 
    159 H159        4.3760  -19.5211  -43.8924 H         1 UNK         0.3000 
    160 H160        5.1763  -17.2633  -44.6468 H         1 UNK         0.0600 
    161 H161        2.6643  -17.9569  -46.2807 H         1 UNK         0.0600 
    162 H162        4.1137  -18.9361  -46.1188 H         1 UNK         0.0600 
    163 H163        4.1898  -17.4209  -46.9965 H         1 UNK         0.0600 
    164 H164        2.8061  -15.5577  -44.5941 H         1 UNK         0.3000 
    165 H165        4.7504  -12.6869  -44.7901 H         1 UNK         0.0600 
    166 H166        3.1328  -11.8110  -46.4780 H         1 UNK         0.0600 
    167 H167        4.3527  -12.8160  -47.2462 H         1 UNK         0.0600 
    168 H168        2.7368  -13.4541  -46.9760 H         1 UNK         0.0600 
    169 H169        1.9205  -13.5471  -44.6575 H         1 UNK         0.3000 
    170 H170        1.4373  -14.4525  -42.0098 H         1 UNK         0.0600 
    171 H171        2.3177  -13.1496  -40.1309 H         1 UNK         0.0600 
    172 H172        1.7581  -11.6410  -40.8354 H         1 UNK         0.0600 
    173 H173        0.5950  -12.8423  -40.2740 H         1 UNK         0.0600 
    174 H174       -0.1825  -13.7224  -43.3014 H         1 UNK         0.3000 
    175 H175       -1.6896  -10.7381  -44.0520 H         1 UNK         0.0600 
    176 H176        0.0088  -10.4710  -45.8557 H         1 UNK         0.0600 
    177 H177       -0.0003  -12.2046  -46.1518 H         1 UNK         0.0600 
    178 H178       -1.4379  -11.2419  -46.4888 H         1 UNK         0.0600 
    179 H179       -1.9660  -13.3555  -45.2011 H         1 UNK         0.3000 
    180 H180       -3.8753  -14.7906  -42.5517 H         1 UNK         0.0600 
    181 H181       -4.6101  -13.9162  -45.3981 H         1 UNK         0.0600 
    182 H182       -5.5032  -13.5190  -43.9362 H         1 UNK         0.0600 
    183 H183       -5.4024  -15.1894  -44.4712 H         1 UNK         0.0600 
    184 H184       -2.8277  -15.5998  -45.1549 H         1 UNK         0.3000 
    185 H185       -0.0053  -17.3231  -43.8391 H         1 UNK         0.0600 
    186 H186       -1.9570  -18.8669  -43.4173 H         1 UNK         0.0600 
    187 H187       -2.6111  -18.4388  -44.9927 H         1 UNK         0.0600 
    188 H188       -1.0657  -19.2807  -44.8697 H         1 UNK         0.0600 
    189 H189       -1.1923  -17.1481  -46.4539 H         1 UNK         0.3000 
    190 H190       -1.7547  -21.8861  -44.8129 H         1 UNK         0.3000 
    191 H191       -4.2611  -21.5488  -46.3278 H         1 UNK         0.0600 
    192 H192       -4.0040  -20.1802  -44.3135 H         1 UNK         0.0600 
    193 H193       -5.2806  -21.3490  -44.0564 H         1 UNK         0.0600 
    194 H194       -3.7091  -21.6025  -43.3161 H         1 UNK         0.0600 
    195 H195       -2.6748  -23.9579  -44.1988 H         1 UNK         0.3000 
    196 H196       -4.7165  -25.9078  -44.2239 H         1 UNK         0.0600 
    197 H197       -2.9462  -27.4368  -43.4296 H         1 UNK         0.0600 
    198 H198       -2.7763  -25.8762  -42.6382 H         1 UNK         0.0600 
    199 H199       -1.6932  -26.3235  -43.9559 H         1 UNK         0.0600 
    200 H200       -1.9713  -25.4288  -46.4704 H         1 UNK         0.3000 
    201 H201       -2.6246  -27.6314  -48.2202 H         1 UNK         0.0600 
    202 H202       -0.8806  -26.5758  -49.6599 H         1 UNK         0.0600 
    203 H203       -0.3279  -26.6821  -47.9969 H         1 UNK         0.0600 
    204 H204       -0.8846  -25.1394  -48.6434 H         1 UNK         0.0600 
    205 H205       -4.2024  -24.6977  -47.7334 H         1 UNK         0.3000 
    206 H206       -5.7451  -23.4990  -48.6898 H         1 UNK         0.0600 
    207 H207       -6.8373  -25.6806  -49.2553 H         1 UNK         0.0600 
    208 H208       -7.2288  -24.4197  -50.4121 H         1 UNK         0.0600 
    209 H209       -6.0587  -25.6561  -50.8380 H         1 UNK         0.0600 
    210 H210       -2.8302  -23.4836  -49.7640 H         1 UNK         0.3000 
    211 H211       -2.9258  -22.3481  -52.3954 H         1 UNK         0.0600 
    212 H212       -0.7522  -22.2241  -50.2380 H         1 UNK         0.0600 
    213 H213       -0.5439  -21.7851  -51.9296 H         1 UNK         0.0600 
    214 H214       -0.8895  -23.4529  -51.4961 H         1 UNK         0.0600 
    215 H215       -3.0139  -21.0232  -49.1089 H         1 UNK         0.3000 
    216 H216       -3.1029  -18.2215  -50.0282 H         1 UNK         0.0600 
    217 H217       -3.2915  -17.7554  -47.5845 H         1 UNK         0.0600 
    218 H218       -1.9248  -18.8087  -47.9233 H         1 UNK         0.0600 
    219 H219       -3.4121  -19.4738  -47.2488 H         1 UNK         0.0600 
    220 H220       -5.3771  -20.7824  -49.5556 H         1 UNK         0.3000 
    221 H221       -7.6609  -19.0581  -48.8710 H         1 UNK         0.0600 
    222 H222       -7.5670  -22.0584  -49.4768 H         1 UNK         0.0600 
    223 H223       -7.4428  -21.3426  -47.8695 H         1 UNK         0.0600 
    224 H224       -8.9199  -21.1651  -48.8043 H         1 UNK         0.0600 
    225 H225       -6.5913  -21.1316  -51.6090 H         1 UNK         0.3000 
    226 H226       -8.6168  -20.0010  -53.4454 H         1 UNK         0.0600 
    227 H227       -7.7631  -21.7762  -54.9591 H         1 UNK         0.0600 
    228 H228       -6.4557  -22.1467  -53.8402 H         1 UNK         0.0600 
    229 H229       -8.1253  -22.4761  -53.3934 H         1 UNK         0.0600 
    230 H230       -7.4436  -19.7663  -55.7919 H         1 UNK         0.3000 
    231 H231       -5.5867  -17.5389  -55.6888 H         1 UNK         0.0600 
    232 H232       -6.5763  -19.2577  -58.0308 H         1 UNK         0.0600 
    233 H233       -5.5974  -17.8033  -58.1803 H         1 UNK         0.0600 
    234 H234       -7.2217  -17.7002  -57.5211 H         1 UNK         0.0600 
    235 H235       -5.3579  -20.8344  -56.9826 H         1 UNK         0.3000 
    236 H236       -3.9098  -22.4509  -57.0989 H         1 UNK         0.0600 
    237 H237       -4.2263  -22.4160  -54.6615 H         1 UNK         0.0600 
    238 H238       -2.5819  -22.9114  -55.0301 H         1 UNK         0.0600 
    239 H239       -2.8976  -21.2736  -54.4700 H         1 UNK         0.0600 
    240 H240       -1.9325  -19.6447  -56.1420 H         1 UNK         0.3000 
    241 H241        0.5716  -20.7399  -56.8838 H         1 UNK         0.0600 
    242 H242        1.9584  -20.4311  -58.7227 H         1 UNK         0.3800 
    243 H243        1.3773  -19.6971  -60.1894 H         1 UNK         0.3800 
    244 H244        1.4479  -18.4414  -56.4675 H         1 UNK         0.0800 
    245 H245       -0.1703  -17.8018  -56.4785 H         1 UNK         0.0800 
    246 H246        2.6561  -18.9572  -54.5586 H         1 UNK         0.0800 
    247 H247        2.0465  -20.5645  -54.2451 H         1 UNK         0.0800 
@<TRIPOS>BOND
     1    1    2 1    
     2    1  127 1    
     3    1  128 1    
     4    1  129 1    
     5    2    3 2    
     6    2    4 am   BACKBONE|DICT|INTERRES
     7    4    5 1    
     8    4  130 1    
     9    5    6 1    
    10    5   65 1    
    11    5  131 1    
    12    6    7 1    
    13    6  132 1    
    14    6  133 1    
    15    7    8 1    
    16    8    9 1    
    17    8  134 1    
    18    8  135 1    
    19    9   10 ar   
    20    9   14 ar   
    21   10   11 ar   
    22   10  136 1    
    23   11   12 ar   
    24   11  126 1    
    25   12   13 ar   
    26   12  137 1    
    27   13   14 ar   
    28   13   15 1    
    29   14  138 1    
    30   15   16 1    
    31   15  139 1    
    32   15  140 1    
    33   16   17 1    
    34   17   18 1    
    35   17  141 1    
    36   17  142 1    
    37   18   19 1    
    38   18   67 1    
    39   18  143 1    
    40   19   20 am   BACKBONE|DICT|INTERRES
    41   19  144 1    
    42   20   21 2    
    43   20   22 1    
    44   22   23 1    
    45   22   24 1    
    46   22  145 1    
    47   23  146 1    
    48   23  147 1    
    49   23  148 1    
    50   24   25 am   BACKBONE|DICT|INTERRES
    51   24  149 1    
    52   25   26 2    
    53   25   27 1    
    54   27   28 1    
    55   27   29 1    
    56   27  150 1    
    57   28  151 1    
    58   28  152 1    
    59   28  153 1    
    60   29   30 am   BACKBONE|DICT|INTERRES
    61   29  154 1    
    62   30   31 2    
    63   30   32 1    
    64   32   33 1    
    65   32   34 1    
    66   32  155 1    
    67   33  156 1    
    68   33  157 1    
    69   33  158 1    
    70   34   35 am   BACKBONE|DICT|INTERRES
    71   34  159 1    
    72   35   36 2    
    73   35   37 1    
    74   37   38 1    
    75   37   39 1    
    76   37  160 1    
    77   38  161 1    
    78   38  162 1    
    79   38  163 1    
    80   39   40 am   BACKBONE|DICT|INTERRES
    81   39  164 1    
    82   40   41 2    
    83   40   42 1    
    84   42   43 1    
    85   42   44 1    
    86   42  165 1    
    87   43  166 1    
    88   43  167 1    
    89   43  168 1    
    90   44   45 am   BACKBONE|DICT|INTERRES
    91   44  169 1    
    92   45   46 2    
    93   45   47 1    
    94   47   48 1    
    95   47   49 1    
    96   47  170 1    
    97   48  171 1    
    98   48  172 1    
    99   48  173 1    
   100   49   50 am   BACKBONE|DICT|INTERRES
   101   49  174 1    
   102   50   51 2    
   103   50   52 1    
   104   52   53 1    
   105   52   54 1    
   106   52  175 1    
   107   53  176 1    
   108   53  177 1    
   109   53  178 1    
   110   54   55 am   BACKBONE|DICT|INTERRES
   111   54  179 1    
   112   55   56 2    
   113   55   57 1    
   114   57   58 1    
   115   57   59 1    
   116   57  180 1    
   117   58  181 1    
   118   58  182 1    
   119   58  183 1    
   120   59   60 am   BACKBONE|DICT|INTERRES
   121   59  184 1    
   122   60   61 2    
   123   60   62 1    
   124   62   63 1    
   125   62   64 1    
   126   62  185 1    
   127   63  186 1    
   128   63  187 1    
   129   63  188 1    
   130   64   65 am   BACKBONE|DICT|INTERRES
   131   64  189 1    
   132   65   66 2    
   133   67   68 2    
   134   67   69 am   BACKBONE|DICT|INTERRES
   135   69   70 1    
   136   69  190 1    
   137   70   71 1    
   138   70   72 1    
   139   70  191 1    
   140   71  192 1    
   141   71  193 1    
   142   71  194 1    
   143   72   73 2    
   144   72   74 am   BACKBONE|DICT|INTERRES
   145   74   75 1    
   146   74  195 1    
   147   75   76 1    
   148   75   77 1    
   149   75  196 1    
   150   76  197 1    
   151   76  198 1    
   152   76  199 1    
   153   77   78 2    
   154   77   79 am   BACKBONE|DICT|INTERRES
   155   79   80 1    
   156   79  200 1    
   157   80   81 1    
   158   80   82 1    
   159   80  201 1    
   160   81  202 1    
   161   81  203 1    
   162   81  204 1    
   163   82   83 2    
   164   82   84 am   BACKBONE|DICT|INTERRES
   165   84   85 1    
   166   84  205 1    
   167   85   86 1    
   168   85   87 1    
   169   85  206 1    
   170   86  207 1    
   171   86  208 1    
   172   86  209 1    
   173   87   88 2    
   174   87   89 am   BACKBONE|DICT|INTERRES
   175   89   90 1    
   176   89  210 1    
   177   90   91 1    
   178   90   92 1    
   179   90  211 1    
   180   91  212 1    
   181   91  213 1    
   182   91  214 1    
   183   92   93 2    
   184   92   94 am   BACKBONE|DICT|INTERRES
   185   94   95 1    
   186   94  215 1    
   187   95   96 1    
   188   95   97 1    
   189   95  216 1    
   190   96  217 1    
   191   96  218 1    
   192   96  219 1    
   193   97   98 2    
   194   97   99 am   BACKBONE|DICT|INTERRES
   195   99  100 1    
   196   99  220 1    
   197  100  101 1    
   198  100  102 1    
   199  100  221 1    
   200  101  222 1    
   201  101  223 1    
   202  101  224 1    
   203  102  103 2    
   204  102  104 am   BACKBONE|DICT|INTERRES
   205  104  105 1    
   206  104  225 1    
   207  105  106 1    
   208  105  107 1    
   209  105  226 1    
   210  106  227 1    
   211  106  228 1    
   212  106  229 1    
   213  107  108 2    
   214  107  109 am   BACKBONE|DICT|INTERRES
   215  109  110 1    
   216  109  230 1    
   217  110  111 1    
   218  110  112 1    
   219  110  231 1    
   220  111  232 1    
   221  111  233 1    
   222  111  234 1    
   223  112  113 2    
   224  112  114 am   BACKBONE|DICT|INTERRES
   225  114  115 1    
   226  114  235 1    
   227  115  116 1    
   228  115  117 1    
   229  115  236 1    
   230  116  237 1    
   231  116  238 1    
   232  116  239 1    
   233  117  118 2    
   234  117  119 am   BACKBONE|DICT|INTERRES
   235  119  120 1    
   236  119  240 1    
   237  120  121 1    
   238  120  124 1    
   239  120  241 1    
   240  121  122 am   BACKBONE|DICT|INTERRES
   241  121  123 2    
   242  122  242 1    
   243  122  243 1    
   244  124  125 1    
   245  124  244 1    
   246  124  245 1    
   247  125  126 1    
   248  126  246 1    
   249  126  247 1    
@<TRIPOS>SUBSTRUCTURE
     1 UNK         1 GROUP             0       ****    0 ROOT    
