@<TRIPOS>MOLECULE
3R540
247   249    1
SMALL
USER_CHARGES


@<TRIPOS>ATOM
      1 CA         -3.7595  -13.2114  -49.7468 C.3       0 UNK        -0.1800 
      2 C          -2.8194  -13.8031  -48.7076 C.2       0 UNK         0.5000 
      3 O          -2.6469  -13.2242  -47.6355 O.2       0 UNK        -0.5000 
      4 N          -2.2256  -14.9655  -49.0110 N.am      1 UNK        -0.5000 
      5 CA         -1.2395  -15.6804  -48.1840 C.3       1 UNK         0.1400 
      6 C6         -0.7179  -16.9575  -48.8855 C.3       23 UNK        -0.0398 
      7 S7          0.1023  -16.5649  -50.4650 S.3       23 UNK        -0.2404 
      8 C8          1.8530  -16.9338  -50.0985 C.3       23 UNK        -0.0205 
      9 C9          2.2672  -18.3704  -50.4111 C.ar      23 UNK        -0.0193 
     10 C10         1.8490  -18.9917  -51.5924 C.ar      23 UNK        -0.1150 
     11 C11         2.3107  -20.2638  -51.9382 C.ar      23 UNK        -0.0193 
     12 C12         3.2028  -20.9230  -51.0906 C.ar      23 UNK        -0.1150 
     13 C13         3.6296  -20.3209  -49.9031 C.ar      23 UNK        -0.0193 
     14 C14         3.1515  -19.0489  -49.5639 C.ar      23 UNK        -0.1150 
     15 C15         4.6576  -21.0259  -49.0280 C.3       23 UNK        -0.0205 
     16 S16         3.9924  -22.5235  -48.2352 S.3       23 UNK        -0.2404 
     17 C17         3.0370  -21.7874  -46.8727 C.3       23 UNK        -0.0398 
     18 CA          2.0038  -22.7655  -46.2622 C.3       11 UNK         0.1400 
     19 N           1.6320  -22.3635  -44.9050 N.am      11 UNK        -0.5000 
     20 C           0.9543  -23.1241  -44.0350 C.2       10 UNK         0.5000 
     21 O           0.6588  -24.3010  -44.2396 O.2       10 UNK        -0.5000 
     22 CA          0.4996  -22.4436  -42.7293 C.3       10 UNK         0.1400 
     23 CB          1.5920  -22.5424  -41.6543 C.3       10 UNK        -0.1800 
     24 N           0.1251  -21.0402  -42.9196 N.am      10 UNK        -0.5000 
     25 C          -0.9003  -20.6248  -43.6772 C.2       9 UNK         0.5000 
     26 O          -1.6746  -21.3864  -44.2543 O.2       9 UNK        -0.5000 
     27 CA         -1.0567  -19.1077  -43.8695 C.3       9 UNK         0.1400 
     28 CB         -1.7524  -18.4686  -42.6590 C.3       9 UNK        -0.1800 
     29 N           0.2198  -18.4412  -44.1153 N.am      9 UNK        -0.5000 
     30 C           0.9876  -18.6396  -45.1951 C.2       8 UNK         0.5000 
     31 O           0.6816  -19.3867  -46.1223 O.2       8 UNK        -0.5000 
     32 CA          2.3585  -17.9424  -45.2152 C.3       8 UNK         0.1400 
     33 CB          2.2483  -16.4948  -45.7144 C.3       8 UNK        -0.1800 
     34 N           3.0013  -17.9668  -43.9019 N.am      8 UNK        -0.5000 
     35 C           3.4543  -19.0781  -43.3047 C.2       7 UNK         0.5000 
     36 O           3.4226  -20.1937  -43.8232 O.2       7 UNK        -0.5000 
     37 CA          3.9913  -18.9182  -41.8711 C.3       7 UNK         0.1400 
     38 CB          5.4520  -18.4443  -41.8887 C.3       7 UNK        -0.1800 
     39 N           3.1872  -17.9873  -41.0773 N.am      7 UNK        -0.5000 
     40 C           1.9258  -18.2205  -40.6868 C.2       6 UNK         0.5000 
     41 O           1.3215  -19.2668  -40.9199 O.2       6 UNK        -0.5000 
     42 CA          1.2049  -17.0686  -39.9603 C.3       6 UNK         0.1400 
     43 CB          1.5286  -17.0872  -38.4591 C.3       6 UNK        -0.1800 
     44 N           1.5344  -15.7521  -40.5166 N.am      6 UNK        -0.5000 
     45 C           1.2296  -15.3688  -41.7628 C.2       5 UNK         0.5000 
     46 O           0.6193  -16.0790  -42.5636 O.2       5 UNK        -0.5000 
     47 CA          1.7458  -13.9976  -42.2113 C.3       5 UNK         0.1400 
     48 CB          3.2442  -14.0918  -42.5678 C.3       5 UNK        -0.1800 
     49 N           0.9679  -13.5638  -43.3688 N.am      5 UNK        -0.5000 
     50 C           1.0025  -12.3484  -43.9252 C.2       4 UNK         0.5000 
     51 O           1.6973  -11.4205  -43.5080 O.2       4 UNK        -0.5000 
     52 CA          0.1040  -12.1250  -45.1546 C.3       4 UNK         0.1400 
     53 CB          0.7494  -12.7300  -46.4113 C.3       4 UNK        -0.1800 
     54 N          -1.2524  -12.6548  -45.0056 N.am      4 UNK        -0.5000 
     55 C          -2.1587  -12.2253  -44.1153 C.2       3 UNK         0.5000 
     56 O          -1.9186  -11.3817  -43.2507 O.2       3 UNK        -0.5000 
     57 CA         -3.5834  -12.8018  -44.2166 C.3       3 UNK         0.1400 
     58 CB         -4.5156  -11.7912  -44.9041 C.3       3 UNK        -0.1800 
     59 N          -3.6261  -14.0565  -44.9687 N.am      3 UNK        -0.5000 
     60 C          -3.7612  -15.2710  -44.4193 C.2       2 UNK         0.5000 
     61 O          -3.8931  -15.4618  -43.2102 O.2       2 UNK        -0.5000 
     62 CA         -3.7599  -16.4859  -45.3715 C.3       2 UNK         0.1400 
     63 CB         -5.1969  -16.9389  -45.6697 C.3       2 UNK        -0.1800 
     64 N          -3.0648  -16.2588  -46.6398 N.am      2 UNK        -0.5000 
     65 C          -1.7540  -16.0078  -46.7663 C.2       1 UNK         0.5000 
     66 O          -0.9745  -15.9632  -45.8177 O.2       1 UNK        -0.5000 
     67 C           0.7555  -22.9211  -47.1585 C.2       11 UNK         0.5000 
     68 O           0.5984  -23.9474  -47.8223 O.2       11 UNK        -0.5000 
     69 N          -0.1239  -21.9094  -47.1325 N.am      12 UNK        -0.5000 
     70 CA         -1.3508  -21.8402  -47.9235 C.3       12 UNK         0.1400 
     71 CB         -1.9592  -20.4374  -47.8007 C.3       12 UNK        -0.1800 
     72 C          -2.3945  -22.9086  -47.5614 C.2       12 UNK         0.5000 
     73 O          -3.1334  -23.3423  -48.4438 O.2       12 UNK        -0.5000 
     74 N          -2.4236  -23.3441  -46.2936 N.am      13 UNK        -0.5000 
     75 CA         -3.3535  -24.3278  -45.7204 C.3       13 UNK         0.1400 
     76 CB         -2.9912  -24.5542  -44.2442 C.3       13 UNK        -0.1800 
     77 C          -3.4531  -25.6814  -46.4594 C.2       13 UNK         0.5000 
     78 O          -4.4247  -26.4080  -46.2490 O.2       13 UNK        -0.5000 
     79 N          -2.4794  -25.9849  -47.3287 N.am      14 UNK        -0.5000 
     80 CA         -2.4949  -27.1080  -48.2645 C.3       14 UNK         0.1400 
     81 CB         -1.1370  -27.1715  -48.9800 C.3       14 UNK        -0.1800 
     82 C          -3.6438  -27.0503  -49.2963 C.2       14 UNK         0.5000 
     83 O          -4.1036  -28.1095  -49.7259 O.2       14 UNK        -0.5000 
     84 N          -4.0917  -25.8415  -49.6723 N.am      15 UNK        -0.5000 
     85 CA         -5.2031  -25.6318  -50.6105 C.3       15 UNK         0.1400 
     86 CB         -4.6620  -25.5255  -52.0474 C.3       15 UNK        -0.1800 
     87 C          -6.1068  -24.4357  -50.2447 C.2       15 UNK         0.5000 
     88 O          -7.0928  -24.1972  -50.9441 O.2       15 UNK        -0.5000 
     89 N          -5.7811  -23.7138  -49.1628 N.am      16 UNK        -0.5000 
     90 CA         -6.4880  -22.5567  -48.6117 C.3       16 UNK         0.1400 
     91 CB         -7.8707  -22.9692  -48.0582 C.3       16 UNK        -0.1800 
     92 C          -6.5179  -21.3876  -49.6152 C.2       16 UNK         0.5000 
     93 O          -5.4533  -20.9371  -50.0401 O.2       16 UNK        -0.5000 
     94 N          -7.7159  -20.9215  -49.9934 N.am      17 UNK        -0.5000 
     95 CA         -7.9362  -19.8066  -50.9196 C.3       17 UNK         0.1400 
     96 CB         -9.4429  -19.5229  -51.0123 C.3       17 UNK        -0.1800 
     97 C          -7.3413  -20.0236  -52.3252 C.2       17 UNK         0.5000 
     98 O          -6.9816  -19.0489  -52.9844 O.2       17 UNK        -0.5000 
     99 N          -7.2095  -21.2886  -52.7479 N.am      18 UNK        -0.5000 
    100 CA        -6.5847  -21.6705  -54.0147 C.3       18 UNK         0.1400 
    101 CB        -6.9961  -23.1081  -54.3630 C.3       18 UNK        -0.1800 
    102 C         -5.0488  -21.5202  -54.0143 C.2       18 UNK         0.5000 
    103 O         -4.4560  -21.4851  -55.0926 O.2       18 UNK        -0.5000 
    104 N         -4.4280  -21.4245  -52.8288 N.am      19 UNK        -0.5000 
    105 CA        -2.9879  -21.2182  -52.6682 C.3       19 UNK         0.1400 
    106 CB        -2.4984  -21.9701  -51.4232 C.3       19 UNK        -0.1800 
    107 C         -2.6004  -19.7307  -52.5788 C.2       19 UNK         0.5000 
    108 O         -1.4069  -19.4404  -52.5009 O.2       19 UNK        -0.5000 
    109 N         -3.5773  -18.8098  -52.5937 N.am      20 UNK        -0.5000 
    110 CA        -3.3588  -17.3612  -52.5733 C.3       20 UNK         0.1400 
    111 CB        -4.7111  -16.6363  -52.5067 C.3       20 UNK        -0.1800 
    112 C         -2.5343  -16.9064  -53.7930 C.2       20 UNK         0.5000 
    113 O         -3.0032  -17.0282  -54.9275 O.2       20 UNK        -0.5000 
    114 N         -1.2877  -16.4843  -53.5320 N.am      21 UNK        -0.5000 
    115 CA        -0.2310  -16.1741  -54.5063 C.3       21 UNK         0.1400 
    116 CB        -0.5828  -14.8968  -55.2962 C.3       21 UNK        -0.1800 
    117 C          0.1289  -17.3644  -55.4282 C.2       21 UNK         0.5000 
    118 O          0.6474  -17.1574  -56.5267 O.2       21 UNK        -0.5000 
    119 N         -0.1732  -18.5856  -54.9666 N.am      22 UNK        -0.5000 
    120 CA        -0.0796  -19.8594  -55.6957 C.3       22 UNK         0.1400 
    121 C         -1.0394  -19.9734  -56.9203 C.2       22 UNK         0.5000 
    122 N         -2.0904  -19.1653  -57.0156 N.am      22 UNK        -0.7600 
    123 O         -0.8492  -20.8245  -57.7850 O.2       22 UNK        -0.5000 
    124 C124        1.3821  -20.2913  -56.0194 C.3       23 UNK        -0.0398 
    125 S125        2.6039  -20.0630  -54.6724 S.3       23 UNK        -0.2404 
    126 C126        1.8518  -20.9037  -53.2383 C.3       23 UNK        -0.0205 
    127 H127       -4.7650  -13.1242  -49.3352 H         1 UNK         0.0600 
    128 H128       -3.8104  -13.8259  -50.6458 H         1 UNK         0.0600 
    129 H129       -3.4200  -12.2162  -50.0336 H         1 UNK         0.0600 
    130 H130       -2.4023  -15.3770  -49.9145 H         1 UNK         0.3000 
    131 H131       -0.3923  -15.0046  -48.0550 H         1 UNK         0.0600 
    132 H132       -0.0259  -17.5075  -48.2444 H         1 UNK         0.0800 
    133 H133       -1.5453  -17.6350  -49.0997 H         1 UNK         0.0800 
    134 H134        2.0731  -16.6792  -49.0615 H         1 UNK         0.0800 
    135 H135        2.4703  -16.2726  -50.7076 H         1 UNK         0.0800 
    136 H136        1.1800  -18.4758  -52.2660 H         1 UNK         0.1150 
    137 H137        3.5780  -21.9008  -51.3587 H         1 UNK         0.1150 
    138 H138        3.4989  -18.5705  -48.6590 H         1 UNK         0.1150 
    139 H139        5.5088  -21.3101  -49.6485 H         1 UNK         0.0800 
    140 H140        5.0516  -20.3529  -48.2648 H         1 UNK         0.0800 
    141 H141        2.5612  -20.8662  -47.2112 H         1 UNK         0.0800 
    142 H142        3.7617  -21.4899  -46.1141 H         1 UNK         0.0800 
    143 H143        2.4744  -23.7478  -46.1797 H         1 UNK         0.0600 
    144 H144        1.8903  -21.4251  -44.6233 H         1 UNK         0.3000 
    145 H145       -0.3823  -22.9775  -42.3692 H         1 UNK         0.0600 
    146 H146        1.2493  -22.1297  -40.7054 H         1 UNK         0.0600 
    147 H147        2.4942  -22.0044  -41.9463 H         1 UNK         0.0600 
    148 H148        1.8717  -23.5814  -41.4756 H         1 UNK         0.0600 
    149 H149        0.6805  -20.3483  -42.4249 H         1 UNK         0.3000 
    150 H150       -1.6809  -18.9502  -44.7498 H         1 UNK         0.0600 
    151 H151       -1.8644  -17.3925  -42.7911 H         1 UNK         0.0600 
    152 H152       -1.1929  -18.6316  -41.7381 H         1 UNK         0.0600 
    153 H153       -2.7495  -18.8867  -42.5168 H         1 UNK         0.0600 
    154 H154        0.5005  -17.7346  -43.4407 H         1 UNK         0.3000 
    155 H155        2.9946  -18.4897  -45.9142 H         1 UNK         0.0600 
    156 H156        1.7605  -16.4540  -46.6880 H         1 UNK         0.0600 
    157 H157        3.2313  -16.0366  -45.8222 H         1 UNK         0.0600 
    158 H158        1.6628  -15.8775  -45.0342 H         1 UNK         0.0600 
    159 H159        3.0239  -17.0992  -43.3898 H         1 UNK         0.3000 
    160 H160        3.9552  -19.8979  -41.3898 H         1 UNK         0.0600 
    161 H161        5.5515  -17.4549  -42.3369 H         1 UNK         0.0600 
    162 H162        6.0770  -19.1295  -42.4631 H         1 UNK         0.0600 
    163 H163        5.8636  -18.3992  -40.8803 H         1 UNK         0.0600 
    164 H164        3.6116  -17.1039  -40.8373 H         1 UNK         0.3000 
    165 H165        0.1305  -17.2245  -40.0786 H         1 UNK         0.0600 
    166 H166        0.9589  -16.3274  -37.9236 H         1 UNK         0.0600 
    167 H167        1.2754  -18.0522  -38.0178 H         1 UNK         0.0600 
    168 H168        2.5879  -16.9080  -38.2713 H         1 UNK         0.0600 
    169 H169        2.0412  -15.1195  -39.9140 H         1 UNK         0.3000 
    170 H170        1.5987  -13.2853  -41.3972 H         1 UNK         0.0600 
    171 H171        3.6598  -13.1162  -42.8186 H         1 UNK         0.0600 
    172 H172        3.8279  -14.4762  -41.7306 H         1 UNK         0.0600 
    173 H173        3.4145  -14.7523  -43.4184 H         1 UNK         0.0600 
    174 H174        0.3518  -14.2749  -43.7471 H         1 UNK         0.3000 
    175 H175        0.0176  -11.0473  -45.3074 H         1 UNK         0.0600 
    176 H176        0.8510  -13.8121  -46.3287 H         1 UNK         0.0600 
    177 H177        0.1594  -12.5138  -47.3022 H         1 UNK         0.0600 
    178 H178        1.7467  -12.3195  -46.5743 H         1 UNK         0.0600 
    179 H179       -1.5533  -13.3191  -45.7055 H         1 UNK         0.3000 
    180 H180       -3.9459  -12.9532  -43.1978 H         1 UNK         0.0600 
    181 H181       -5.5399  -12.1624  -44.9407 H         1 UNK         0.0600 
    182 H182       -4.1984  -11.5813  -45.9265 H         1 UNK         0.0600 
    183 H183       -4.5330  -10.8435  -44.3642 H         1 UNK         0.0600 
    184 H184       -3.4952  -13.9771  -45.9715 H         1 UNK         0.3000 
    185 H185       -3.2529  -17.2991  -44.8541 H         1 UNK         0.0600 
    186 H186       -5.7550  -16.1744  -46.2118 H         1 UNK         0.0600 
    187 H187       -5.2077  -17.8513  -46.2664 H         1 UNK         0.0600 
    188 H188       -5.7398  -17.1496  -44.7473 H         1 UNK         0.0600 
    189 H189       -3.6371  -16.2427  -47.4711 H         1 UNK         0.3000 
    190 H190        0.1032  -21.0791  -46.5897 H         1 UNK         0.3000 
    191 H191       -1.0665  -21.9998  -48.9638 H         1 UNK         0.0600 
    192 H192       -2.8470  -20.3331  -48.4258 H         1 UNK         0.0600 
    193 H193       -1.2423  -19.6838  -48.1192 H         1 UNK         0.0600 
    194 H194       -2.2500  -20.2123  -46.7746 H         1 UNK         0.0600 
    195 H195       -1.8227  -22.8686  -45.6281 H         1 UNK         0.3000 
    196 H196       -4.3477  -23.8791  -45.7592 H         1 UNK         0.0600 
    197 H197       -3.0453  -23.6266  -43.6750 H         1 UNK         0.0600 
    198 H198       -1.9837  -24.9568  -44.1378 H         1 UNK         0.0600 
    199 H199       -3.6775  -25.2593  -43.7733 H         1 UNK         0.0600 
    200 H200       -1.7198  -25.3259  -47.4312 H         1 UNK         0.3000 
    201 H201       -2.6202  -28.0235  -47.6829 H         1 UNK         0.0600 
    202 H202       -0.3212  -27.2990  -48.2682 H         1 UNK         0.0600 
    203 H203       -0.9425  -26.2632  -49.5523 H         1 UNK         0.0600 
    204 H204       -1.0980  -28.0128  -49.6733 H         1 UNK         0.0600 
    205 H205       -3.6452  -25.0128  -49.2908 H         1 UNK         0.3000 
    206 H206       -5.8622  -26.5013  -50.5695 H         1 UNK         0.0600 
    207 H207       -4.1510  -24.5803  -52.2213 H         1 UNK         0.0600 
    208 H208       -3.9649  -26.3325  -52.2731 H         1 UNK         0.0600 
    209 H209       -5.4737  -25.5971  -52.7706 H         1 UNK         0.0600 
    210 H210       -4.8740  -23.8762  -48.7392 H         1 UNK         0.3000 
    211 H211       -5.8884  -22.2099  -47.7689 H         1 UNK         0.0600 
    212 H212       -8.5407  -23.3311  -48.8387 H         1 UNK         0.0600 
    213 H213       -8.3605  -22.1333  -47.5573 H         1 UNK         0.0600 
    214 H214       -7.7687  -23.7652  -47.3204 H         1 UNK         0.0600 
    215 H215       -8.5417  -21.3635  -49.6167 H         1 UNK         0.3000 
    216 H216       -7.4479  -18.9266  -50.4957 H         1 UNK         0.0600 
    217 H217       -9.6420  -18.6794  -51.6749 H         1 UNK         0.0600 
    218 H218       -9.8587  -19.2719  -50.0363 H         1 UNK         0.0600 
    219 H219       -9.9904  -20.3824  -51.4012 H         1 UNK         0.0600 
    220 H220       -7.5007  -22.0412  -52.1374 H         1 UNK         0.3000 
    221 H221       -6.9703  -21.0147  -54.7983 H         1 UNK         0.0600 
    222 H222       -6.6723  -23.8120  -53.5986 H         1 UNK         0.0600 
    223 H223       -8.0783  -23.1955  -54.4609 H         1 UNK         0.0600 
    224 H224       -6.5574  -23.4249  -55.3101 H         1 UNK         0.0600 
    225 H225       -4.9754  -21.4167  -51.9742 H         1 UNK         0.3000 
    226 H226       -2.4593  -21.6332  -53.5287 H         1 UNK         0.0600 
    227 H227       -2.7119  -23.0352  -51.4812 H         1 UNK         0.0600 
    228 H228       -1.4187  -21.8684  -51.3076 H         1 UNK         0.0600 
    229 H229       -2.9649  -21.5838  -50.5186 H         1 UNK         0.0600 
    230 H230       -4.5336  -19.1206  -52.6931 H         1 UNK         0.3000 
    231 H231       -2.8067  -17.1247  -51.6619 H         1 UNK         0.0600 
    232 H232       -4.5732  -15.5555  -52.4633 H         1 UNK         0.0600 
    233 H233       -5.2742  -16.9302  -51.6206 H         1 UNK         0.0600 
    234 H234       -5.3265  -16.8530  -53.3808 H         1 UNK         0.0600 
    235 H235       -0.9806  -16.4844  -52.5672 H         1 UNK         0.3000 
    236 H236        0.6668  -15.9662  -53.9225 H         1 UNK         0.0600 
    237 H237       -1.4353  -15.0522  -55.9578 H         1 UNK         0.0600 
    238 H238       -0.8243  -14.0726  -54.6251 H         1 UNK         0.0600 
    239 H239        0.2558  -14.5744  -55.9143 H         1 UNK         0.0600 
    240 H240       -0.5862  -18.6592  -54.0413 H         1 UNK         0.3000 
    241 H241       -0.4878  -20.6027  -55.0135 H         1 UNK         0.0600 
    242 H242       -2.7127  -19.2581  -57.8023 H         1 UNK         0.3800 
    243 H243       -2.2802  -18.4646  -56.3086 H         1 UNK         0.3800 
    244 H244        1.7476  -19.7299  -56.8806 H         1 UNK         0.0800 
    245 H245        1.4037  -21.3408  -56.3165 H         1 UNK         0.0800 
    246 H246        0.7662  -20.8532  -53.2651 H         1 UNK         0.0800 
    247 H247        2.1103  -21.9632  -53.2674 H         1 UNK         0.0800 
@<TRIPOS>BOND
     1    1    2 1    
     2    1  127 1    
     3    1  128 1    
     4    1  129 1    
     5    2    3 2    
     6    2    4 am   BACKBONE|DICT|INTERRES
     7    4    5 1    
     8    4  130 1    
     9    5    6 1    
    10    5   65 1    
    11    5  131 1    
    12    6    7 1    
    13    6  132 1    
    14    6  133 1    
    15    7    8 1    
    16    8    9 1    
    17    8  134 1    
    18    8  135 1    
    19    9   10 ar   
    20    9   14 ar   
    21   10   11 ar   
    22   10  136 1    
    23   11   12 ar   
    24   11  126 1    
    25   12   13 ar   
    26   12  137 1    
    27   13   14 ar   
    28   13   15 1    
    29   14  138 1    
    30   15   16 1    
    31   15  139 1    
    32   15  140 1    
    33   16   17 1    
    34   17   18 1    
    35   17  141 1    
    36   17  142 1    
    37   18   19 1    
    38   18   67 1    
    39   18  143 1    
    40   19   20 am   BACKBONE|DICT|INTERRES
    41   19  144 1    
    42   20   21 2    
    43   20   22 1    
    44   22   23 1    
    45   22   24 1    
    46   22  145 1    
    47   23  146 1    
    48   23  147 1    
    49   23  148 1    
    50   24   25 am   BACKBONE|DICT|INTERRES
    51   24  149 1    
    52   25   26 2    
    53   25   27 1    
    54   27   28 1    
    55   27   29 1    
    56   27  150 1    
    57   28  151 1    
    58   28  152 1    
    59   28  153 1    
    60   29   30 am   BACKBONE|DICT|INTERRES
    61   29  154 1    
    62   30   31 2    
    63   30   32 1    
    64   32   33 1    
    65   32   34 1    
    66   32  155 1    
    67   33  156 1    
    68   33  157 1    
    69   33  158 1    
    70   34   35 am   BACKBONE|DICT|INTERRES
    71   34  159 1    
    72   35   36 2    
    73   35   37 1    
    74   37   38 1    
    75   37   39 1    
    76   37  160 1    
    77   38  161 1    
    78   38  162 1    
    79   38  163 1    
    80   39   40 am   BACKBONE|DICT|INTERRES
    81   39  164 1    
    82   40   41 2    
    83   40   42 1    
    84   42   43 1    
    85   42   44 1    
    86   42  165 1    
    87   43  166 1    
    88   43  167 1    
    89   43  168 1    
    90   44   45 am   BACKBONE|DICT|INTERRES
    91   44  169 1    
    92   45   46 2    
    93   45   47 1    
    94   47   48 1    
    95   47   49 1    
    96   47  170 1    
    97   48  171 1    
    98   48  172 1    
    99   48  173 1    
   100   49   50 am   BACKBONE|DICT|INTERRES
   101   49  174 1    
   102   50   51 2    
   103   50   52 1    
   104   52   53 1    
   105   52   54 1    
   106   52  175 1    
   107   53  176 1    
   108   53  177 1    
   109   53  178 1    
   110   54   55 am   BACKBONE|DICT|INTERRES
   111   54  179 1    
   112   55   56 2    
   113   55   57 1    
   114   57   58 1    
   115   57   59 1    
   116   57  180 1    
   117   58  181 1    
   118   58  182 1    
   119   58  183 1    
   120   59   60 am   BACKBONE|DICT|INTERRES
   121   59  184 1    
   122   60   61 2    
   123   60   62 1    
   124   62   63 1    
   125   62   64 1    
   126   62  185 1    
   127   63  186 1    
   128   63  187 1    
   129   63  188 1    
   130   64   65 am   BACKBONE|DICT|INTERRES
   131   64  189 1    
   132   65   66 2    
   133   67   68 2    
   134   67   69 am   BACKBONE|DICT|INTERRES
   135   69   70 1    
   136   69  190 1    
   137   70   71 1    
   138   70   72 1    
   139   70  191 1    
   140   71  192 1    
   141   71  193 1    
   142   71  194 1    
   143   72   73 2    
   144   72   74 am   BACKBONE|DICT|INTERRES
   145   74   75 1    
   146   74  195 1    
   147   75   76 1    
   148   75   77 1    
   149   75  196 1    
   150   76  197 1    
   151   76  198 1    
   152   76  199 1    
   153   77   78 2    
   154   77   79 am   BACKBONE|DICT|INTERRES
   155   79   80 1    
   156   79  200 1    
   157   80   81 1    
   158   80   82 1    
   159   80  201 1    
   160   81  202 1    
   161   81  203 1    
   162   81  204 1    
   163   82   83 2    
   164   82   84 am   BACKBONE|DICT|INTERRES
   165   84   85 1    
   166   84  205 1    
   167   85   86 1    
   168   85   87 1    
   169   85  206 1    
   170   86  207 1    
   171   86  208 1    
   172   86  209 1    
   173   87   88 2    
   174   87   89 am   BACKBONE|DICT|INTERRES
   175   89   90 1    
   176   89  210 1    
   177   90   91 1    
   178   90   92 1    
   179   90  211 1    
   180   91  212 1    
   181   91  213 1    
   182   91  214 1    
   183   92   93 2    
   184   92   94 am   BACKBONE|DICT|INTERRES
   185   94   95 1    
   186   94  215 1    
   187   95   96 1    
   188   95   97 1    
   189   95  216 1    
   190   96  217 1    
   191   96  218 1    
   192   96  219 1    
   193   97   98 2    
   194   97   99 am   BACKBONE|DICT|INTERRES
   195   99  100 1    
   196   99  220 1    
   197  100  101 1    
   198  100  102 1    
   199  100  221 1    
   200  101  222 1    
   201  101  223 1    
   202  101  224 1    
   203  102  103 2    
   204  102  104 am   BACKBONE|DICT|INTERRES
   205  104  105 1    
   206  104  225 1    
   207  105  106 1    
   208  105  107 1    
   209  105  226 1    
   210  106  227 1    
   211  106  228 1    
   212  106  229 1    
   213  107  108 2    
   214  107  109 am   BACKBONE|DICT|INTERRES
   215  109  110 1    
   216  109  230 1    
   217  110  111 1    
   218  110  112 1    
   219  110  231 1    
   220  111  232 1    
   221  111  233 1    
   222  111  234 1    
   223  112  113 2    
   224  112  114 am   BACKBONE|DICT|INTERRES
   225  114  115 1    
   226  114  235 1    
   227  115  116 1    
   228  115  117 1    
   229  115  236 1    
   230  116  237 1    
   231  116  238 1    
   232  116  239 1    
   233  117  118 2    
   234  117  119 am   BACKBONE|DICT|INTERRES
   235  119  120 1    
   236  119  240 1    
   237  120  121 1    
   238  120  124 1    
   239  120  241 1    
   240  121  122 am   BACKBONE|DICT|INTERRES
   241  121  123 2    
   242  122  242 1    
   243  122  243 1    
   244  124  125 1    
   245  124  244 1    
   246  124  245 1    
   247  125  126 1    
   248  126  246 1    
   249  126  247 1    
@<TRIPOS>SUBSTRUCTURE
     1 UNK         1 GROUP             0       ****    0 ROOT    
