@<TRIPOS>MOLECULE
3R540
247   249    1
SMALL
USER_CHARGES


@<TRIPOS>ATOM
      1 CA         -3.1038  -18.7617  -48.6690 C.3       0 UNK        -0.1800 
      2 C          -2.9830  -17.5041  -47.8179 C.2       0 UNK         0.5000 
      3 O          -1.8887  -17.1496  -47.3850 O.2       0 UNK        -0.5000 
      4 N          -4.1112  -16.8340  -47.5645 N.am      1 UNK        -0.5000 
      5 CA         -4.2518  -15.7334  -46.6039 C.3       1 UNK         0.1400 
      6 C6         -5.7349  -15.3442  -46.3837 C.3       23 UNK        -0.0398 
      7 S7         -6.7810  -16.7628  -45.9009 S.3       23 UNK        -0.2404 
      8 C8         -7.5686  -17.1907  -47.4941 C.3       23 UNK        -0.0205 
      9 C9         -7.5046  -18.6705  -47.8729 C.ar      23 UNK        -0.0193 
     10 C10        -8.4719  -19.1731  -48.7490 C.ar      23 UNK        -0.1150 
     11 C11        -8.4474  -20.5093  -49.1551 C.ar      23 UNK        -0.0193 
     12 C12        -7.4515  -21.3567  -48.6662 C.ar      23 UNK        -0.1150 
     13 C13        -6.4655  -20.8711  -47.8053 C.ar      23 UNK        -0.0193 
     14 C14        -6.4937  -19.5283  -47.4149 C.ar      23 UNK        -0.1150 
     15 C15        -5.3514  -21.7947  -47.3382 C.3       23 UNK        -0.0205 
     16 S16        -5.4260  -22.1305  -45.5518 S.3       23 UNK        -0.2404 
     17 C17        -3.9259  -21.2645  -44.9590 C.3       23 UNK        -0.0398 
     18 CA         -2.7231  -22.1959  -44.6523 C.3       11 UNK         0.1400 
     19 N          -3.0825  -23.1864  -43.6261 N.am      11 UNK        -0.5000 
     20 C          -2.3512  -23.7346  -42.6416 C.2       10 UNK         0.5000 
     21 O          -2.7986  -24.6806  -41.9966 O.2       10 UNK        -0.5000 
     22 CA         -0.9525  -23.1950  -42.2585 C.3       10 UNK         0.1400 
     23 CB          0.1376  -23.6128  -43.2574 C.3       10 UNK        -0.1800 
     24 N          -0.8977  -21.7554  -41.9939 N.am      10 UNK        -0.5000 
     25 C          -1.5639  -21.1401  -41.0035 C.2       9 UNK         0.5000 
     26 O          -2.3126  -21.7281  -40.2221 O.2       9 UNK        -0.5000 
     27 CA         -1.3469  -19.6247  -40.8152 C.3       9 UNK         0.1400 
     28 CB         -0.4843  -19.3626  -39.5711 C.3       9 UNK        -0.1800 
     29 N          -0.7361  -18.9655  -41.9708 N.am      9 UNK        -0.5000 
     30 C          -1.3907  -18.6814  -43.1050 C.2       8 UNK         0.5000 
     31 O          -2.5900  -18.8999  -43.2656 O.2       8 UNK        -0.5000 
     32 CA         -0.5829  -18.0672  -44.2617 C.3       8 UNK         0.1400 
     33 CB         -0.7641  -16.5434  -44.2873 C.3       8 UNK        -0.1800 
     34 N           0.8462  -18.3867  -44.2341 N.am      8 UNK        -0.5000 
     35 C           1.3612  -19.6147  -44.3904 C.2       7 UNK         0.5000 
     36 O           0.6743  -20.6288  -44.5092 O.2       7 UNK        -0.5000 
     37 CA          2.8933  -19.7328  -44.4019 C.3       7 UNK         0.1400 
     38 CB          3.4606  -19.3572  -45.7793 C.3       7 UNK        -0.1800 
     39 N           3.4910  -18.8681  -43.3872 N.am      7 UNK        -0.5000 
     40 C           3.9432  -19.2917  -42.1996 C.2       6 UNK         0.5000 
     41 O           3.9524  -20.4729  -41.8509 O.2       6 UNK        -0.5000 
     42 CA          4.4725  -18.2189  -41.2255 C.3       6 UNK         0.1400 
     43 CB          5.9947  -18.0696  -41.3696 C.3       6 UNK        -0.1800 
     44 N           3.8497  -16.9037  -41.3891 N.am      6 UNK        -0.5000 
     45 C           2.5492  -16.6427  -41.2012 C.2       5 UNK         0.5000 
     46 O           1.7213  -17.4901  -40.8711 O.2       5 UNK        -0.5000 
     47 CA          2.0836  -15.2013  -41.4769 C.3       5 UNK         0.1400 
     48 CB          2.2363  -14.3417  -40.2131 C.3       5 UNK        -0.1800 
     49 N           2.7512  -14.5302  -42.5997 N.am      5 UNK        -0.5000 
     50 C           2.8760  -15.0081  -43.8454 C.2       4 UNK         0.5000 
     51 O           2.5845  -16.1608  -44.1773 O.2       4 UNK        -0.5000 
     52 CA          3.4494  -14.0395  -44.8966 C.3       4 UNK         0.1400 
     53 CB          4.9741  -14.2000  -44.9903 C.3       4 UNK        -0.1800 
     54 N           2.8636  -14.2823  -46.2156 N.am      4 UNK        -0.5000 
     55 C           1.5675  -14.1187  -46.5145 C.2       3 UNK         0.5000 
     56 O           0.7568  -13.5868  -45.7513 O.2       3 UNK        -0.5000 
     57 CA          1.1183  -14.6777  -47.8811 C.3       3 UNK         0.1400 
     58 CB          1.3724  -16.1915  -47.9564 C.3       3 UNK        -0.1800 
     59 N          -0.2989  -14.4226  -48.1543 N.am      3 UNK        -0.5000 
     60 C          -0.7907  -13.2321  -48.5267 C.2       2 UNK         0.5000 
     61 O          -0.0781  -12.2562  -48.7702 O.2       2 UNK        -0.5000 
     62 CA         -2.3205  -13.0846  -48.6657 C.3       2 UNK         0.1400 
     63 CB         -2.7140  -12.7545  -50.1145 C.3       2 UNK        -0.1800 
     64 N          -3.0731  -14.2589  -48.2130 N.am      2 UNK        -0.5000 
     65 C          -3.4186  -14.4744  -46.9347 C.2       1 UNK         0.5000 
     66 O          -3.1195  -13.7091  -46.0173 O.2       1 UNK        -0.5000 
     67 C          -2.1754  -22.8662  -45.9370 C.2       11 UNK         0.5000 
     68 O          -1.8137  -22.1660  -46.8841 O.2       11 UNK        -0.5000 
     69 N          -2.1172  -24.2081  -45.9498 N.am      12 UNK        -0.5000 
     70 CA         -1.7218  -25.0552  -47.0791 C.3       12 UNK         0.1400 
     71 CB         -1.8194  -26.5279  -46.6554 C.3       12 UNK        -0.1800 
     72 C          -0.3231  -24.7563  -47.6516 C.2       12 UNK         0.5000 
     73 O          -0.1255  -24.8725  -48.8612 O.2       12 UNK        -0.5000 
     74 N           0.6078  -24.3461  -46.7784 N.am      13 UNK        -0.5000 
     75 CA          1.9706  -23.9428  -47.1308 C.3       13 UNK         0.1400 
     76 CB          2.7686  -23.6812  -45.8443 C.3       13 UNK        -0.1800 
     77 C           2.0172  -22.7089  -48.0509 C.2       13 UNK         0.5000 
     78 O           2.8806  -22.6385  -48.9254 O.2       13 UNK        -0.5000 
     79 N           1.0776  -21.7758  -47.8515 N.am      14 UNK        -0.5000 
     80 CA          0.8894  -20.6121  -48.7106 C.3       14 UNK         0.1400 
     81 CB          0.2559  -19.4795  -47.9021 C.3       14 UNK        -0.1800 
     82 C           0.0317  -20.9469  -49.9385 C.2       14 UNK         0.5000 
     83 O           0.3552  -20.4976  -51.0371 O.2       14 UNK        -0.5000 
     84 N          -1.0230  -21.7555  -49.7494 N.am      15 UNK        -0.5000 
     85 CA         -1.9461  -22.1826  -50.8093 C.3       15 UNK         0.1400 
     86 CB         -3.0630  -23.0438  -50.2092 C.3       15 UNK        -0.1800 
     87 C          -1.2617  -22.9388  -51.9647 C.2       15 UNK         0.5000 
     88 O          -1.7256  -22.8568  -53.1019 O.2       15 UNK        -0.5000 
     89 N          -0.1396  -23.6087  -51.6690 N.am      16 UNK        -0.5000 
     90 CA          0.7515  -24.2529  -52.6349 C.3       16 UNK         0.1400 
     91 CB          1.8787  -24.9592  -51.8666 C.3       16 UNK        -0.1800 
     92 C           1.3401  -23.2973  -53.6975 C.2       16 UNK         0.5000 
     93 O           1.6926  -23.7588  -54.7836 O.2       16 UNK        -0.5000 
     94 N           1.4215  -21.9932  -53.3899 N.am      17 UNK        -0.5000 
     95 CA          1.8523  -20.9477  -54.3218 C.3       17 UNK         0.1400 
     96 CB          2.4376  -19.7721  -53.5222 C.3       17 UNK        -0.1800 
     97 C           0.7168  -20.4547  -55.2429 C.2       17 UNK         0.5000 
     98 O           0.9953  -19.7034  -56.1787 O.2       17 UNK        -0.5000 
     99 N          -0.5331  -20.8549  -54.9585 N.am      18 UNK        -0.5000 
    100 CA        -1.7949  -20.5275  -55.6354 C.3       18 UNK         0.1400 
    101 CB        -1.7889  -20.9875  -57.1053 C.3       18 UNK        -0.1800 
    102 C         -2.2214  -19.0530  -55.5071 C.2       18 UNK         0.5000 
    103 O         -3.3371  -18.7771  -55.0647 O.2       18 UNK        -0.5000 
    104 N         -1.3216  -18.1308  -55.8693 N.am      19 UNK        -0.5000 
    105 CA        -1.5283  -16.6801  -55.9011 C.3       19 UNK         0.1400 
    106 CB        -0.2957  -16.0228  -56.5403 C.3       19 UNK        -0.1800 
    107 C         -1.8245  -16.0460  -54.5277 C.2       19 UNK         0.5000 
    108 O         -2.4097  -14.9639  -54.4753 O.2       19 UNK        -0.5000 
    109 N         -1.4297  -16.7296  -53.4454 N.am      20 UNK        -0.5000 
    110 CA        -1.6902  -16.3290  -52.0631 C.3       20 UNK         0.1400 
    111 CB        -0.7535  -17.1161  -51.1397 C.3       20 UNK        -0.1800 
    112 C         -3.1623  -16.4986  -51.6267 C.2       20 UNK         0.5000 
    113 O         -3.5462  -15.8851  -50.6311 O.2       20 UNK        -0.5000 
    114 N         -3.9250  -17.3129  -52.3737 N.am      21 UNK        -0.5000 
    115 CA        -5.3505  -17.6606  -52.2922 C.3       21 UNK         0.1400 
    116 CB        -6.1005  -17.1191  -51.0572 C.3       21 UNK        -0.1800 
    117 C         -5.4877  -19.1875  -52.3452 C.2       21 UNK         0.5000 
    118 O         -4.7955  -19.8861  -51.6016 O.2       21 UNK        -0.5000 
    119 N         -6.3822  -19.6671  -53.2187 N.am      22 UNK        -0.5000 
    120 CA        -6.8328  -21.0632  -53.4142 C.3       22 UNK         0.1400 
    121 C         -5.7483  -22.1078  -53.8179 C.2       22 UNK         0.5000 
    122 N         -4.4900  -21.9208  -53.4578 N.am      22 UNK        -0.7600 
    123 O         -6.0614  -23.0961  -54.4761 O.2       22 UNK        -0.5000 
    124 C124       -7.6620  -21.5957  -52.2161 C.3       23 UNK        -0.0398 
    125 S125       -9.1226  -20.5606  -51.8480 S.3       23 UNK        -0.2404 
    126 C126       -9.4922  -21.0343  -50.1282 C.3       23 UNK        -0.0205 
    127 H127       -4.1168  -18.9077  -49.0420 H         1 UNK         0.0600 
    128 H128       -2.8342  -19.6374  -48.0809 H         1 UNK         0.0600 
    129 H129       -2.4379  -18.7149  -49.5270 H         1 UNK         0.0600 
    130 H130       -4.9738  -17.1595  -47.9730 H         1 UNK         0.3000 
    131 H131       -3.8701  -16.1102  -45.6527 H         1 UNK         0.0600 
    132 H132       -5.8104  -14.6056  -45.5834 H         1 UNK         0.0800 
    133 H133       -6.1471  -14.8597  -47.2704 H         1 UNK         0.0800 
    134 H134       -8.6111  -16.8733  -47.4385 H         1 UNK         0.0800 
    135 H135       -7.1242  -16.6188  -48.3081 H         1 UNK         0.0800 
    136 H136       -9.2429  -18.5184  -49.1309 H         1 UNK         0.1150 
    137 H137       -7.4305  -22.3916  -48.9777 H         1 UNK         0.1150 
    138 H138       -5.7210  -19.1631  -46.7546 H         1 UNK         0.1150 
    139 H139       -5.4031  -22.7503  -47.8617 H         1 UNK         0.0800 
    140 H140       -4.3929  -21.3559  -47.6104 H         1 UNK         0.0800 
    141 H141       -4.2114  -20.7461  -44.0435 H         1 UNK         0.0800 
    142 H142       -3.6375  -20.4728  -45.6527 H         1 UNK         0.0800 
    143 H143       -1.9195  -21.5574  -44.2937 H         1 UNK         0.0600 
    144 H144       -4.0146  -23.5547  -43.7511 H         1 UNK         0.3000 
    145 H145       -0.6944  -23.6812  -41.3149 H         1 UNK         0.0600 
    146 H146        0.0474  -23.0907  -44.2057 H         1 UNK         0.0600 
    147 H147        1.1306  -23.3998  -42.8610 H         1 UNK         0.0600 
    148 H148        0.0936  -24.6834  -43.4612 H         1 UNK         0.0600 
    149 H149       -0.3155  -21.2016  -42.6101 H         1 UNK         0.3000 
    150 H150       -2.3282  -19.1780  -40.6412 H         1 UNK         0.0600 
    151 H151       -0.9149  -19.8324  -38.6859 H         1 UNK         0.0600 
    152 H152       -0.4083  -18.2953  -39.3630 H         1 UNK         0.0600 
    153 H153        0.5261  -19.7550  -39.6933 H         1 UNK         0.0600 
    154 H154        0.2378  -18.6988  -41.8813 H         1 UNK         0.3000 
    155 H155       -0.9925  -18.4733  -45.1885 H         1 UNK         0.0600 
    156 H156       -0.3310  -16.0705  -43.4075 H         1 UNK         0.0600 
    157 H157       -1.8198  -16.2734  -44.3205 H         1 UNK         0.0600 
    158 H158       -0.2962  -16.1072  -45.1681 H         1 UNK         0.0600 
    159 H159        1.4802  -17.5937  -44.1659 H         1 UNK         0.3000 
    160 H160        3.1488  -20.7768  -44.2105 H         1 UNK         0.0600 
    161 H161        3.1962  -18.3377  -46.0634 H         1 UNK         0.0600 
    162 H162        3.0835  -20.0274  -46.5518 H         1 UNK         0.0600 
    163 H163        4.5477  -19.4349  -45.7899 H         1 UNK         0.0600 
    164 H164        3.4689  -17.8715  -43.5742 H         1 UNK         0.3000 
    165 H165        4.2565  -18.5641  -40.2122 H         1 UNK         0.0600 
    166 H166        6.3964  -17.3808  -40.6262 H         1 UNK         0.0600 
    167 H167        6.4969  -19.0276  -41.2275 H         1 UNK         0.0600 
    168 H168        6.2702  -17.6977  -42.3573 H         1 UNK         0.0600 
    169 H169        4.4514  -16.1477  -41.6806 H         1 UNK         0.3000 
    170 H170        1.0211  -15.2492  -41.7186 H         1 UNK         0.0600 
    171 H171        1.7333  -14.8036  -39.3623 H         1 UNK         0.0600 
    172 H172        3.2842  -14.2076  -39.9419 H         1 UNK         0.0600 
    173 H173        1.7953  -13.3543  -40.3507 H         1 UNK         0.0600 
    174 H174        3.0476  -13.5811  -42.4233 H         1 UNK         0.3000 
    175 H175        3.2169  -13.0141  -44.6019 H         1 UNK         0.0600 
    176 H176        5.2549  -15.2114  -45.2878 H         1 UNK         0.0600 
    177 H177        5.4006  -13.5060  -45.7149 H         1 UNK         0.0600 
    178 H178        5.4492  -13.9971  -44.0297 H         1 UNK         0.0600 
    179 H179        3.4597  -14.7474  -46.8837 H         1 UNK         0.3000 
    180 H180        1.7176  -14.1914  -48.6536 H         1 UNK         0.0600 
    181 H181        0.8035  -16.7227  -47.1942 H         1 UNK         0.0600 
    182 H182        2.4241  -16.4362  -47.8072 H         1 UNK         0.0600 
    183 H183        1.0945  -16.5891  -48.9305 H         1 UNK         0.0600 
    184 H184       -0.9455  -15.1685  -47.9259 H         1 UNK         0.3000 
    185 H185       -2.6098  -12.2277  -48.0536 H         1 UNK         0.0600 
    186 H186       -2.2832  -11.8029  -50.4278 H         1 UNK         0.0600 
    187 H187       -2.3622  -13.5124  -50.8114 H         1 UNK         0.0600 
    188 H188       -3.7955  -12.6727  -50.2238 H         1 UNK         0.0600 
    189 H189       -3.3315  -14.9374  -48.9260 H         1 UNK         0.3000 
    190 H190       -2.4481  -24.6946  -45.1294 H         1 UNK         0.3000 
    191 H191       -2.4481  -24.8868  -47.8736 H         1 UNK         0.0600 
    192 H192       -2.8335  -26.7845  -46.3486 H         1 UNK         0.0600 
    193 H193       -1.5545  -27.1908  -47.4805 H         1 UNK         0.0600 
    194 H194       -1.1493  -26.7533  -45.8247 H         1 UNK         0.0600 
    195 H195        0.3538  -24.2845  -45.8051 H         1 UNK         0.3000 
    196 H196        2.4378  -24.7731  -47.6645 H         1 UNK         0.0600 
    197 H197        3.8000  -23.4097  -46.0729 H         1 UNK         0.0600 
    198 H198        2.7990  -24.5670  -45.2096 H         1 UNK         0.0600 
    199 H199        2.3374  -22.8658  -45.2633 H         1 UNK         0.0600 
    200 H200        0.3793  -21.9238  -47.1337 H         1 UNK         0.3000 
    201 H201        1.8586  -20.2607  -49.0713 H         1 UNK         0.0600 
    202 H202        0.9635  -19.0657  -47.1889 H         1 UNK         0.0600 
    203 H203       -0.6188  -19.8113  -47.3445 H         1 UNK         0.0600 
    204 H204       -0.0549  -18.6660  -48.5560 H         1 UNK         0.0600 
    205 H205       -1.2392  -22.0548  -48.8043 H         1 UNK         0.3000 
    206 H206       -2.3955  -21.2779  -51.2233 H         1 UNK         0.0600 
    207 H207       -3.4902  -22.5760  -49.3263 H         1 UNK         0.0600 
    208 H208       -3.8718  -23.1861  -50.9266 H         1 UNK         0.0600 
    209 H209       -2.6989  -24.0318  -49.9314 H         1 UNK         0.0600 
    210 H210        0.1254  -23.6782  -50.6937 H         1 UNK         0.3000 
    211 H211        0.1688  -25.0092  -53.1644 H         1 UNK         0.0600 
    212 H212        2.4763  -24.2504  -51.2919 H         1 UNK         0.0600 
    213 H213        2.5514  -25.4816  -52.5481 H         1 UNK         0.0600 
    214 H214        1.4798  -25.6997  -51.1728 H         1 UNK         0.0600 
    215 H215        1.0954  -21.6738  -52.4825 H         1 UNK         0.3000 
    216 H216        2.6436  -21.3447  -54.9609 H         1 UNK         0.0600 
    217 H217        1.6747  -19.2623  -52.9334 H         1 UNK         0.0600 
    218 H218        2.8809  -19.0310  -54.1885 H         1 UNK         0.0600 
    219 H219        3.2209  -20.1060  -52.8415 H         1 UNK         0.0600 
    220 H220       -0.6473  -21.4833  -54.1706 H         1 UNK         0.3000 
    221 H221       -2.5571  -21.1144  -55.1255 H         1 UNK         0.0600 
    222 H222       -1.0604  -20.4424  -57.7057 H         1 UNK         0.0600 
    223 H223       -1.5590  -22.0502  -57.1823 H         1 UNK         0.0600 
    224 H224       -2.7669  -20.8330  -57.5627 H         1 UNK         0.0600 
    225 H225       -0.4143  -18.4725  -56.1774 H         1 UNK         0.3000 
    226 H226       -2.3921  -16.4846  -56.5396 H         1 UNK         0.0600 
    227 H227       -0.1299  -16.3950  -57.5514 H         1 UNK         0.0600 
    228 H228       -0.4185  -14.9410  -56.6093 H         1 UNK         0.0600 
    229 H229        0.6074  -16.2156  -55.9597 H         1 UNK         0.0600 
    230 H230       -0.9483  -17.6054  -53.5847 H         1 UNK         0.3000 
    231 H231       -1.4406  -15.2714  -51.9673 H         1 UNK         0.0600 
    232 H232       -0.9159  -18.1893  -51.2316 H         1 UNK         0.0600 
    233 H233       -0.9180  -16.8414  -50.0977 H         1 UNK         0.0600 
    234 H234        0.2928  -16.9142  -51.3689 H         1 UNK         0.0600 
    235 H235       -3.4619  -17.7676  -53.1525 H         1 UNK         0.3000 
    236 H236       -5.8171  -17.2371  -53.1829 H         1 UNK         0.0600 
    237 H237       -6.1201  -16.0296  -51.0446 H         1 UNK         0.0600 
    238 H238       -7.1382  -17.4555  -51.0551 H         1 UNK         0.0600 
    239 H239       -5.6491  -17.4665  -50.1290 H         1 UNK         0.0600 
    240 H240       -6.8635  -18.9990  -53.8024 H         1 UNK         0.3000 
    241 H241       -7.5062  -21.0157  -54.2711 H         1 UNK         0.0600 
    242 H242       -3.7635  -22.5840  -53.6885 H         1 UNK         0.3800 
    243 H243       -4.2939  -21.1421  -52.8357 H         1 UNK         0.3800 
    244 H244       -8.0183  -22.6088  -52.4111 H         1 UNK         0.0800 
    245 H245       -7.0235  -21.6595  -51.3356 H         1 UNK         0.0800 
    246 H246       -9.5758  -22.1201  -50.0595 H         1 UNK         0.0800 
    247 H247      -10.4707  -20.6363  -49.8558 H         1 UNK         0.0800 
@<TRIPOS>BOND
     1    1    2 1    
     2    1  127 1    
     3    1  128 1    
     4    1  129 1    
     5    2    3 2    
     6    2    4 am   BACKBONE|DICT|INTERRES
     7    4    5 1    
     8    4  130 1    
     9    5    6 1    
    10    5   65 1    
    11    5  131 1    
    12    6    7 1    
    13    6  132 1    
    14    6  133 1    
    15    7    8 1    
    16    8    9 1    
    17    8  134 1    
    18    8  135 1    
    19    9   10 ar   
    20    9   14 ar   
    21   10   11 ar   
    22   10  136 1    
    23   11   12 ar   
    24   11  126 1    
    25   12   13 ar   
    26   12  137 1    
    27   13   14 ar   
    28   13   15 1    
    29   14  138 1    
    30   15   16 1    
    31   15  139 1    
    32   15  140 1    
    33   16   17 1    
    34   17   18 1    
    35   17  141 1    
    36   17  142 1    
    37   18   19 1    
    38   18   67 1    
    39   18  143 1    
    40   19   20 am   BACKBONE|DICT|INTERRES
    41   19  144 1    
    42   20   21 2    
    43   20   22 1    
    44   22   23 1    
    45   22   24 1    
    46   22  145 1    
    47   23  146 1    
    48   23  147 1    
    49   23  148 1    
    50   24   25 am   BACKBONE|DICT|INTERRES
    51   24  149 1    
    52   25   26 2    
    53   25   27 1    
    54   27   28 1    
    55   27   29 1    
    56   27  150 1    
    57   28  151 1    
    58   28  152 1    
    59   28  153 1    
    60   29   30 am   BACKBONE|DICT|INTERRES
    61   29  154 1    
    62   30   31 2    
    63   30   32 1    
    64   32   33 1    
    65   32   34 1    
    66   32  155 1    
    67   33  156 1    
    68   33  157 1    
    69   33  158 1    
    70   34   35 am   BACKBONE|DICT|INTERRES
    71   34  159 1    
    72   35   36 2    
    73   35   37 1    
    74   37   38 1    
    75   37   39 1    
    76   37  160 1    
    77   38  161 1    
    78   38  162 1    
    79   38  163 1    
    80   39   40 am   BACKBONE|DICT|INTERRES
    81   39  164 1    
    82   40   41 2    
    83   40   42 1    
    84   42   43 1    
    85   42   44 1    
    86   42  165 1    
    87   43  166 1    
    88   43  167 1    
    89   43  168 1    
    90   44   45 am   BACKBONE|DICT|INTERRES
    91   44  169 1    
    92   45   46 2    
    93   45   47 1    
    94   47   48 1    
    95   47   49 1    
    96   47  170 1    
    97   48  171 1    
    98   48  172 1    
    99   48  173 1    
   100   49   50 am   BACKBONE|DICT|INTERRES
   101   49  174 1    
   102   50   51 2    
   103   50   52 1    
   104   52   53 1    
   105   52   54 1    
   106   52  175 1    
   107   53  176 1    
   108   53  177 1    
   109   53  178 1    
   110   54   55 am   BACKBONE|DICT|INTERRES
   111   54  179 1    
   112   55   56 2    
   113   55   57 1    
   114   57   58 1    
   115   57   59 1    
   116   57  180 1    
   117   58  181 1    
   118   58  182 1    
   119   58  183 1    
   120   59   60 am   BACKBONE|DICT|INTERRES
   121   59  184 1    
   122   60   61 2    
   123   60   62 1    
   124   62   63 1    
   125   62   64 1    
   126   62  185 1    
   127   63  186 1    
   128   63  187 1    
   129   63  188 1    
   130   64   65 am   BACKBONE|DICT|INTERRES
   131   64  189 1    
   132   65   66 2    
   133   67   68 2    
   134   67   69 am   BACKBONE|DICT|INTERRES
   135   69   70 1    
   136   69  190 1    
   137   70   71 1    
   138   70   72 1    
   139   70  191 1    
   140   71  192 1    
   141   71  193 1    
   142   71  194 1    
   143   72   73 2    
   144   72   74 am   BACKBONE|DICT|INTERRES
   145   74   75 1    
   146   74  195 1    
   147   75   76 1    
   148   75   77 1    
   149   75  196 1    
   150   76  197 1    
   151   76  198 1    
   152   76  199 1    
   153   77   78 2    
   154   77   79 am   BACKBONE|DICT|INTERRES
   155   79   80 1    
   156   79  200 1    
   157   80   81 1    
   158   80   82 1    
   159   80  201 1    
   160   81  202 1    
   161   81  203 1    
   162   81  204 1    
   163   82   83 2    
   164   82   84 am   BACKBONE|DICT|INTERRES
   165   84   85 1    
   166   84  205 1    
   167   85   86 1    
   168   85   87 1    
   169   85  206 1    
   170   86  207 1    
   171   86  208 1    
   172   86  209 1    
   173   87   88 2    
   174   87   89 am   BACKBONE|DICT|INTERRES
   175   89   90 1    
   176   89  210 1    
   177   90   91 1    
   178   90   92 1    
   179   90  211 1    
   180   91  212 1    
   181   91  213 1    
   182   91  214 1    
   183   92   93 2    
   184   92   94 am   BACKBONE|DICT|INTERRES
   185   94   95 1    
   186   94  215 1    
   187   95   96 1    
   188   95   97 1    
   189   95  216 1    
   190   96  217 1    
   191   96  218 1    
   192   96  219 1    
   193   97   98 2    
   194   97   99 am   BACKBONE|DICT|INTERRES
   195   99  100 1    
   196   99  220 1    
   197  100  101 1    
   198  100  102 1    
   199  100  221 1    
   200  101  222 1    
   201  101  223 1    
   202  101  224 1    
   203  102  103 2    
   204  102  104 am   BACKBONE|DICT|INTERRES
   205  104  105 1    
   206  104  225 1    
   207  105  106 1    
   208  105  107 1    
   209  105  226 1    
   210  106  227 1    
   211  106  228 1    
   212  106  229 1    
   213  107  108 2    
   214  107  109 am   BACKBONE|DICT|INTERRES
   215  109  110 1    
   216  109  230 1    
   217  110  111 1    
   218  110  112 1    
   219  110  231 1    
   220  111  232 1    
   221  111  233 1    
   222  111  234 1    
   223  112  113 2    
   224  112  114 am   BACKBONE|DICT|INTERRES
   225  114  115 1    
   226  114  235 1    
   227  115  116 1    
   228  115  117 1    
   229  115  236 1    
   230  116  237 1    
   231  116  238 1    
   232  116  239 1    
   233  117  118 2    
   234  117  119 am   BACKBONE|DICT|INTERRES
   235  119  120 1    
   236  119  240 1    
   237  120  121 1    
   238  120  124 1    
   239  120  241 1    
   240  121  122 am   BACKBONE|DICT|INTERRES
   241  121  123 2    
   242  122  242 1    
   243  122  243 1    
   244  124  125 1    
   245  124  244 1    
   246  124  245 1    
   247  125  126 1    
   248  126  246 1    
   249  126  247 1    
@<TRIPOS>SUBSTRUCTURE
     1 UNK         1 GROUP             0       ****    0 ROOT    
