@<TRIPOS>MOLECULE
3R540
247   249    1
SMALL
USER_CHARGES


@<TRIPOS>ATOM
      1 CA          5.9883  -13.8122  -48.3479 C.3       0 UNK        -0.1800 
      2 C           4.7430  -13.8161  -49.2242 C.2       0 UNK         0.5000 
      3 O           4.4293  -12.7950  -49.8358 O.2       0 UNK        -0.5000 
      4 N           4.0537  -14.9643  -49.2911 N.am      1 UNK        -0.5000 
      5 CA          2.8164  -15.2129  -50.0442 C.3       1 UNK         0.1400 
      6 C6          2.9577  -14.8615  -51.5550 C.3       23 UNK        -0.0398 
      7 S7          1.7748  -15.6495  -52.7037 S.3       23 UNK        -0.2404 
      8 C8          2.1231  -17.4330  -52.5489 C.3       23 UNK        -0.0205 
      9 C9          1.2189  -18.0940  -51.5174 C.ar      23 UNK        -0.0193 
     10 C10        -0.1674  -18.0769  -51.6927 C.ar      23 UNK        -0.1150 
     11 C11        -1.0153  -18.6412  -50.7378 C.ar      23 UNK        -0.0193 
     12 C12        -0.4619  -19.2341  -49.5998 C.ar      23 UNK        -0.1150 
     13 C13         0.9254  -19.2810  -49.4190 C.ar      23 UNK        -0.0193 
     14 C14         1.7591  -18.7180  -50.3894 C.ar      23 UNK        -0.1150 
     15 C15         1.5317  -19.8863  -48.1585 C.3       23 UNK        -0.0205 
     16 S16         1.4981  -21.7060  -48.1395 S.3       23 UNK        -0.2404 
     17 C17        -0.2498  -22.0263  -47.7361 C.3       23 UNK        -0.0398 
     18 CA         -0.4475  -23.2850  -46.8635 C.3       11 UNK         0.1400 
     19 N           0.0877  -23.1283  -45.5041 N.am      11 UNK        -0.5000 
     20 C           0.1183  -24.1013  -44.5789 C.2       10 UNK         0.5000 
     21 O          -0.2845  -25.2461  -44.7879 O.2       10 UNK        -0.5000 
     22 CA          0.6177  -23.7353  -43.1682 C.3       10 UNK         0.1400 
     23 CB          2.1154  -24.0477  -43.0384 C.3       10 UNK        -0.1800 
     24 N           0.3844  -22.3408  -42.7861 N.am      10 UNK        -0.5000 
     25 C          -0.8015  -21.7137  -42.7647 C.2       9 UNK         0.5000 
     26 O          -1.8646  -22.2569  -43.0631 O.2       9 UNK        -0.5000 
     27 CA         -0.7975  -20.2176  -42.3887 C.3       9 UNK         0.1400 
     28 CB         -1.2583  -20.0210  -40.9372 C.3       9 UNK        -0.1800 
     29 N           0.4987  -19.5563  -42.5701 N.am      9 UNK        -0.5000 
     30 C           1.1277  -19.4046  -43.7427 C.2       8 UNK         0.5000 
     31 O           0.6848  -19.8454  -44.8039 O.2       8 UNK        -0.5000 
     32 CA          2.4544  -18.6237  -43.7085 C.3       8 UNK         0.1400 
     33 CB          3.0441  -18.3858  -45.1105 C.3       8 UNK        -0.1800 
     34 N           2.2703  -17.3305  -43.0546 N.am      8 UNK        -0.5000 
     35 C           2.4301  -17.0747  -41.7499 C.2       7 UNK         0.5000 
     36 O           2.7068  -17.9482  -40.9265 O.2       7 UNK        -0.5000 
     37 CA          2.2066  -15.6169  -41.2839 C.3       7 UNK         0.1400 
     38 CB          3.1045  -15.2308  -40.0907 C.3       7 UNK        -0.1800 
     39 N           2.3113  -14.6284  -42.3654 N.am      7 UNK        -0.5000 
     40 C           3.3857  -14.3432  -43.1196 C.2       6 UNK         0.5000 
     41 O           4.5026  -14.8242  -42.9254 O.2       6 UNK        -0.5000 
     42 CA          3.1727  -13.3937  -44.3163 C.3       6 UNK         0.1400 
     43 CB          3.7411  -14.0063  -45.6060 C.3       6 UNK        -0.1800 
     44 N           1.7538  -13.1122  -44.5364 N.am      6 UNK        -0.5000 
     45 C           1.1478  -11.9354  -44.3330 C.2       5 UNK         0.5000 
     46 O           1.7360  -10.9113  -43.9840 O.2       5 UNK        -0.5000 
     47 CA         -0.3840  -11.9006  -44.5240 C.3       5 UNK         0.1400 
     48 CB         -0.7279  -11.4481  -45.9490 C.3       5 UNK        -0.1800 
     49 N          -1.0356  -13.1880  -44.2626 N.am      5 UNK        -0.5000 
     50 C          -1.0354  -13.8166  -43.0775 C.2       4 UNK         0.5000 
     51 O          -0.5346  -13.3430  -42.0580 O.2       4 UNK        -0.5000 
     52 CA         -1.6230  -15.2397  -43.0205 C.3       4 UNK         0.1400 
     53 CB         -3.0538  -15.2109  -42.4643 C.3       4 UNK        -0.1800 
     54 N          -1.6240  -15.9567  -44.2963 N.am      4 UNK        -0.5000 
     55 C          -0.5595  -16.2174  -45.0675 C.2       3 UNK         0.5000 
     56 O           0.5814  -15.8233  -44.8171 O.2       3 UNK        -0.5000 
     57 CA         -0.8077  -17.0603  -46.3322 C.3       3 UNK         0.1400 
     58 CB         -2.1501  -17.8231  -46.3165 C.3       3 UNK        -0.1800 
     59 N          -0.6630  -16.2999  -47.5766 N.am      3 UNK        -0.5000 
     60 C          -1.2229  -15.1229  -47.8991 C.2       2 UNK         0.5000 
     61 O          -1.9311  -14.4641  -47.1340 O.2       2 UNK        -0.5000 
     62 CA         -0.9493  -14.6191  -49.3362 C.3       2 UNK         0.1400 
     63 CB         -1.2174  -13.1106  -49.5191 C.3       2 UNK        -0.1800 
     64 N           0.3808  -14.9855  -49.8437 N.am      2 UNK        -0.5000 
     65 C           1.5698  -14.6002  -49.3564 C.2       1 UNK         0.5000 
     66 O           1.6924  -13.8491  -48.3868 O.2       1 UNK        -0.5000 
     67 C          -1.9365  -23.6873  -46.8833 C.2       11 UNK         0.5000 
     68 O          -2.3511  -24.3648  -47.8234 O.2       11 UNK        -0.5000 
     69 N          -2.7072  -23.3074  -45.8523 N.am      12 UNK        -0.5000 
     70 CA         -4.1154  -23.6807  -45.6990 C.3       12 UNK         0.1400 
     71 CB         -4.7575  -22.8195  -44.6021 C.3       12 UNK        -0.1800 
     72 C          -4.3218  -25.1799  -45.4075 C.2       12 UNK         0.5000 
     73 O          -5.4087  -25.6940  -45.6696 O.2       12 UNK        -0.5000 
     74 N          -3.2848  -25.8535  -44.8932 N.am      13 UNK        -0.5000 
     75 CA         -3.2625  -27.2959  -44.6679 C.3       13 UNK         0.1400 
     76 CB         -2.6105  -27.5852  -43.3060 C.3       13 UNK        -0.1800 
     77 C          -2.5029  -28.0112  -45.7966 C.2       13 UNK         0.5000 
     78 O          -2.9946  -29.0104  -46.3212 O.2       13 UNK        -0.5000 
     79 N          -1.3169  -27.4936  -46.1455 N.am      14 UNK        -0.5000 
     80 CA         -0.3795  -28.1199  -47.0778 C.3       14 UNK         0.1400 
     81 CB          1.0061  -27.4808  -46.8954 C.3       14 UNK        -0.1800 
     82 C          -0.8097  -28.0440  -48.5530 C.2       14 UNK         0.5000 
     83 O          -0.5113  -28.9690  -49.3099 O.2       14 UNK        -0.5000 
     84 N          -1.4753  -26.9492  -48.9408 N.am      15 UNK        -0.5000 
     85 CA         -1.8456  -26.6498  -50.3265 C.3       15 UNK         0.1400 
     86 CB         -0.8946  -25.5621  -50.8602 C.3       15 UNK        -0.1800 
     87 C          -3.3159  -26.2163  -50.4605 C.2       15 UNK         0.5000 
     88 O          -3.7045  -25.7438  -51.5288 O.2       15 UNK        -0.5000 
     89 N          -4.0978  -26.3264  -49.3738 N.am      16 UNK        -0.5000 
     90 CA         -5.4956  -25.8871  -49.2344 C.3       16 UNK         0.1400 
     91 CB         -6.4187  -26.7680  -50.1018 C.3       16 UNK        -0.1800 
     92 C          -5.7147  -24.3770  -49.4999 C.2       16 UNK         0.5000 
     93 O          -6.8402  -23.9663  -49.7861 O.2       16 UNK        -0.5000 
     94 N          -4.6292  -23.5882  -49.4326 N.am      17 UNK        -0.5000 
     95 CA         -4.5041  -22.1865  -49.8473 C.3       17 UNK         0.1400 
     96 CB         -5.2283  -21.2565  -48.8533 C.3       17 UNK        -0.1800 
     97 C          -4.9146  -21.9404  -51.3194 C.2       17 UNK         0.5000 
     98 O          -5.4072  -20.8603  -51.6481 O.2       17 UNK        -0.5000 
     99 N          -4.7136  -22.9440  -52.1865 N.am      18 UNK        -0.5000 
    100 CA        -5.1280  -22.9439  -53.5898 C.3       18 UNK         0.1400 
    101 CB        -5.3088  -24.4007  -54.0531 C.3       18 UNK        -0.1800 
    102 C         -4.1619  -22.1487  -54.4928 C.2       18 UNK         0.5000 
    103 O         -3.5308  -22.7194  -55.3849 O.2       18 UNK        -0.5000 
    104 N         -4.0725  -20.8380  -54.2537 N.am      19 UNK        -0.5000 
    105 CA        -3.3566  -19.8720  -55.0785 C.3       19 UNK         0.1400 
    106 CB        -1.8910  -19.7655  -54.6271 C.3       19 UNK        -0.1800 
    107 C         -4.0885  -18.5261  -54.9954 C.2       19 UNK         0.5000 
    108 O         -4.6591  -18.2038  -53.9499 O.2       19 UNK        -0.5000 
    109 N         -4.0614  -17.7693  -56.1009 N.am      20 UNK        -0.5000 
    110 CA        -4.8516  -16.5529  -56.3282 C.3       20 UNK         0.1400 
    111 CB        -4.5800  -16.0381  -57.7500 C.3       20 UNK        -0.1800 
    112 C         -4.6337  -15.4263  -55.3014 C.2       20 UNK         0.5000 
    113 O         -5.5679  -14.6722  -55.0256 O.2       20 UNK        -0.5000 
    114 N         -3.4274  -15.3552  -54.7222 N.am      21 UNK        -0.5000 
    115 CA        -3.0532  -14.3990  -53.6762 C.3       21 UNK         0.1400 
    116 CB        -1.5502  -14.5310  -53.3988 C.3       21 UNK        -0.1800 
    117 C         -3.8569  -14.5558  -52.3681 C.2       21 UNK         0.5000 
    118 O         -3.9744  -13.5873  -51.6175 O.2       21 UNK        -0.5000 
    119 N         -4.4063  -15.7537  -52.1320 N.am      22 UNK        -0.5000 
    120 CA        -5.3156  -16.0594  -51.0175 C.3       22 UNK         0.1400 
    121 C         -6.8196  -15.8745  -51.3806 C.2       22 UNK         0.5000 
    122 N         -7.1784  -15.4273  -52.5795 N.am      22 UNK        -0.7600 
    123 O         -7.6874  -16.1213  -50.5477 O.2       22 UNK        -0.5000 
    124 C124       -5.0377  -17.4662  -50.4295 C.3       23 UNK        -0.0398 
    125 S125       -3.3641  -17.5848  -49.7138 S.3       23 UNK        -0.2404 
    126 C126       -2.5231  -18.6188  -50.9459 C.3       23 UNK        -0.0205 
    127 H127        6.1012  -14.7465  -47.7973 H         1 UNK         0.0600 
    128 H128        5.9375  -12.9971  -47.6259 H         1 UNK         0.0600 
    129 H129        6.8776  -13.6687  -48.9615 H         1 UNK         0.0600 
    130 H130        4.3717  -15.7446  -48.7344 H         1 UNK         0.3000 
    131 H131        2.6921  -16.2885  -49.9635 H         1 UNK         0.0600 
    132 H132        2.8839  -13.7828  -51.7000 H         1 UNK         0.0800 
    133 H133        3.9555  -15.1344  -51.9015 H         1 UNK         0.0800 
    134 H134        1.9499  -17.9076  -53.5158 H         1 UNK         0.0800 
    135 H135        3.1775  -17.5882  -52.3155 H         1 UNK         0.0800 
    136 H136       -0.5836  -17.6184  -52.5776 H         1 UNK         0.1150 
    137 H137       -1.1222  -19.6523  -48.8569 H         1 UNK         0.1150 
    138 H138        2.8313  -18.7451  -50.2542 H         1 UNK         0.1150 
    139 H139        2.5682  -19.5644  -48.0499 H         1 UNK         0.0800 
    140 H140        1.0109  -19.5067  -47.2848 H         1 UNK         0.0800 
    141 H141       -0.6768  -21.1618  -47.2252 H         1 UNK         0.0800 
    142 H142       -0.7776  -22.1215  -48.6875 H         1 UNK         0.0800 
    143 H143        0.0976  -24.1076  -47.3308 H         1 UNK         0.0600 
    144 H144        0.4229  -22.2061  -45.2553 H         1 UNK         0.3000 
    145 H145        0.0730  -24.3631  -42.4602 H         1 UNK         0.0600 
    146 H146        2.4651  -23.8910  -42.0178 H         1 UNK         0.0600 
    147 H147        2.3214  -25.0880  -43.2945 H         1 UNK         0.0600 
    148 H148        2.7154  -23.4216  -43.7002 H         1 UNK         0.0600 
    149 H149        1.1994  -21.8054  -42.5277 H         1 UNK         0.3000 
    150 H150       -1.5160  -19.7210  -43.0443 H         1 UNK         0.0600 
    151 H151       -2.2352  -20.4774  -40.7714 H         1 UNK         0.0600 
    152 H152       -1.3504  -18.9625  -40.6926 H         1 UNK         0.0600 
    153 H153       -0.5607  -20.4709  -40.2298 H         1 UNK         0.0600 
    154 H154        0.9393  -19.1760  -41.7422 H         1 UNK         0.3000 
    155 H155        3.1710  -19.2240  -43.1444 H         1 UNK         0.0600 
    156 H156        3.9925  -17.8516  -45.0507 H         1 UNK         0.0600 
    157 H157        2.3738  -17.8002  -45.7400 H         1 UNK         0.0600 
    158 H158        3.2368  -19.3314  -45.6183 H         1 UNK         0.0600 
    159 H159        1.9341  -16.5827  -43.6538 H         1 UNK         0.3000 
    160 H160        1.1728  -15.5715  -40.9394 H         1 UNK         0.0600 
    161 H161        4.1636  -15.3319  -40.3287 H         1 UNK         0.0600 
    162 H162        2.9036  -15.8669  -39.2279 H         1 UNK         0.0600 
    163 H163        2.9263  -14.2012  -39.7804 H         1 UNK         0.0600 
    164 H164        1.4524  -14.1399  -42.5839 H         1 UNK         0.3000 
    165 H165        3.7213  -12.4752  -44.0999 H         1 UNK         0.0600 
    166 H166        3.2443  -14.9438  -45.8602 H         1 UNK         0.0600 
    167 H167        3.6127  -13.3234  -46.4453 H         1 UNK         0.0600 
    168 H168        4.8082  -14.2102  -45.5129 H         1 UNK         0.0600 
    169 H169        1.1915  -13.9100  -44.8175 H         1 UNK         0.3000 
    170 H170       -0.7913  -11.1706  -43.8217 H         1 UNK         0.0600 
    171 H171       -0.3211  -10.4574  -46.1552 H         1 UNK         0.0600 
    172 H172       -0.3113  -12.1341  -46.6862 H         1 UNK         0.0600 
    173 H173       -1.8058  -11.3993  -46.1043 H         1 UNK         0.0600 
    174 H174       -1.4431  -13.6595  -45.0622 H         1 UNK         0.3000 
    175 H175       -1.0025  -15.8154  -42.3311 H         1 UNK         0.0600 
    176 H176       -3.7338  -14.6823  -43.1336 H         1 UNK         0.0600 
    177 H177       -3.4413  -16.2194  -42.3177 H         1 UNK         0.0600 
    178 H178       -3.0882  -14.7082  -41.4967 H         1 UNK         0.0600 
    179 H179       -2.5227  -16.2886  -44.6149 H         1 UNK         0.3000 
    180 H180       -0.0137  -17.8019  -46.3389 H         1 UNK         0.0600 
    181 H181       -3.0050  -17.1535  -46.4179 H         1 UNK         0.0600 
    182 H182       -2.2720  -18.3949  -45.3954 H         1 UNK         0.0600 
    183 H183       -2.1988  -18.5406  -47.1335 H         1 UNK         0.0600 
    184 H184       -0.0889  -16.7365  -48.2823 H         1 UNK         0.3000 
    185 H185       -1.6635  -15.1444  -49.9710 H         1 UNK         0.0600 
    186 H186       -1.0991  -12.8130  -50.5598 H         1 UNK         0.0600 
    187 H187       -2.2369  -12.8549  -49.2280 H         1 UNK         0.0600 
    188 H188       -0.5418  -12.4984  -48.9245 H         1 UNK         0.0600 
    189 H189        0.3825  -15.6018  -50.6462 H         1 UNK         0.3000 
    190 H190       -2.2934  -22.7944  -45.0816 H         1 UNK         0.3000 
    191 H191       -4.6275  -23.4619  -46.6365 H         1 UNK         0.0600 
    192 H192       -4.6198  -21.7565  -44.8008 H         1 UNK         0.0600 
    193 H193       -5.8310  -23.0031  -44.5429 H         1 UNK         0.0600 
    194 H194       -4.3357  -23.0372  -43.6206 H         1 UNK         0.0600 
    195 H195       -2.4170  -25.3588  -44.7295 H         1 UNK         0.3000 
    196 H196       -4.2787  -27.6949  -44.6415 H         1 UNK         0.0600 
    197 H197       -2.5751  -28.6576  -43.1103 H         1 UNK         0.0600 
    198 H198       -3.1766  -27.1256  -42.4957 H         1 UNK         0.0600 
    199 H199       -1.5886  -27.2076  -43.2541 H         1 UNK         0.0600 
    200 H200       -0.9700  -26.6765  -45.6473 H         1 UNK         0.3000 
    201 H201       -0.2984  -29.1767  -46.8142 H         1 UNK         0.0600 
    202 H202        1.3586  -27.5894  -45.8694 H         1 UNK         0.0600 
    203 H203        0.9931  -26.4167  -47.1327 H         1 UNK         0.0600 
    204 H204        1.7442  -27.9534  -47.5446 H         1 UNK         0.0600 
    205 H205       -1.6767  -26.2197  -48.2653 H         1 UNK         0.3000 
    206 H206       -1.7382  -27.5369  -50.9535 H         1 UNK         0.0600 
    207 H207        0.1453  -25.8828  -50.7956 H         1 UNK         0.0600 
    208 H208       -1.0971  -25.3370  -51.9080 H         1 UNK         0.0600 
    209 H209       -0.9930  -24.6324  -50.2984 H         1 UNK         0.0600 
    210 H210       -3.6804  -26.7194  -48.5430 H         1 UNK         0.3000 
    211 H211       -5.7697  -26.0560  -48.1944 H         1 UNK         0.0600 
    212 H212       -6.2569  -26.5980  -51.1667 H         1 UNK         0.0600 
    213 H213       -7.4690  -26.5602  -49.8942 H         1 UNK         0.0600 
    214 H214       -6.2548  -27.8269  -49.9020 H         1 UNK         0.0600 
    215 H215       -3.7658  -24.0242  -49.1223 H         1 UNK         0.3000 
    216 H216       -3.4399  -21.9526  -49.7945 H         1 UNK         0.0600 
    217 H217       -4.8663  -21.4051  -47.8366 H         1 UNK         0.0600 
    218 H218       -6.3058  -21.4225  -48.8565 H         1 UNK         0.0600 
    219 H219       -5.0577  -20.2085  -49.1004 H         1 UNK         0.0600 
    220 H220       -4.3004  -23.8082  -51.8505 H         1 UNK         0.3000 
    221 H221       -6.1045  -22.4602  -53.6621 H         1 UNK         0.0600 
    222 H222       -4.3671  -24.9503  -54.0325 H         1 UNK         0.0600 
    223 H223       -6.0186  -24.9314  -53.4180 H         1 UNK         0.0600 
    224 H224       -5.6913  -24.4422  -55.0736 H         1 UNK         0.0600 
    225 H225       -4.6229  -20.4376  -53.4976 H         1 UNK         0.3000 
    226 H226       -3.3824  -20.1999  -56.1201 H         1 UNK         0.0600 
    227 H227       -1.3487  -20.6852  -54.8473 H         1 UNK         0.0600 
    228 H228       -1.3738  -18.9531  -55.1389 H         1 UNK         0.0600 
    229 H229       -1.8117  -19.5898  -53.5567 H         1 UNK         0.0600 
    230 H230       -3.5430  -18.1069  -56.8993 H         1 UNK         0.3000 
    231 H231       -5.9038  -16.8382  -56.2670 H         1 UNK         0.0600 
    232 H232       -5.1715  -15.1467  -57.9638 H         1 UNK         0.0600 
    233 H233       -4.8427  -16.7860  -58.4985 H         1 UNK         0.0600 
    234 H234       -3.5303  -15.7765  -57.8889 H         1 UNK         0.0600 
    235 H235       -2.7239  -16.0215  -55.0040 H         1 UNK         0.3000 
    236 H236       -3.2443  -13.3952  -54.0609 H         1 UNK         0.0600 
    237 H237       -0.9634  -14.4152  -54.3102 H         1 UNK         0.0600 
    238 H238       -1.2121  -13.7664  -52.7000 H         1 UNK         0.0600 
    239 H239       -1.3110  -15.4999  -52.9635 H         1 UNK         0.0600 
    240 H240       -4.3019  -16.4906  -52.8206 H         1 UNK         0.3000 
    241 H241       -5.1342  -15.3429  -50.2142 H         1 UNK         0.0600 
    242 H242       -6.4904  -15.1894  -53.2844 H         1 UNK         0.3800 
    243 H243       -8.1576  -15.3086  -52.7850 H         1 UNK         0.3800 
    244 H244       -5.1796  -18.2351  -51.1900 H         1 UNK         0.0800 
    245 H245       -5.7432  -17.6975  -49.6299 H         1 UNK         0.0800 
    246 H246       -2.9133  -19.6350  -50.8981 H         1 UNK         0.0800 
    247 H247       -2.7653  -18.2371  -51.9377 H         1 UNK         0.0800 
@<TRIPOS>BOND
     1    1    2 1    
     2    1  127 1    
     3    1  128 1    
     4    1  129 1    
     5    2    3 2    
     6    2    4 am   BACKBONE|DICT|INTERRES
     7    4    5 1    
     8    4  130 1    
     9    5    6 1    
    10    5   65 1    
    11    5  131 1    
    12    6    7 1    
    13    6  132 1    
    14    6  133 1    
    15    7    8 1    
    16    8    9 1    
    17    8  134 1    
    18    8  135 1    
    19    9   10 ar   
    20    9   14 ar   
    21   10   11 ar   
    22   10  136 1    
    23   11   12 ar   
    24   11  126 1    
    25   12   13 ar   
    26   12  137 1    
    27   13   14 ar   
    28   13   15 1    
    29   14  138 1    
    30   15   16 1    
    31   15  139 1    
    32   15  140 1    
    33   16   17 1    
    34   17   18 1    
    35   17  141 1    
    36   17  142 1    
    37   18   19 1    
    38   18   67 1    
    39   18  143 1    
    40   19   20 am   BACKBONE|DICT|INTERRES
    41   19  144 1    
    42   20   21 2    
    43   20   22 1    
    44   22   23 1    
    45   22   24 1    
    46   22  145 1    
    47   23  146 1    
    48   23  147 1    
    49   23  148 1    
    50   24   25 am   BACKBONE|DICT|INTERRES
    51   24  149 1    
    52   25   26 2    
    53   25   27 1    
    54   27   28 1    
    55   27   29 1    
    56   27  150 1    
    57   28  151 1    
    58   28  152 1    
    59   28  153 1    
    60   29   30 am   BACKBONE|DICT|INTERRES
    61   29  154 1    
    62   30   31 2    
    63   30   32 1    
    64   32   33 1    
    65   32   34 1    
    66   32  155 1    
    67   33  156 1    
    68   33  157 1    
    69   33  158 1    
    70   34   35 am   BACKBONE|DICT|INTERRES
    71   34  159 1    
    72   35   36 2    
    73   35   37 1    
    74   37   38 1    
    75   37   39 1    
    76   37  160 1    
    77   38  161 1    
    78   38  162 1    
    79   38  163 1    
    80   39   40 am   BACKBONE|DICT|INTERRES
    81   39  164 1    
    82   40   41 2    
    83   40   42 1    
    84   42   43 1    
    85   42   44 1    
    86   42  165 1    
    87   43  166 1    
    88   43  167 1    
    89   43  168 1    
    90   44   45 am   BACKBONE|DICT|INTERRES
    91   44  169 1    
    92   45   46 2    
    93   45   47 1    
    94   47   48 1    
    95   47   49 1    
    96   47  170 1    
    97   48  171 1    
    98   48  172 1    
    99   48  173 1    
   100   49   50 am   BACKBONE|DICT|INTERRES
   101   49  174 1    
   102   50   51 2    
   103   50   52 1    
   104   52   53 1    
   105   52   54 1    
   106   52  175 1    
   107   53  176 1    
   108   53  177 1    
   109   53  178 1    
   110   54   55 am   BACKBONE|DICT|INTERRES
   111   54  179 1    
   112   55   56 2    
   113   55   57 1    
   114   57   58 1    
   115   57   59 1    
   116   57  180 1    
   117   58  181 1    
   118   58  182 1    
   119   58  183 1    
   120   59   60 am   BACKBONE|DICT|INTERRES
   121   59  184 1    
   122   60   61 2    
   123   60   62 1    
   124   62   63 1    
   125   62   64 1    
   126   62  185 1    
   127   63  186 1    
   128   63  187 1    
   129   63  188 1    
   130   64   65 am   BACKBONE|DICT|INTERRES
   131   64  189 1    
   132   65   66 2    
   133   67   68 2    
   134   67   69 am   BACKBONE|DICT|INTERRES
   135   69   70 1    
   136   69  190 1    
   137   70   71 1    
   138   70   72 1    
   139   70  191 1    
   140   71  192 1    
   141   71  193 1    
   142   71  194 1    
   143   72   73 2    
   144   72   74 am   BACKBONE|DICT|INTERRES
   145   74   75 1    
   146   74  195 1    
   147   75   76 1    
   148   75   77 1    
   149   75  196 1    
   150   76  197 1    
   151   76  198 1    
   152   76  199 1    
   153   77   78 2    
   154   77   79 am   BACKBONE|DICT|INTERRES
   155   79   80 1    
   156   79  200 1    
   157   80   81 1    
   158   80   82 1    
   159   80  201 1    
   160   81  202 1    
   161   81  203 1    
   162   81  204 1    
   163   82   83 2    
   164   82   84 am   BACKBONE|DICT|INTERRES
   165   84   85 1    
   166   84  205 1    
   167   85   86 1    
   168   85   87 1    
   169   85  206 1    
   170   86  207 1    
   171   86  208 1    
   172   86  209 1    
   173   87   88 2    
   174   87   89 am   BACKBONE|DICT|INTERRES
   175   89   90 1    
   176   89  210 1    
   177   90   91 1    
   178   90   92 1    
   179   90  211 1    
   180   91  212 1    
   181   91  213 1    
   182   91  214 1    
   183   92   93 2    
   184   92   94 am   BACKBONE|DICT|INTERRES
   185   94   95 1    
   186   94  215 1    
   187   95   96 1    
   188   95   97 1    
   189   95  216 1    
   190   96  217 1    
   191   96  218 1    
   192   96  219 1    
   193   97   98 2    
   194   97   99 am   BACKBONE|DICT|INTERRES
   195   99  100 1    
   196   99  220 1    
   197  100  101 1    
   198  100  102 1    
   199  100  221 1    
   200  101  222 1    
   201  101  223 1    
   202  101  224 1    
   203  102  103 2    
   204  102  104 am   BACKBONE|DICT|INTERRES
   205  104  105 1    
   206  104  225 1    
   207  105  106 1    
   208  105  107 1    
   209  105  226 1    
   210  106  227 1    
   211  106  228 1    
   212  106  229 1    
   213  107  108 2    
   214  107  109 am   BACKBONE|DICT|INTERRES
   215  109  110 1    
   216  109  230 1    
   217  110  111 1    
   218  110  112 1    
   219  110  231 1    
   220  111  232 1    
   221  111  233 1    
   222  111  234 1    
   223  112  113 2    
   224  112  114 am   BACKBONE|DICT|INTERRES
   225  114  115 1    
   226  114  235 1    
   227  115  116 1    
   228  115  117 1    
   229  115  236 1    
   230  116  237 1    
   231  116  238 1    
   232  116  239 1    
   233  117  118 2    
   234  117  119 am   BACKBONE|DICT|INTERRES
   235  119  120 1    
   236  119  240 1    
   237  120  121 1    
   238  120  124 1    
   239  120  241 1    
   240  121  122 am   BACKBONE|DICT|INTERRES
   241  121  123 2    
   242  122  242 1    
   243  122  243 1    
   244  124  125 1    
   245  124  244 1    
   246  124  245 1    
   247  125  126 1    
   248  126  246 1    
   249  126  247 1    
@<TRIPOS>SUBSTRUCTURE
     1 UNK         1 GROUP             0       ****    0 ROOT    
