@<TRIPOS>MOLECULE
3R540
247   249    1
SMALL
USER_CHARGES


@<TRIPOS>ATOM
      1 CA          1.5151  -16.7504  -47.9545 C.3       0 UNK        -0.1800 
      2 C           1.4307  -15.8002  -49.1383 C.2       0 UNK         0.5000 
      3 O           0.5735  -14.9203  -49.1518 O.2       0 UNK        -0.5000 
      4 N           2.3252  -15.9712  -50.1227 N.am      1 UNK        -0.5000 
      5 CA          2.3201  -15.2696  -51.4167 C.3       1 UNK         0.1400 
      6 C6          3.4086  -15.8275  -52.3772 C.3       23 UNK        -0.0398 
      7 S7          2.7601  -16.0754  -54.0649 S.3       23 UNK        -0.2404 
      8 C8          2.5460  -17.8862  -54.1212 C.3       23 UNK        -0.0205 
      9 C9          1.7113  -18.4146  -52.9617 C.ar      23 UNK        -0.0193 
     10 C10         0.3609  -18.0726  -52.8525 C.ar      23 UNK        -0.1150 
     11 C11        -0.3994  -18.5455  -51.7821 C.ar      23 UNK        -0.0193 
     12 C12         0.1948  -19.3695  -50.8254 C.ar      23 UNK        -0.1150 
     13 C13         1.5424  -19.7356  -50.9219 C.ar      23 UNK        -0.0193 
     14 C14         2.2912  -19.2485  -51.9988 C.ar      23 UNK        -0.1150 
     15 C15         2.2055  -20.6952  -49.9281 C.3       23 UNK        -0.0205 
     16 S16         1.6812  -20.5194  -48.1838 S.3       23 UNK        -0.2404 
     17 C17         0.1014  -21.4293  -48.1726 C.3       23 UNK        -0.0398 
     18 CA          0.0516  -22.6115  -47.1791 C.3       11 UNK         0.1400 
     19 N          -0.0271  -22.1775  -45.7803 N.am      11 UNK        -0.5000 
     20 C          -0.0475  -22.9990  -44.7199 C.2       10 UNK         0.5000 
     21 O           0.1018  -24.2183  -44.7975 O.2       10 UNK        -0.5000 
     22 CA         -0.3584  -22.3665  -43.3504 C.3       10 UNK         0.1400 
     23 CB          0.9007  -21.7501  -42.7236 C.3       10 UNK        -0.1800 
     24 N          -1.4307  -21.3702  -43.4243 N.am      10 UNK        -0.5000 
     25 C          -2.7001  -21.6556  -43.7518 C.2       9 UNK         0.5000 
     26 O          -3.1037  -22.7977  -43.9667 O.2       9 UNK        -0.5000 
     27 CA         -3.6764  -20.4750  -43.9083 C.3       9 UNK         0.1400 
     28 CB         -4.2394  -20.0462  -42.5457 C.3       9 UNK        -0.1800 
     29 N          -3.0686  -19.3255  -44.5774 N.am      9 UNK        -0.5000 
     30 C          -2.6527  -19.3179  -45.8518 C.2       8 UNK         0.5000 
     31 O          -2.8159  -20.2627  -46.6247 O.2       8 UNK        -0.5000 
     32 CA         -1.8666  -18.0748  -46.3181 C.3       8 UNK         0.1400 
     33 CB         -2.8121  -16.9438  -46.7425 C.3       8 UNK        -0.1800 
     34 N          -0.9395  -17.5828  -45.2951 N.am      8 UNK        -0.5000 
     35 C           0.0972  -18.2885  -44.8209 C.2       7 UNK         0.5000 
     36 O           0.4118  -19.3990  -45.2422 O.2       7 UNK        -0.5000 
     37 CA          0.8698  -17.6895  -43.6350 C.3       7 UNK         0.1400 
     38 CB          1.9448  -16.7018  -44.1087 C.3       7 UNK        -0.1800 
     39 N          -0.0317  -17.0340  -42.6888 N.am      7 UNK        -0.5000 
     40 C          -0.8276  -17.6948  -41.8359 C.2       6 UNK         0.5000 
     41 O          -0.8389  -18.9209  -41.7297 O.2       6 UNK        -0.5000 
     42 CA         -1.7993  -16.8516  -40.9871 C.3       6 UNK         0.1400 
     43 CB         -1.1115  -16.3672  -39.7022 C.3       6 UNK        -0.1800 
     44 N          -2.3347  -15.6979  -41.7114 N.am      6 UNK        -0.5000 
     45 C          -3.1378  -15.7783  -42.7818 C.2       5 UNK         0.5000 
     46 O          -3.5678  -16.8399  -43.2287 O.2       5 UNK        -0.5000 
     47 CA         -3.4750  -14.4600  -43.5075 C.3       5 UNK         0.1400 
     48 CB         -4.7914  -13.8763  -42.9742 C.3       5 UNK        -0.1800 
     49 N          -2.4226  -13.4420  -43.4169 N.am      5 UNK        -0.5000 
     50 C          -1.1600  -13.5981  -43.8383 C.2       4 UNK         0.5000 
     51 O          -0.7341  -14.6438  -44.3346 O.2       4 UNK        -0.5000 
     52 CA         -0.2135  -12.4094  -43.5793 C.3       4 UNK         0.1400 
     53 CB          0.1318  -12.3257  -42.0827 C.3       4 UNK        -0.1800 
     54 N           1.0393  -12.4867  -44.3318 N.am      4 UNK        -0.5000 
     55 C           1.1556  -12.3976  -45.6622 C.2       3 UNK         0.5000 
     56 O           0.2033  -12.2128  -46.4241 O.2       3 UNK        -0.5000 
     57 CA          2.5875  -12.4869  -46.2186 C.3       3 UNK         0.1400 
     58 CB          3.2982  -13.7957  -45.8257 C.3       3 UNK        -0.1800 
     59 N           2.5701  -12.3793  -47.6738 N.am      3 UNK        -0.5000 
     60 C           3.4876  -11.7490  -48.4145 C.2       2 UNK         0.5000 
     61 O           4.4640  -11.1634  -47.9427 O.2       2 UNK        -0.5000 
     62 CA          3.3003  -11.8494  -49.9363 C.3       2 UNK         0.1400 
     63 CB          4.4620  -11.2377  -50.7438 C.3       2 UNK        -0.1800 
     64 N           3.1374  -13.2571  -50.2834 N.am      2 UNK        -0.5000 
     65 C           2.4184  -13.7312  -51.3055 C.2       1 UNK         0.5000 
     66 O           1.8446  -13.0181  -52.1300 O.2       1 UNK        -0.5000 
     67 C          -1.1225  -23.5404  -47.5480 C.2       11 UNK         0.5000 
     68 O          -0.8902  -24.6000  -48.1274 O.2       11 UNK        -0.5000 
     69 N          -2.3531  -23.1480  -47.1868 N.am      12 UNK        -0.5000 
     70 CA         -3.5647  -23.9347  -47.4197 C.3       12 UNK         0.1400 
     71 CB         -4.8076  -23.0920  -47.1000 C.3       12 UNK        -0.1800 
     72 C          -3.5765  -25.2762  -46.6662 C.2       12 UNK         0.5000 
     73 O          -3.9562  -26.2888  -47.2538 O.2       12 UNK        -0.5000 
     74 N          -3.1089  -25.2770  -45.4106 N.am      13 UNK        -0.5000 
     75 CA         -2.9326  -26.4767  -44.5879 C.3       13 UNK         0.1400 
     76 CB         -2.5790  -26.0648  -43.1510 C.3       13 UNK        -0.1800 
     77 C          -1.8759  -27.4454  -45.1556 C.2       13 UNK         0.5000 
     78 O          -2.0698  -28.6600  -45.0964 O.2       13 UNK        -0.5000 
     79 N          -0.7968  -26.8917  -45.7248 N.am      14 UNK        -0.5000 
     80 CA          0.2612  -27.6300  -46.4188 C.3       14 UNK         0.1400 
     81 CB          1.5182  -26.7464  -46.4747 C.3       14 UNK        -0.1800 
     82 C          -0.1327  -28.0878  -47.8398 C.2       14 UNK         0.5000 
     83 O           0.5976  -28.8820  -48.4339 O.2       14 UNK        -0.5000 
     84 N          -1.2512  -27.5646  -48.3649 N.am      15 UNK        -0.5000 
     85 CA         -1.7618  -27.7131  -49.7327 C.3       15 UNK         0.1400 
     86 CB         -2.1481  -29.1765  -50.0299 C.3       15 UNK        -0.1800 
     87 C          -0.8227  -27.1021  -50.7974 C.2       15 UNK         0.5000 
     88 O          -0.7808  -27.5734  -51.9355 O.2       15 UNK        -0.5000 
     89 N          -0.0928  -26.0492  -50.4112 N.am      16 UNK        -0.5000 
     90 CA          0.7968  -25.2705  -51.2625 C.3       16 UNK         0.1400 
     91 CB          1.9383  -24.7089  -50.3975 C.3       16 UNK        -0.1800 
     92 C          -0.0280  -24.1591  -51.9266 C.2       16 UNK         0.5000 
     93 O          -0.2430  -23.1107  -51.3171 O.2       16 UNK        -0.5000 
     94 N          -0.5474  -24.4435  -53.1285 N.am      17 UNK        -0.5000 
     95 CA         -1.4668  -23.6347  -53.9451 C.3       17 UNK         0.1400 
     96 CB         -0.8771  -22.2486  -54.2790 C.3       17 UNK        -0.1800 
     97 C          -2.8815  -23.5112  -53.3437 C.2       17 UNK         0.5000 
     98 O          -3.8610  -23.7513  -54.0489 O.2       17 UNK        -0.5000 
     99 N          -2.9548  -23.1555  -52.0542 N.am      18 UNK        -0.5000 
    100 CA        -4.1391  -23.0613  -51.1930 C.3       18 UNK         0.1400 
    101 CB        -4.7953  -24.4461  -51.0178 C.3       18 UNK        -0.1800 
    102 C         -5.1615  -21.9765  -51.5900 C.2       18 UNK         0.5000 
    103 O         -6.2562  -21.9377  -51.0253 O.2       18 UNK        -0.5000 
    104 N         -4.7853  -21.0788  -52.5086 N.am      19 UNK        -0.5000 
    105 CA        -5.5717  -19.9265  -52.9461 C.3       19 UNK         0.1400 
    106 CB        -5.0994  -19.5187  -54.3533 C.3       19 UNK        -0.1800 
    107 C         -5.4515  -18.7794  -51.9243 C.2       19 UNK         0.5000 
    108 O         -4.8802  -17.7355  -52.2371 O.2       19 UNK        -0.5000 
    109 N         -5.9617  -19.0165  -50.7064 N.am      20 UNK        -0.5000 
    110 CA        -5.7705  -18.2269  -49.4800 C.3       20 UNK         0.1400 
    111 CB        -6.5179  -18.9144  -48.3272 C.3       20 UNK        -0.1800 
    112 C         -6.1258  -16.7247  -49.5483 C.2       20 UNK         0.5000 
    113 O         -5.7410  -15.9726  -48.6513 O.2       20 UNK        -0.5000 
    114 N         -6.7853  -16.2961  -50.6330 N.am      21 UNK        -0.5000 
    115 CA        -6.9642  -14.9014  -51.0456 C.3       21 UNK         0.1400 
    116 CB        -7.8024  -14.8756  -52.3330 C.3       21 UNK        -0.1800 
    117 C         -5.6419  -14.1223  -51.2441 C.2       21 UNK         0.5000 
    118 O         -5.6723  -12.8908  -51.2462 O.2       21 UNK        -0.5000 
    119 N         -4.5109  -14.8348  -51.3698 N.am      22 UNK        -0.5000 
    120 CA        -3.1468  -14.2938  -51.2412 C.3       22 UNK         0.1400 
    121 C         -2.8485  -13.5709  -49.8902 C.2       22 UNK         0.5000 
    122 N         -3.5370  -13.8887  -48.7978 N.am      22 UNK        -0.7600 
    123 O         -2.0053  -12.6796  -49.8476 O.2       22 UNK        -0.5000 
    124 C124       -2.0632  -15.3631  -51.5536 C.3       23 UNK        -0.0398 
    125 S125       -2.1557  -16.8449  -50.4805 S.3       23 UNK        -0.2404 
    126 C126       -1.8724  -18.2010  -51.6606 C.3       23 UNK        -0.0205 
    127 H127        1.1896  -16.2498  -47.0434 H         1 UNK         0.0600 
    128 H128        2.5295  -17.1191  -47.8019 H         1 UNK         0.0600 
    129 H129        0.8585  -17.6035  -48.1213 H         1 UNK         0.0600 
    130 H130        3.0011  -16.7157  -50.0342 H         1 UNK         0.3000 
    131 H131        1.3357  -15.4791  -51.8400 H         1 UNK         0.0600 
    132 H132        4.2822  -15.1748  -52.4331 H         1 UNK         0.0800 
    133 H133        3.8017  -16.7786  -52.0173 H         1 UNK         0.0800 
    134 H134        3.5300  -18.3574  -54.1363 H         1 UNK         0.0800 
    135 H135        2.0636  -18.1570  -55.0613 H         1 UNK         0.0800 
    136 H136       -0.0929  -17.4332  -53.5965 H         1 UNK         0.1150 
    137 H137       -0.4182  -19.7210  -50.0143 H         1 UNK         0.1150 
    138 H138        3.3315  -19.5267  -52.0931 H         1 UNK         0.1150 
    139 H139        3.2865  -20.5507  -49.9522 H         1 UNK         0.0800 
    140 H140        2.0321  -21.7182  -50.2615 H         1 UNK         0.0800 
    141 H141       -0.0857  -21.7871  -49.1842 H         1 UNK         0.0800 
    142 H142       -0.6943  -20.7180  -47.9581 H         1 UNK         0.0800 
    143 H143        0.9687  -23.1936  -47.2893 H         1 UNK         0.0600 
    144 H144       -0.0743  -21.1738  -45.6194 H         1 UNK         0.3000 
    145 H145       -0.6998  -23.1655  -42.6891 H         1 UNK         0.0600 
    146 H146        0.6870  -21.3269  -41.7420 H         1 UNK         0.0600 
    147 H147        1.6756  -22.5059  -42.5904 H         1 UNK         0.0600 
    148 H148        1.3212  -20.9610  -43.3453 H         1 UNK         0.0600 
    149 H149       -1.1809  -20.4119  -43.2105 H         1 UNK         0.3000 
    150 H150       -4.5109  -20.8147  -44.5251 H         1 UNK         0.0600 
    151 H151       -4.7215  -20.8846  -42.0415 H         1 UNK         0.0600 
    152 H152       -4.9868  -19.2607  -42.6582 H         1 UNK         0.0600 
    153 H153       -3.4577  -19.6713  -41.8853 H         1 UNK         0.0600 
    154 H154       -2.9750  -18.4760  -44.0278 H         1 UNK         0.3000 
    155 H155       -1.2766  -18.3637  -47.1900 H         1 UNK         0.0600 
    156 H156       -3.4712  -16.6377  -45.9313 H         1 UNK         0.0600 
    157 H157       -3.4438  -17.2602  -47.5710 H         1 UNK         0.0600 
    158 H158       -2.2556  -16.0679  -47.0779 H         1 UNK         0.0600 
    159 H159       -1.1094  -16.6578  -44.9172 H         1 UNK         0.3000 
    160 H160        1.3775  -18.5074  -43.1196 H         1 UNK         0.0600 
    161 H161        2.5303  -16.3236  -43.2709 H         1 UNK         0.0600 
    162 H162        1.5082  -15.8479  -44.6235 H         1 UNK         0.0600 
    163 H163        2.6373  -17.1822  -44.8011 H         1 UNK         0.0600 
    164 H164       -0.1411  -16.0338  -42.7924 H         1 UNK         0.3000 
    165 H165       -2.6371  -17.4931  -40.7060 H         1 UNK         0.0600 
    166 H166       -1.8111  -15.8364  -39.0564 H         1 UNK         0.0600 
    167 H167       -0.7170  -17.2083  -39.1304 H         1 UNK         0.0600 
    168 H168       -0.2783  -15.6972  -39.9183 H         1 UNK         0.0600 
    169 H169       -2.0321  -14.7852  -41.4057 H         1 UNK         0.3000 
    170 H170       -3.6109  -14.6940  -44.5647 H         1 UNK         0.0600 
    171 H171       -5.6008  -14.6037  -43.0519 H         1 UNK         0.0600 
    172 H172       -4.7086  -13.5878  -41.9256 H         1 UNK         0.0600 
    173 H173       -5.0926  -12.9964  -43.5430 H         1 UNK         0.0600 
    174 H174       -2.6919  -12.5605  -43.0043 H         1 UNK         0.3000 
    175 H175       -0.7294  -11.4937  -43.8753 H         1 UNK         0.0600 
    176 H176        0.6455  -13.2242  -41.7376 H         1 UNK         0.0600 
    177 H177        0.7758  -11.4711  -41.8739 H         1 UNK         0.0600 
    178 H178       -0.7642  -12.2056  -41.4726 H         1 UNK         0.0600 
    179 H179        1.8713  -12.6500  -43.7849 H         1 UNK         0.3000 
    180 H180        3.1378  -11.6450  -45.7932 H         1 UNK         0.0600 
    181 H181        2.7955  -14.6632  -46.2505 H         1 UNK         0.0600 
    182 H182        3.3369  -13.9286  -44.7445 H         1 UNK         0.0600 
    183 H183        4.3277  -13.8038  -46.1840 H         1 UNK         0.0600 
    184 H184        1.7571  -12.7863  -48.1222 H         1 UNK         0.3000 
    185 H185        2.3843  -11.3056  -50.1767 H         1 UNK         0.0600 
    186 H186        4.5964  -10.1835  -50.4991 H         1 UNK         0.0600 
    187 H187        5.4041  -11.7479  -50.5402 H         1 UNK         0.0600 
    188 H188        4.2734  -11.2989  -51.8157 H         1 UNK         0.0600 
    189 H189        3.5441  -13.9177  -49.6354 H         1 UNK         0.3000 
    190 H190       -2.4734  -22.2416  -46.7450 H         1 UNK         0.3000 
    191 H191       -3.5885  -24.1805  -48.4802 H         1 UNK         0.0600 
    192 H192       -4.8418  -22.8055  -46.0492 H         1 UNK         0.0600 
    193 H193       -5.7210  -23.6460  -47.3198 H         1 UNK         0.0600 
    194 H194       -4.8291  -22.1797  -47.6966 H         1 UNK         0.0600 
    195 H195       -2.8743  -24.3872  -44.9774 H         1 UNK         0.3000 
    196 H196       -3.8873  -27.0060  -44.5635 H         1 UNK         0.0600 
    197 H197       -2.4784  -26.9395  -42.5074 H         1 UNK         0.0600 
    198 H198       -3.3543  -25.4307  -42.7205 H         1 UNK         0.0600 
    199 H199       -1.6378  -25.5163  -43.1094 H         1 UNK         0.0600 
    200 H200       -0.6821  -25.8843  -45.6716 H         1 UNK         0.3000 
    201 H201        0.4992  -28.5251  -45.8405 H         1 UNK         0.0600 
    202 H202        1.8415  -26.4568  -45.4747 H         1 UNK         0.0600 
    203 H203        1.3431  -25.8343  -47.0462 H         1 UNK         0.0600 
    204 H204        2.3494  -27.2733  -46.9447 H         1 UNK         0.0600 
    205 H205       -1.7605  -26.9061  -47.7899 H         1 UNK         0.3000 
    206 H206       -2.6773  -27.1216  -49.7707 H         1 UNK         0.0600 
    207 H207       -2.8100  -29.5727  -49.2599 H         1 UNK         0.0600 
    208 H208       -2.6754  -29.2551  -50.9813 H         1 UNK         0.0600 
    209 H209       -1.2735  -29.8247  -50.0884 H         1 UNK         0.0600 
    210 H210       -0.2705  -25.6601  -49.4870 H         1 UNK         0.3000 
    211 H211        1.2354  -25.9060  -52.0347 H         1 UNK         0.0600 
    212 H212        1.5644  -24.0878  -49.5832 H         1 UNK         0.0600 
    213 H213        2.6159  -24.0986  -50.9954 H         1 UNK         0.0600 
    214 H214        2.5266  -25.5134  -49.9558 H         1 UNK         0.0600 
    215 H215       -0.3649  -25.3675  -53.4970 H         1 UNK         0.3000 
    216 H216       -1.5736  -24.1756  -54.8867 H         1 UNK         0.0600 
    217 H217       -1.5189  -21.7139  -54.9801 H         1 UNK         0.0600 
    218 H218        0.1047  -22.3402  -54.7433 H         1 UNK         0.0600 
    219 H219       -0.7700  -21.6175  -53.3960 H         1 UNK         0.0600 
    220 H220       -2.0618  -22.9812  -51.5960 H         1 UNK         0.3000 
    221 H221       -3.7586  -22.7446  -50.2224 H         1 UNK         0.0600 
    222 H222       -5.2650  -24.7897  -51.9398 H         1 UNK         0.0600 
    223 H223       -4.0632  -25.1951  -50.7163 H         1 UNK         0.0600 
    224 H224       -5.5677  -24.4212  -50.2482 H         1 UNK         0.0600 
    225 H225       -3.8636  -21.1728  -52.9075 H         1 UNK         0.3000 
    226 H226       -6.6247  -20.2077  -53.0122 H         1 UNK         0.0600 
    227 H227       -5.6702  -18.6671  -54.7255 H         1 UNK         0.0600 
    228 H228       -4.0455  -19.2372  -54.3611 H         1 UNK         0.0600 
    229 H229       -5.2326  -20.3343  -55.0644 H         1 UNK         0.0600 
    230 H230       -6.3918  -19.9257  -50.5748 H         1 UNK         0.3000 
    231 H231       -4.7036  -18.2748  -49.2574 H         1 UNK         0.0600 
    232 H232       -6.1689  -19.9376  -48.1854 H         1 UNK         0.0600 
    233 H233       -7.5925  -18.9464  -48.5102 H         1 UNK         0.0600 
    234 H234       -6.3585  -18.3882  -47.3849 H         1 UNK         0.0600 
    235 H235       -7.0196  -16.9919  -51.3253 H         1 UNK         0.3000 
    236 H236       -7.5234  -14.3940  -50.2573 H         1 UNK         0.0600 
    237 H237       -8.7733  -15.3480  -52.1825 H         1 UNK         0.0600 
    238 H238       -7.9882  -13.8515  -52.6594 H         1 UNK         0.0600 
    239 H239       -7.2977  -15.3943  -53.1492 H         1 UNK         0.0600 
    240 H240       -4.5796  -15.8455  -51.4255 H         1 UNK         0.3000 
    241 H241       -3.0588  -13.5235  -52.0095 H         1 UNK         0.0600 
    242 H242       -3.3367  -13.4061  -47.9378 H         1 UNK         0.3800 
    243 H243       -4.2431  -14.6164  -48.8170 H         1 UNK         0.3800 
    244 H244       -1.0637  -14.9346  -51.4641 H         1 UNK         0.0800 
    245 H245       -2.1584  -15.6667  -52.5962 H         1 UNK         0.0800 
    246 H246       -2.4171  -19.0795  -51.3121 H         1 UNK         0.0800 
    247 H247       -2.2917  -17.9581  -52.6375 H         1 UNK         0.0800 
@<TRIPOS>BOND
     1    1    2 1    
     2    1  127 1    
     3    1  128 1    
     4    1  129 1    
     5    2    3 2    
     6    2    4 am   BACKBONE|DICT|INTERRES
     7    4    5 1    
     8    4  130 1    
     9    5    6 1    
    10    5   65 1    
    11    5  131 1    
    12    6    7 1    
    13    6  132 1    
    14    6  133 1    
    15    7    8 1    
    16    8    9 1    
    17    8  134 1    
    18    8  135 1    
    19    9   10 ar   
    20    9   14 ar   
    21   10   11 ar   
    22   10  136 1    
    23   11   12 ar   
    24   11  126 1    
    25   12   13 ar   
    26   12  137 1    
    27   13   14 ar   
    28   13   15 1    
    29   14  138 1    
    30   15   16 1    
    31   15  139 1    
    32   15  140 1    
    33   16   17 1    
    34   17   18 1    
    35   17  141 1    
    36   17  142 1    
    37   18   19 1    
    38   18   67 1    
    39   18  143 1    
    40   19   20 am   BACKBONE|DICT|INTERRES
    41   19  144 1    
    42   20   21 2    
    43   20   22 1    
    44   22   23 1    
    45   22   24 1    
    46   22  145 1    
    47   23  146 1    
    48   23  147 1    
    49   23  148 1    
    50   24   25 am   BACKBONE|DICT|INTERRES
    51   24  149 1    
    52   25   26 2    
    53   25   27 1    
    54   27   28 1    
    55   27   29 1    
    56   27  150 1    
    57   28  151 1    
    58   28  152 1    
    59   28  153 1    
    60   29   30 am   BACKBONE|DICT|INTERRES
    61   29  154 1    
    62   30   31 2    
    63   30   32 1    
    64   32   33 1    
    65   32   34 1    
    66   32  155 1    
    67   33  156 1    
    68   33  157 1    
    69   33  158 1    
    70   34   35 am   BACKBONE|DICT|INTERRES
    71   34  159 1    
    72   35   36 2    
    73   35   37 1    
    74   37   38 1    
    75   37   39 1    
    76   37  160 1    
    77   38  161 1    
    78   38  162 1    
    79   38  163 1    
    80   39   40 am   BACKBONE|DICT|INTERRES
    81   39  164 1    
    82   40   41 2    
    83   40   42 1    
    84   42   43 1    
    85   42   44 1    
    86   42  165 1    
    87   43  166 1    
    88   43  167 1    
    89   43  168 1    
    90   44   45 am   BACKBONE|DICT|INTERRES
    91   44  169 1    
    92   45   46 2    
    93   45   47 1    
    94   47   48 1    
    95   47   49 1    
    96   47  170 1    
    97   48  171 1    
    98   48  172 1    
    99   48  173 1    
   100   49   50 am   BACKBONE|DICT|INTERRES
   101   49  174 1    
   102   50   51 2    
   103   50   52 1    
   104   52   53 1    
   105   52   54 1    
   106   52  175 1    
   107   53  176 1    
   108   53  177 1    
   109   53  178 1    
   110   54   55 am   BACKBONE|DICT|INTERRES
   111   54  179 1    
   112   55   56 2    
   113   55   57 1    
   114   57   58 1    
   115   57   59 1    
   116   57  180 1    
   117   58  181 1    
   118   58  182 1    
   119   58  183 1    
   120   59   60 am   BACKBONE|DICT|INTERRES
   121   59  184 1    
   122   60   61 2    
   123   60   62 1    
   124   62   63 1    
   125   62   64 1    
   126   62  185 1    
   127   63  186 1    
   128   63  187 1    
   129   63  188 1    
   130   64   65 am   BACKBONE|DICT|INTERRES
   131   64  189 1    
   132   65   66 2    
   133   67   68 2    
   134   67   69 am   BACKBONE|DICT|INTERRES
   135   69   70 1    
   136   69  190 1    
   137   70   71 1    
   138   70   72 1    
   139   70  191 1    
   140   71  192 1    
   141   71  193 1    
   142   71  194 1    
   143   72   73 2    
   144   72   74 am   BACKBONE|DICT|INTERRES
   145   74   75 1    
   146   74  195 1    
   147   75   76 1    
   148   75   77 1    
   149   75  196 1    
   150   76  197 1    
   151   76  198 1    
   152   76  199 1    
   153   77   78 2    
   154   77   79 am   BACKBONE|DICT|INTERRES
   155   79   80 1    
   156   79  200 1    
   157   80   81 1    
   158   80   82 1    
   159   80  201 1    
   160   81  202 1    
   161   81  203 1    
   162   81  204 1    
   163   82   83 2    
   164   82   84 am   BACKBONE|DICT|INTERRES
   165   84   85 1    
   166   84  205 1    
   167   85   86 1    
   168   85   87 1    
   169   85  206 1    
   170   86  207 1    
   171   86  208 1    
   172   86  209 1    
   173   87   88 2    
   174   87   89 am   BACKBONE|DICT|INTERRES
   175   89   90 1    
   176   89  210 1    
   177   90   91 1    
   178   90   92 1    
   179   90  211 1    
   180   91  212 1    
   181   91  213 1    
   182   91  214 1    
   183   92   93 2    
   184   92   94 am   BACKBONE|DICT|INTERRES
   185   94   95 1    
   186   94  215 1    
   187   95   96 1    
   188   95   97 1    
   189   95  216 1    
   190   96  217 1    
   191   96  218 1    
   192   96  219 1    
   193   97   98 2    
   194   97   99 am   BACKBONE|DICT|INTERRES
   195   99  100 1    
   196   99  220 1    
   197  100  101 1    
   198  100  102 1    
   199  100  221 1    
   200  101  222 1    
   201  101  223 1    
   202  101  224 1    
   203  102  103 2    
   204  102  104 am   BACKBONE|DICT|INTERRES
   205  104  105 1    
   206  104  225 1    
   207  105  106 1    
   208  105  107 1    
   209  105  226 1    
   210  106  227 1    
   211  106  228 1    
   212  106  229 1    
   213  107  108 2    
   214  107  109 am   BACKBONE|DICT|INTERRES
   215  109  110 1    
   216  109  230 1    
   217  110  111 1    
   218  110  112 1    
   219  110  231 1    
   220  111  232 1    
   221  111  233 1    
   222  111  234 1    
   223  112  113 2    
   224  112  114 am   BACKBONE|DICT|INTERRES
   225  114  115 1    
   226  114  235 1    
   227  115  116 1    
   228  115  117 1    
   229  115  236 1    
   230  116  237 1    
   231  116  238 1    
   232  116  239 1    
   233  117  118 2    
   234  117  119 am   BACKBONE|DICT|INTERRES
   235  119  120 1    
   236  119  240 1    
   237  120  121 1    
   238  120  124 1    
   239  120  241 1    
   240  121  122 am   BACKBONE|DICT|INTERRES
   241  121  123 2    
   242  122  242 1    
   243  122  243 1    
   244  124  125 1    
   245  124  244 1    
   246  124  245 1    
   247  125  126 1    
   248  126  246 1    
   249  126  247 1    
@<TRIPOS>SUBSTRUCTURE
     1 UNK         1 GROUP             0       ****    0 ROOT    
