@<TRIPOS>MOLECULE
3R540
247   249    1
SMALL
USER_CHARGES


@<TRIPOS>ATOM
      1 CA          3.9187  -16.6276  -51.9900 C.3       0 UNK        -0.1800 
      2 C           3.1457  -16.1219  -50.7818 C.2       0 UNK         0.5000 
      3 O           3.6412  -16.2092  -49.6566 O.2       0 UNK        -0.5000 
      4 N           1.9401  -15.5786  -51.0068 N.am      1 UNK        -0.5000 
      5 CA          1.0177  -15.0991  -49.9676 C.3       1 UNK         0.1400 
      6 C6         -0.3413  -14.6202  -50.5290 C.3       23 UNK        -0.0398 
      7 S7         -1.2081  -15.8424  -51.5759 S.3       23 UNK        -0.2404 
      8 C8         -1.7361  -17.1191  -50.3785 C.3       23 UNK        -0.0205 
      9 C9         -2.8381  -16.7391  -49.3847 C.ar      23 UNK        -0.0193 
     10 C10        -3.4505  -15.4785  -49.3385 C.ar      23 UNK        -0.1150 
     11 C11        -4.4302  -15.1931  -48.3820 C.ar      23 UNK        -0.0193 
     12 C12        -4.8244  -16.1864  -47.4821 C.ar      23 UNK        -0.1150 
     13 C13        -4.2437  -17.4547  -47.5298 C.ar      23 UNK        -0.0193 
     14 C14        -3.2555  -17.7202  -48.4814 C.ar      23 UNK        -0.1150 
     15 C15        -4.6942  -18.5461  -46.5696 C.3       23 UNK        -0.0205 
     16 S16        -3.8914  -18.4586  -44.9283 S.3       23 UNK        -0.2404 
     17 C17        -2.0980  -18.3837  -45.3024 C.3       23 UNK        -0.0398 
     18 CA         -1.3279  -19.6938  -45.6517 C.3       11 UNK         0.1400 
     19 N          -0.4681  -20.1660  -44.5656 N.am      11 UNK        -0.5000 
     20 C           0.5350  -21.0412  -44.7276 C.2       10 UNK         0.5000 
     21 O           0.8524  -21.5245  -45.8145 O.2       10 UNK        -0.5000 
     22 CA          1.2708  -21.4988  -43.4586 C.3       10 UNK         0.1400 
     23 CB          2.3235  -20.4704  -43.0188 C.3       10 UNK        -0.1800 
     24 N           0.3428  -21.7656  -42.3609 N.am      10 UNK        -0.5000 
     25 C          -0.5262  -22.7863  -42.3408 C.2       9 UNK         0.5000 
     26 O          -0.6079  -23.6346  -43.2294 O.2       9 UNK        -0.5000 
     27 CA         -1.4908  -22.8438  -41.1425 C.3       9 UNK         0.1400 
     28 CB         -0.8182  -23.5152  -39.9359 C.3       9 UNK        -0.1800 
     29 N          -1.9781  -21.5195  -40.7530 N.am      9 UNK        -0.5000 
     30 C          -2.7852  -20.7613  -41.5086 C.2       8 UNK         0.5000 
     31 O          -3.2300  -21.1161  -42.5985 O.2       8 UNK        -0.5000 
     32 CA         -3.1111  -19.3538  -40.9761 C.3       8 UNK         0.1400 
     33 CB         -4.3147  -19.3998  -40.0234 C.3       8 UNK        -0.1800 
     34 N          -1.9768  -18.7138  -40.3016 N.am      8 UNK        -0.5000 
     35 C          -0.8270  -18.3959  -40.9092 C.2       7 UNK         0.5000 
     36 O          -0.5904  -18.6494  -42.0907 O.2       7 UNK        -0.5000 
     37 CA          0.2506  -17.7259  -40.0509 C.3       7 UNK         0.1400 
     38 CB          1.2075  -18.7718  -39.4539 C.3       7 UNK        -0.1800 
     39 N           0.9955  -16.7861  -40.8823 N.am      7 UNK        -0.5000 
     40 C           1.5533  -15.6511  -40.4415 C.2       6 UNK         0.5000 
     41 O           1.5755  -15.3238  -39.2538 O.2       6 UNK        -0.5000 
     42 CA          2.1837  -14.7050  -41.4865 C.3       6 UNK         0.1400 
     43 CB          3.7066  -14.8995  -41.5328 C.3       6 UNK        -0.1800 
     44 N           1.6477  -14.8579  -42.8403 N.am      6 UNK        -0.5000 
     45 C           0.3766  -14.6394  -43.2079 C.2       5 UNK         0.5000 
     46 O          -0.4815  -14.2057  -42.4380 O.2       5 UNK        -0.5000 
     47 CA         -0.0199  -14.9646  -44.6662 C.3       5 UNK         0.1400 
     48 CB         -0.5445  -13.7115  -45.3849 C.3       5 UNK        -0.1800 
     49 N           1.0364  -15.5874  -45.4765 N.am      5 UNK        -0.5000 
     50 C           1.5366  -16.8135  -45.2633 C.2       4 UNK         0.5000 
     51 O           1.1737  -17.5305  -44.3354 O.2       4 UNK        -0.5000 
     52 CA          2.6468  -17.3232  -46.1990 C.3       4 UNK         0.1400 
     53 CB          2.0532  -18.1635  -47.3360 C.3       4 UNK        -0.1800 
     54 N           3.5026  -16.2759  -46.7579 N.am      4 UNK        -0.5000 
     55 C           4.3578  -15.5364  -46.0362 C.2       3 UNK         0.5000 
     56 O           4.4162  -15.5666  -44.8067 O.2       3 UNK        -0.5000 
     57 CA          5.3138  -14.6204  -46.8172 C.3       3 UNK         0.1400 
     58 CB          6.4541  -15.4376  -47.4451 C.3       3 UNK        -0.1800 
     59 N           4.6009  -13.9025  -47.8694 N.am      3 UNK        -0.5000 
     60 C           4.1249  -12.6563  -47.7470 C.2       2 UNK         0.5000 
     61 O           4.3332  -11.9337  -46.7715 O.2       2 UNK        -0.5000 
     62 CA          3.2474  -12.1279  -48.9007 C.3       2 UNK         0.1400 
     63 CB          4.0980  -11.3339  -49.9037 C.3       2 UNK        -0.1800 
     64 N           2.5191  -13.1773  -49.6189 N.am      2 UNK        -0.5000 
     65 C           1.6196  -14.0036  -49.0656 C.2       1 UNK         0.5000 
     66 O           1.2913  -13.9585  -47.8821 O.2       1 UNK        -0.5000 
     67 C          -2.1648  -20.8453  -46.2431 C.2       11 UNK         0.5000 
     68 O          -2.2389  -20.9593  -47.4650 O.2       11 UNK        -0.5000 
     69 N          -2.7230  -21.7133  -45.3862 N.am      12 UNK        -0.5000 
     70 CA         -3.4523  -22.9152  -45.7912 C.3       12 UNK         0.1400 
     71 CB         -4.0699  -23.5948  -44.5608 C.3       12 UNK        -0.1800 
     72 C          -2.5753  -23.9021  -46.5818 C.2       12 UNK         0.5000 
     73 O          -3.0162  -24.4014  -47.6164 O.2       12 UNK        -0.5000 
     74 N          -1.3387  -24.1254  -46.1140 N.am      13 UNK        -0.5000 
     75 CA         -0.3402  -24.9600  -46.7845 C.3       13 UNK         0.1400 
     76 CB          0.8727  -25.1535  -45.8619 C.3       13 UNK        -0.1800 
     77 C           0.0953  -24.4029  -48.1538 C.2       13 UNK         0.5000 
     78 O           0.2726  -25.1809  -49.0910 O.2       13 UNK        -0.5000 
     79 N           0.2410  -23.0739  -48.2524 N.am      14 UNK        -0.5000 
     80 CA          0.5427  -22.3680  -49.4991 C.3       14 UNK         0.1400 
     81 CB          0.9848  -20.9327  -49.1819 C.3       14 UNK        -0.1800 
     82 C          -0.6407  -22.3584  -50.4826 C.2       14 UNK         0.5000 
     83 O          -0.4224  -22.3972  -51.6930 O.2       14 UNK        -0.5000 
     84 N          -1.8694  -22.2915  -49.9561 N.am      15 UNK        -0.5000 
     85 CA         -3.1032  -22.3182  -50.7317 C.3       15 UNK         0.1400 
     86 CB         -4.2746  -21.8356  -49.8645 C.3       15 UNK        -0.1800 
     87 C          -3.3945  -23.7020  -51.3335 C.2       15 UNK         0.5000 
     88 O          -3.6717  -23.7839  -52.5323 O.2       15 UNK        -0.5000 
     89 N          -3.3375  -24.7412  -50.4877 N.am      16 UNK        -0.5000 
     90 CA         -3.6956  -26.1319  -50.7762 C.3       16 UNK         0.1400 
     91 CB         -3.4186  -26.9918  -49.5316 C.3       16 UNK        -0.1800 
     92 C          -2.9905  -26.7116  -52.0167 C.2       16 UNK         0.5000 
     93 O          -1.8056  -27.0435  -51.9510 O.2       16 UNK        -0.5000 
     94 N          -3.7470  -26.8065  -53.1208 N.am      17 UNK        -0.5000 
     95 CA         -3.3400  -27.3007  -54.4420 C.3       17 UNK         0.1400 
     96 CB         -3.0524  -28.8161  -54.3874 C.3       17 UNK        -0.1800 
     97 C          -2.1863  -26.4952  -55.0811 C.2       17 UNK         0.5000 
     98 O          -1.4190  -27.0475  -55.8726 O.2       17 UNK        -0.5000 
     99 N          -2.0829  -25.2074  -54.7315 N.am      18 UNK        -0.5000 
    100 CA        -1.0262  -24.3087  -55.1770 C.3       18 UNK         0.1400 
    101 CB         0.1689  -24.3848  -54.2082 C.3       18 UNK        -0.1800 
    102 C         -1.6082  -22.9045  -55.3916 C.2       18 UNK         0.5000 
    103 O         -2.1895  -22.6667  -56.4516 O.2       18 UNK        -0.5000 
    104 N         -1.4470  -21.9935  -54.4200 N.am      19 UNK        -0.5000 
    105 CA        -1.8409  -20.5854  -54.5550 C.3       19 UNK         0.1400 
    106 CB        -1.1795  -19.7543  -53.4423 C.3       19 UNK        -0.1800 
    107 C         -3.3645  -20.3463  -54.5750 C.2       19 UNK         0.5000 
    108 O         -3.7935  -19.3015  -55.0627 O.2       19 UNK        -0.5000 
    109 N         -4.1453  -21.2938  -54.0306 N.am      20 UNK        -0.5000 
    110 CA        -5.6126  -21.3034  -53.9191 C.3       20 UNK         0.1400 
    111 CB        -6.2662  -21.3245  -55.3162 C.3       20 UNK        -0.1800 
    112 C         -6.2086  -20.2028  -53.0091 C.2       20 UNK         0.5000 
    113 O         -7.4284  -20.0295  -52.9962 O.2       20 UNK        -0.5000 
    114 N         -5.3455  -19.5142  -52.2469 N.am      21 UNK        -0.5000 
    115 CA        -5.6115  -18.3788  -51.3567 C.3       21 UNK         0.1400 
    116 CB        -6.5989  -18.7620  -50.2326 C.3       21 UNK        -0.1800 
    117 C         -6.0462  -17.0964  -52.0984 C.2       21 UNK         0.5000 
    118 O         -6.2202  -17.0936  -53.3190 O.2       21 UNK        -0.5000 
    119 N         -6.1910  -16.0076  -51.3354 N.am      22 UNK        -0.5000 
    120 CA        -6.6286  -14.6896  -51.8229 C.3       22 UNK         0.1400 
    121 C         -8.1545  -14.5642  -52.1182 C.2       22 UNK         0.5000 
    122 N         -8.9845  -15.5457  -51.7856 N.am      22 UNK        -0.7600 
    123 O         -8.5921  -13.5606  -52.6748 O.2       22 UNK        -0.5000 
    124 C124       -6.1149  -13.5459  -50.9105 C.3       23 UNK        -0.0398 
    125 S125       -6.6387  -13.6928  -49.1634 S.3       23 UNK        -0.2404 
    126 C126       -5.0435  -13.8035  -48.2933 C.3       23 UNK        -0.0205 
    127 H127        4.8703  -16.1026  -52.0719 H         1 UNK         0.0600 
    128 H128        3.3650  -16.4786  -52.9172 H         1 UNK         0.0600 
    129 H129        4.1235  -17.6927  -51.8825 H         1 UNK         0.0600 
    130 H130        1.5843  -15.5390  -51.9517 H         1 UNK         0.3000 
    131 H131        0.8202  -15.9484  -49.3152 H         1 UNK         0.0600 
    132 H132       -0.9952  -14.3254  -49.7081 H         1 UNK         0.0800 
    133 H133       -0.2013  -13.7218  -51.1328 H         1 UNK         0.0800 
    134 H134       -0.8642  -17.4712  -49.8265 H         1 UNK         0.0800 
    135 H135       -2.0864  -17.9755  -50.9557 H         1 UNK         0.0800 
    136 H136       -3.1709  -14.7055  -50.0369 H         1 UNK         0.1150 
    137 H137       -5.5832  -15.9718  -46.7425 H         1 UNK         0.1150 
    138 H138       -2.8044  -18.7011  -48.5206 H         1 UNK         0.1150 
    139 H139       -5.7730  -18.4719  -46.4259 H         1 UNK         0.0800 
    140 H140       -4.5313  -19.5280  -47.0136 H         1 UNK         0.0800 
    141 H141       -1.6280  -17.9102  -44.4405 H         1 UNK         0.0800 
    142 H142       -1.9493  -17.6586  -46.1014 H         1 UNK         0.0800 
    143 H143       -0.6412  -19.4109  -46.4512 H         1 UNK         0.0600 
    144 H144       -0.6168  -19.7527  -43.6485 H         1 UNK         0.3000 
    145 H145        1.7911  -22.4291  -43.6966 H         1 UNK         0.0600 
    146 H146        2.9128  -20.8431  -42.1811 H         1 UNK         0.0600 
    147 H147        3.0156  -20.2490  -43.8322 H         1 UNK         0.0600 
    148 H148        1.8683  -19.5285  -42.7145 H         1 UNK         0.0600 
    149 H149        0.3046  -21.0808  -41.6216 H         1 UNK         0.3000 
    150 H150       -2.3503  -23.4504  -41.4355 H         1 UNK         0.0600 
    151 H151       -0.4584  -24.5118  -40.1952 H         1 UNK         0.0600 
    152 H152       -1.5179  -23.6291  -39.1077 H         1 UNK         0.0600 
    153 H153        0.0366  -22.9404  -39.5773 H         1 UNK         0.0600 
    154 H154       -1.6586  -21.1530  -39.8687 H         1 UNK         0.3000 
    155 H155       -3.3806  -18.7342  -41.8341 H         1 UNK         0.0600 
    156 H156       -4.0980  -19.9812  -39.1263 H         1 UNK         0.0600 
    157 H157       -4.6098  -18.3976  -39.7121 H         1 UNK         0.0600 
    158 H158       -5.1787  -19.8551  -40.5094 H         1 UNK         0.0600 
    159 H159       -2.1005  -18.4871  -39.3252 H         1 UNK         0.3000 
    160 H160       -0.2458  -17.1857  -39.2418 H         1 UNK         0.0600 
    161 H161        1.7385  -19.3222  -40.2308 H         1 UNK         0.0600 
    162 H162        0.6666  -19.4977  -38.8457 H         1 UNK         0.0600 
    163 H163        1.9522  -18.3019  -38.8113 H         1 UNK         0.0600 
    164 H164        0.9768  -16.9878  -41.8766 H         1 UNK         0.3000 
    165 H165        1.9789  -13.6822  -41.1641 H         1 UNK         0.0600 
    166 H166        4.1769  -14.1775  -42.2009 H         1 UNK         0.0600 
    167 H167        4.1503  -14.7651  -40.5455 H         1 UNK         0.0600 
    168 H168        3.9720  -15.8989  -41.8804 H         1 UNK         0.0600 
    169 H169        2.2878  -15.2150  -43.5370 H         1 UNK         0.3000 
    170 H170       -0.8465  -15.6736  -44.6048 H         1 UNK         0.0600 
    171 H171       -1.3489  -13.2376  -44.8209 H         1 UNK         0.0600 
    172 H172        0.2430  -12.9696  -45.5215 H         1 UNK         0.0600 
    173 H173       -0.9486  -13.9618  -46.3660 H         1 UNK         0.0600 
    174 H174        1.3693  -15.0457  -46.2694 H         1 UNK         0.3000 
    175 H175        3.2889  -17.9793  -45.6072 H         1 UNK         0.0600 
    176 H176        1.2884  -17.6211  -47.8891 H         1 UNK         0.0600 
    177 H177        2.8207  -18.4825  -48.0415 H         1 UNK         0.0600 
    178 H178        1.5917  -19.0648  -46.9357 H         1 UNK         0.0600 
    179 H179        3.5288  -16.2082  -47.7717 H         1 UNK         0.3000 
    180 H180        5.7580  -13.9164  -46.1102 H         1 UNK         0.0600 
    181 H181        6.0832  -16.1614  -48.1721 H         1 UNK         0.0600 
    182 H182        7.0042  -15.9898  -46.6821 H         1 UNK         0.0600 
    183 H183        7.1669  -14.7889  -47.9543 H         1 UNK         0.0600 
    184 H184        4.3486  -14.4406  -48.6895 H         1 UNK         0.3000 
    185 H185        2.5089  -11.4516  -48.4654 H         1 UNK         0.0600 
    186 H186        4.6359  -10.5257  -49.4062 H         1 UNK         0.0600 
    187 H187        4.8380  -11.9680  -50.3937 H         1 UNK         0.0600 
    188 H188        3.4773  -10.8810  -50.6770 H         1 UNK         0.0600 
    189 H189        2.7448  -13.2996  -50.5954 H         1 UNK         0.3000 
    190 H190       -2.6747  -21.5238  -44.3885 H         1 UNK         0.3000 
    191 H191       -4.2671  -22.5995  -46.4457 H         1 UNK         0.0600 
    192 H192       -3.3089  -23.8901  -43.8382 H         1 UNK         0.0600 
    193 H193       -4.6206  -24.4923  -44.8449 H         1 UNK         0.0600 
    194 H194       -4.7707  -22.9302  -44.0554 H         1 UNK         0.0600 
    195 H195       -1.0622  -23.7029  -45.2338 H         1 UNK         0.3000 
    196 H196       -0.7918  -25.9390  -46.9576 H         1 UNK         0.0600 
    197 H197        1.6222  -25.7923  -46.3306 H         1 UNK         0.0600 
    198 H198        0.5823  -25.6268  -44.9238 H         1 UNK         0.0600 
    199 H199        1.3528  -24.2046  -45.6224 H         1 UNK         0.0600 
    200 H200        0.1440  -22.5068  -47.4158 H         1 UNK         0.3000 
    201 H201        1.3747  -22.8783  -49.9886 H         1 UNK         0.0600 
    202 H202        1.8704  -20.9302  -48.5467 H         1 UNK         0.0600 
    203 H203        0.2008  -20.3738  -48.6703 H         1 UNK         0.0600 
    204 H204        1.2354  -20.3880  -50.0932 H         1 UNK         0.0600 
    205 H205       -1.9632  -22.1618  -48.9530 H         1 UNK         0.3000 
    206 H206       -2.9947  -21.6140  -51.5553 H         1 UNK         0.0600 
    207 H207       -5.2120  -21.8623  -50.4209 H         1 UNK         0.0600 
    208 H208       -4.4041  -22.4539  -48.9765 H         1 UNK         0.0600 
    209 H209       -4.1186  -20.8087  -49.5340 H         1 UNK         0.0600 
    210 H210       -3.0917  -24.5507  -49.5193 H         1 UNK         0.3000 
    211 H211       -4.7724  -26.1541  -50.9542 H         1 UNK         0.0600 
    212 H212       -2.3772  -26.9154  -49.2155 H         1 UNK         0.0600 
    213 H213       -3.6291  -28.0444  -49.7252 H         1 UNK         0.0600 
    214 H214       -4.0455  -26.6861  -48.6940 H         1 UNK         0.0600 
    215 H215       -4.6952  -26.4608  -53.0697 H         1 UNK         0.3000 
    216 H216       -4.2003  -27.1552  -55.0967 H         1 UNK         0.0600 
    217 H217       -2.8961  -29.2228  -55.3872 H         1 UNK         0.0600 
    218 H218       -3.8871  -29.3604  -53.9457 H         1 UNK         0.0600 
    219 H219       -2.1598  -29.0375  -53.8015 H         1 UNK         0.0600 
    220 H220       -2.7541  -24.8185  -54.0764 H         1 UNK         0.3000 
    221 H221       -0.6675  -24.6213  -56.1601 H         1 UNK         0.0600 
    222 H222       -0.1556  -24.3916  -53.1690 H         1 UNK         0.0600 
    223 H223        0.7321  -25.3040  -54.3694 H         1 UNK         0.0600 
    224 H224        0.8619  -23.5543  -54.3486 H         1 UNK         0.0600 
    225 H225       -0.9833  -22.2563  -53.5532 H         1 UNK         0.3000 
    226 H226       -1.4508  -20.2245  -55.5091 H         1 UNK         0.0600 
    227 H227       -0.0967  -19.8805  -53.4453 H         1 UNK         0.0600 
    228 H228       -1.3811  -18.6907  -53.5768 H         1 UNK         0.0600 
    229 H229       -1.5439  -20.0302  -52.4538 H         1 UNK         0.0600 
    230 H230       -3.6942  -22.1283  -53.6702 H         1 UNK         0.3000 
    231 H231       -5.8612  -22.2479  -53.4333 H         1 UNK         0.0600 
    232 H232       -7.3391  -21.5059  -55.2449 H         1 UNK         0.0600 
    233 H233       -5.8454  -22.1163  -55.9361 H         1 UNK         0.0600 
    234 H234       -6.1309  -20.3785  -55.8409 H         1 UNK         0.0600 
    235 H235       -4.3696  -19.7184  -52.3940 H         1 UNK         0.3000 
    236 H236       -4.6530  -18.1539  -50.8940 H         1 UNK         0.0600 
    237 H237       -6.2974  -19.6821  -49.7341 H         1 UNK         0.0600 
    238 H238       -6.6445  -17.9890  -49.4650 H         1 UNK         0.0600 
    239 H239       -7.6116  -18.9038  -50.6101 H         1 UNK         0.0600 
    240 H240       -6.0239  -16.0670  -50.3408 H         1 UNK         0.3000 
    241 H241       -6.1499  -14.5377  -52.7923 H         1 UNK         0.0600 
    242 H242       -9.9677  -15.4545  -51.9878 H         1 UNK         0.3800 
    243 H243       -8.6395  -16.3771  -51.3348 H         1 UNK         0.3800 
    244 H244       -5.0269  -13.5115  -50.9622 H         1 UNK         0.0800 
    245 H245       -6.4456  -12.5762  -51.2863 H         1 UNK         0.0800 
    246 H246       -4.3548  -13.0506  -48.6798 H         1 UNK         0.0800 
    247 H247       -5.2033  -13.5489  -47.2444 H         1 UNK         0.0800 
@<TRIPOS>BOND
     1    1    2 1    
     2    1  127 1    
     3    1  128 1    
     4    1  129 1    
     5    2    3 2    
     6    2    4 am   BACKBONE|DICT|INTERRES
     7    4    5 1    
     8    4  130 1    
     9    5    6 1    
    10    5   65 1    
    11    5  131 1    
    12    6    7 1    
    13    6  132 1    
    14    6  133 1    
    15    7    8 1    
    16    8    9 1    
    17    8  134 1    
    18    8  135 1    
    19    9   10 ar   
    20    9   14 ar   
    21   10   11 ar   
    22   10  136 1    
    23   11   12 ar   
    24   11  126 1    
    25   12   13 ar   
    26   12  137 1    
    27   13   14 ar   
    28   13   15 1    
    29   14  138 1    
    30   15   16 1    
    31   15  139 1    
    32   15  140 1    
    33   16   17 1    
    34   17   18 1    
    35   17  141 1    
    36   17  142 1    
    37   18   19 1    
    38   18   67 1    
    39   18  143 1    
    40   19   20 am   BACKBONE|DICT|INTERRES
    41   19  144 1    
    42   20   21 2    
    43   20   22 1    
    44   22   23 1    
    45   22   24 1    
    46   22  145 1    
    47   23  146 1    
    48   23  147 1    
    49   23  148 1    
    50   24   25 am   BACKBONE|DICT|INTERRES
    51   24  149 1    
    52   25   26 2    
    53   25   27 1    
    54   27   28 1    
    55   27   29 1    
    56   27  150 1    
    57   28  151 1    
    58   28  152 1    
    59   28  153 1    
    60   29   30 am   BACKBONE|DICT|INTERRES
    61   29  154 1    
    62   30   31 2    
    63   30   32 1    
    64   32   33 1    
    65   32   34 1    
    66   32  155 1    
    67   33  156 1    
    68   33  157 1    
    69   33  158 1    
    70   34   35 am   BACKBONE|DICT|INTERRES
    71   34  159 1    
    72   35   36 2    
    73   35   37 1    
    74   37   38 1    
    75   37   39 1    
    76   37  160 1    
    77   38  161 1    
    78   38  162 1    
    79   38  163 1    
    80   39   40 am   BACKBONE|DICT|INTERRES
    81   39  164 1    
    82   40   41 2    
    83   40   42 1    
    84   42   43 1    
    85   42   44 1    
    86   42  165 1    
    87   43  166 1    
    88   43  167 1    
    89   43  168 1    
    90   44   45 am   BACKBONE|DICT|INTERRES
    91   44  169 1    
    92   45   46 2    
    93   45   47 1    
    94   47   48 1    
    95   47   49 1    
    96   47  170 1    
    97   48  171 1    
    98   48  172 1    
    99   48  173 1    
   100   49   50 am   BACKBONE|DICT|INTERRES
   101   49  174 1    
   102   50   51 2    
   103   50   52 1    
   104   52   53 1    
   105   52   54 1    
   106   52  175 1    
   107   53  176 1    
   108   53  177 1    
   109   53  178 1    
   110   54   55 am   BACKBONE|DICT|INTERRES
   111   54  179 1    
   112   55   56 2    
   113   55   57 1    
   114   57   58 1    
   115   57   59 1    
   116   57  180 1    
   117   58  181 1    
   118   58  182 1    
   119   58  183 1    
   120   59   60 am   BACKBONE|DICT|INTERRES
   121   59  184 1    
   122   60   61 2    
   123   60   62 1    
   124   62   63 1    
   125   62   64 1    
   126   62  185 1    
   127   63  186 1    
   128   63  187 1    
   129   63  188 1    
   130   64   65 am   BACKBONE|DICT|INTERRES
   131   64  189 1    
   132   65   66 2    
   133   67   68 2    
   134   67   69 am   BACKBONE|DICT|INTERRES
   135   69   70 1    
   136   69  190 1    
   137   70   71 1    
   138   70   72 1    
   139   70  191 1    
   140   71  192 1    
   141   71  193 1    
   142   71  194 1    
   143   72   73 2    
   144   72   74 am   BACKBONE|DICT|INTERRES
   145   74   75 1    
   146   74  195 1    
   147   75   76 1    
   148   75   77 1    
   149   75  196 1    
   150   76  197 1    
   151   76  198 1    
   152   76  199 1    
   153   77   78 2    
   154   77   79 am   BACKBONE|DICT|INTERRES
   155   79   80 1    
   156   79  200 1    
   157   80   81 1    
   158   80   82 1    
   159   80  201 1    
   160   81  202 1    
   161   81  203 1    
   162   81  204 1    
   163   82   83 2    
   164   82   84 am   BACKBONE|DICT|INTERRES
   165   84   85 1    
   166   84  205 1    
   167   85   86 1    
   168   85   87 1    
   169   85  206 1    
   170   86  207 1    
   171   86  208 1    
   172   86  209 1    
   173   87   88 2    
   174   87   89 am   BACKBONE|DICT|INTERRES
   175   89   90 1    
   176   89  210 1    
   177   90   91 1    
   178   90   92 1    
   179   90  211 1    
   180   91  212 1    
   181   91  213 1    
   182   91  214 1    
   183   92   93 2    
   184   92   94 am   BACKBONE|DICT|INTERRES
   185   94   95 1    
   186   94  215 1    
   187   95   96 1    
   188   95   97 1    
   189   95  216 1    
   190   96  217 1    
   191   96  218 1    
   192   96  219 1    
   193   97   98 2    
   194   97   99 am   BACKBONE|DICT|INTERRES
   195   99  100 1    
   196   99  220 1    
   197  100  101 1    
   198  100  102 1    
   199  100  221 1    
   200  101  222 1    
   201  101  223 1    
   202  101  224 1    
   203  102  103 2    
   204  102  104 am   BACKBONE|DICT|INTERRES
   205  104  105 1    
   206  104  225 1    
   207  105  106 1    
   208  105  107 1    
   209  105  226 1    
   210  106  227 1    
   211  106  228 1    
   212  106  229 1    
   213  107  108 2    
   214  107  109 am   BACKBONE|DICT|INTERRES
   215  109  110 1    
   216  109  230 1    
   217  110  111 1    
   218  110  112 1    
   219  110  231 1    
   220  111  232 1    
   221  111  233 1    
   222  111  234 1    
   223  112  113 2    
   224  112  114 am   BACKBONE|DICT|INTERRES
   225  114  115 1    
   226  114  235 1    
   227  115  116 1    
   228  115  117 1    
   229  115  236 1    
   230  116  237 1    
   231  116  238 1    
   232  116  239 1    
   233  117  118 2    
   234  117  119 am   BACKBONE|DICT|INTERRES
   235  119  120 1    
   236  119  240 1    
   237  120  121 1    
   238  120  124 1    
   239  120  241 1    
   240  121  122 am   BACKBONE|DICT|INTERRES
   241  121  123 2    
   242  122  242 1    
   243  122  243 1    
   244  124  125 1    
   245  124  244 1    
   246  124  245 1    
   247  125  126 1    
   248  126  246 1    
   249  126  247 1    
@<TRIPOS>SUBSTRUCTURE
     1 UNK         1 GROUP             0       ****    0 ROOT    
