@<TRIPOS>MOLECULE
3R540
247   249    1
SMALL
USER_CHARGES


@<TRIPOS>ATOM
      1 CA         -3.4715  -16.7940  -42.0516 C.3       0 UNK        -0.1800 
      2 C          -4.1133  -15.9663  -43.1536 C.2       0 UNK         0.5000 
      3 O          -5.0603  -15.2234  -42.8951 O.2       0 UNK        -0.5000 
      4 N          -3.5794  -16.0631  -44.3785 N.am      1 UNK        -0.5000 
      5 CA         -3.9702  -15.2721  -45.5509 C.3       1 UNK         0.1400 
      6 C6         -3.5515  -15.9910  -46.8589 C.3       23 UNK        -0.0398 
      7 S7         -4.3868  -15.3124  -48.3331 S.3       23 UNK        -0.2404 
      8 C8         -2.9850  -14.6301  -49.2747 C.3       23 UNK        -0.0205 
      9 C9         -2.3167  -15.6886  -50.1396 C.ar      23 UNK        -0.0193 
     10 C10        -2.7690  -15.9091  -51.4440 C.ar      23 UNK        -0.1150 
     11 C11        -2.1533  -16.8638  -52.2576 C.ar      23 UNK        -0.0193 
     12 C12        -1.0773  -17.6013  -51.7561 C.ar      23 UNK        -0.1150 
     13 C13        -0.6311  -17.4104  -50.4461 C.ar      23 UNK        -0.0193 
     14 C14        -1.2457  -16.4410  -49.6471 C.ar      23 UNK        -0.1150 
     15 C15         0.5075  -18.2599  -49.8961 C.3       23 UNK        -0.0205 
     16 S16         0.0413  -20.0152  -49.7212 S.3       23 UNK        -0.2404 
     17 C17        -1.4129  -19.9004  -48.6281 C.3       23 UNK        -0.0398 
     18 CA         -1.6453  -21.1967  -47.8158 C.3       11 UNK         0.1400 
     19 N          -0.6578  -21.3887  -46.7471 N.am      11 UNK        -0.5000 
     20 C          -0.5870  -22.4705  -45.9561 C.2       10 UNK         0.5000 
     21 O          -1.3239  -23.4488  -46.0698 O.2       10 UNK        -0.5000 
     22 CA          0.4336  -22.4354  -44.8048 C.3       10 UNK         0.1400 
     23 CB          1.8522  -22.7253  -45.3164 C.3       10 UNK        -0.1800 
     24 N           0.4124  -21.1717  -44.0655 N.am      10 UNK        -0.5000 
     25 C          -0.6464  -20.7044  -43.3875 C.2       9 UNK         0.5000 
     26 O          -1.7173  -21.3024  -43.2936 O.2       9 UNK        -0.5000 
     27 CA         -0.5105  -19.3097  -42.7539 C.3       9 UNK         0.1400 
     28 CB          0.2506  -19.3637  -41.4215 C.3       9 UNK        -0.1800 
     29 N           0.1377  -18.3657  -43.6620 N.am      9 UNK        -0.5000 
     30 C          -0.4286  -17.8934  -44.7803 C.2       8 UNK         0.5000 
     31 O          -1.6039  -18.0934  -45.0919 O.2       8 UNK        -0.5000 
     32 CA          0.4743  -17.0797  -45.7214 C.3       8 UNK         0.1400 
     33 CB          0.4257  -15.5883  -45.3658 C.3       8 UNK        -0.1800 
     34 N           1.8609  -17.5481  -45.7127 N.am      8 UNK        -0.5000 
     35 C           2.2566  -18.7210  -46.2284 C.2       7 UNK         0.5000 
     36 O           1.4889  -19.5140  -46.7674 O.2       7 UNK        -0.5000 
     37 CA          3.7427  -19.0935  -46.0757 C.3       7 UNK         0.1400 
     38 CB          4.5709  -18.4689  -47.2080 C.3       7 UNK        -0.1800 
     39 N           4.2978  -18.6854  -44.7855 N.am      7 UNK        -0.5000 
     40 C           3.8883  -19.1489  -43.5953 C.2       6 UNK         0.5000 
     41 O           3.0446  -20.0350  -43.4644 O.2       6 UNK        -0.5000 
     42 CA          4.4699  -18.4572  -42.3449 C.3       6 UNK         0.1400 
     43 CB          5.7225  -19.1967  -41.8531 C.3       6 UNK        -0.1800 
     44 N           4.7952  -17.0433  -42.5702 N.am      6 UNK        -0.5000 
     45 C           3.8990  -16.1082  -42.9122 C.2       5 UNK         0.5000 
     46 O           2.6879  -16.3307  -43.0058 O.2       5 UNK        -0.5000 
     47 CA          4.4526  -14.7250  -43.2848 C.3       5 UNK         0.1400 
     48 CB          5.3118  -14.8088  -44.5638 C.3       5 UNK        -0.1800 
     49 N           3.3250  -13.8259  -43.5008 N.am      5 UNK        -0.5000 
     50 C           3.3698  -12.4927  -43.5882 C.2       4 UNK         0.5000 
     51 O           4.4061  -11.8346  -43.4870 O.2       4 UNK        -0.5000 
     52 CA          2.0324  -11.7651  -43.8347 C.3       4 UNK         0.1400 
     53 CB          1.8644  -11.4461  -45.3284 C.3       4 UNK        -0.1800 
     54 N           0.8531  -12.5071  -43.3813 N.am      4 UNK        -0.5000 
     55 C           0.5448  -12.7528  -42.1002 C.2       3 UNK         0.5000 
     56 O           1.2568  -12.4177  -41.1521 O.2       3 UNK        -0.5000 
     57 CA         -0.7878  -13.4927  -41.8519 C.3       3 UNK         0.1400 
     58 CB         -1.2772  -13.3846  -40.3938 C.3       3 UNK        -0.1800 
     59 N          -1.8582  -13.1017  -42.7780 N.am      3 UNK        -0.5000 
     60 C          -2.3683  -11.8767  -42.9899 C.2       2 UNK         0.5000 
     61 O          -1.9628  -10.8601  -42.4255 O.2       2 UNK        -0.5000 
     62 CA         -3.5584  -11.7656  -43.9713 C.3       2 UNK         0.1400 
     63 CB         -3.2963  -10.7318  -45.0860 C.3       2 UNK        -0.1800 
     64 N          -4.0043  -13.0590  -44.5117 N.am      2 UNK        -0.5000 
     65 C          -3.3939  -13.8437  -45.4110 C.2       1 UNK         0.5000 
     66 O          -2.3702  -13.5227  -46.0129 O.2       1 UNK        -0.5000 
     67 C          -3.0905  -21.2386  -47.2831 C.2       11 UNK         0.5000 
     68 O          -3.9338  -21.8932  -47.8961 O.2       11 UNK        -0.5000 
     69 N          -3.3482  -20.5756  -46.1467 N.am      12 UNK        -0.5000 
     70 CA         -4.6515  -20.5830  -45.4826 C.3       12 UNK         0.1400 
     71 CB         -4.6779  -19.5189  -44.3795 C.3       12 UNK        -0.1800 
     72 C          -5.0284  -21.9672  -44.9269 C.2       12 UNK         0.5000 
     73 O          -6.1438  -22.4295  -45.1677 O.2       12 UNK        -0.5000 
     74 N          -4.0859  -22.6179  -44.2303 N.am      13 UNK        -0.5000 
     75 CA         -4.2472  -23.9522  -43.6460 C.3       13 UNK         0.1400 
     76 CB         -3.0170  -24.2861  -42.7888 C.3       13 UNK        -0.1800 
     77 C          -4.4879  -25.0515  -44.6970 C.2       13 UNK         0.5000 
     78 O          -5.3015  -25.9470  -44.4678 O.2       13 UNK        -0.5000 
     79 N          -3.7992  -24.9451  -45.8398 N.am      14 UNK        -0.5000 
     80 CA         -3.9378  -25.8404  -46.9874 C.3       14 UNK         0.1400 
     81 CB         -2.6480  -25.7677  -47.8171 C.3       14 UNK        -0.1800 
     82 C          -5.1569  -25.5229  -47.8756 C.2       14 UNK         0.5000 
     83 O          -5.4069  -26.2703  -48.8203 O.2       14 UNK        -0.5000 
     84 N          -5.8661  -24.4166  -47.6025 N.am      15 UNK        -0.5000 
     85 CA         -6.9926  -23.8799  -48.3757 C.3       15 UNK         0.1400 
     86 CB         -8.2283  -24.7945  -48.2470 C.3       15 UNK        -0.1800 
     87 C          -6.6024  -23.5820  -49.8402 C.2       15 UNK         0.5000 
     88 O          -7.3007  -23.9859  -50.7712 O.2       15 UNK        -0.5000 
     89 N          -5.4563  -22.9054  -49.9966 N.am      16 UNK        -0.5000 
     90 CA         -4.7892  -22.5007  -51.2374 C.3       16 UNK         0.1400 
     91 CB         -5.7022  -21.6193  -52.1141 C.3       16 UNK        -0.1800 
     92 C          -4.1464  -23.6518  -52.0389 C.2       16 UNK         0.5000 
     93 O          -3.5734  -23.3856  -53.0941 O.2       16 UNK        -0.5000 
     94 N          -4.1796  -24.8962  -51.5368 N.am      17 UNK        -0.5000 
     95 CA         -3.5487  -26.0489  -52.1948 C.3       17 UNK         0.1400 
     96 CB         -4.0623  -27.3519  -51.5657 C.3       17 UNK        -0.1800 
     97 C          -2.0062  -26.0030  -52.1648 C.2       17 UNK         0.5000 
     98 O          -1.3652  -26.6034  -53.0277 O.2       17 UNK        -0.5000 
     99 N          -1.4421  -25.2849  -51.1841 N.am      18 UNK        -0.5000 
    100 CA        -0.0029  -25.0670  -51.0224 C.3       18 UNK         0.1400 
    101 CB         0.3069  -24.9083  -49.5237 C.3       18 UNK        -0.1800 
    102 C          0.5200  -23.8474  -51.8087 C.2       18 UNK         0.5000 
    103 O          1.7336  -23.6373  -51.8413 O.2       18 UNK        -0.5000 
    104 N         -0.3798  -23.0475  -52.3987 N.am      19 UNK        -0.5000 
    105 CA        -0.0377  -21.8252  -53.1220 C.3       19 UNK         0.1400 
    106 CB        -1.3059  -20.9864  -53.3277 C.3       19 UNK        -0.1800 
    107 C          0.6245  -22.1118  -54.4798 C.2       19 UNK         0.5000 
    108 O          0.2541  -23.0698  -55.1620 O.2       19 UNK        -0.5000 
    109 N          1.5536  -21.2306  -54.8659 N.am      20 UNK        -0.5000 
    110 CA         2.2037  -21.2206  -56.1791 C.3       20 UNK         0.1400 
    111 CB         3.6523  -20.7365  -55.9993 C.3       20 UNK        -0.1800 
    112 C          1.4578  -20.3328  -57.1989 C.2       20 UNK         0.5000 
    113 O          1.8560  -20.2905  -58.3640 O.2       20 UNK        -0.5000 
    114 N          0.4140  -19.6258  -56.7479 N.am      21 UNK        -0.5000 
    115 CA        -0.3863  -18.6900  -57.5298 C.3       21 UNK         0.1400 
    116 CB         0.1533  -17.2592  -57.3176 C.3       21 UNK        -0.1800 
    117 C         -1.8725  -18.8783  -57.1727 C.2       21 UNK         0.5000 
    118 O         -2.3700  -20.0005  -57.2720 O.2       21 UNK        -0.5000 
    119 N         -2.5503  -17.7891  -56.7846 N.am      22 UNK        -0.5000 
    120 CA        -3.9954  -17.6935  -56.4928 C.3       22 UNK         0.1400 
    121 C         -4.9019  -17.7528  -57.7645 C.2       22 UNK         0.5000 
    122 N         -4.3672  -17.6191  -58.9726 N.am      22 UNK        -0.7600 
    123 O         -6.1185  -17.8862  -57.6609 O.2       22 UNK        -0.5000 
    124 C124       -4.4974  -18.6614  -55.3759 C.3       23 UNK        -0.0398 
    125 S125       -3.7869  -18.5411  -53.6903 S.3       23 UNK        -0.2404 
    126 C126       -2.6601  -17.1122  -53.6691 C.3       23 UNK        -0.0205 
    127 H127       -2.3923  -16.8501  -42.1898 H         1 UNK         0.0600 
    128 H128       -3.8814  -17.8031  -42.0421 H         1 UNK         0.0600 
    129 H129       -3.6574  -16.3407  -41.0778 H         1 UNK         0.0600 
    130 H130       -2.8342  -16.7351  -44.5416 H         1 UNK         0.3000 
    131 H131       -5.0598  -15.1924  -45.5538 H         1 UNK         0.0600 
    132 H132       -3.8273  -17.0451  -46.8025 H         1 UNK         0.0800 
    133 H133       -2.4691  -15.9811  -46.9832 H         1 UNK         0.0800 
    134 H134       -2.2593  -14.1727  -48.6010 H         1 UNK         0.0800 
    135 H135       -3.3537  -13.8216  -49.9076 H         1 UNK         0.0800 
    136 H136       -3.6048  -15.3387  -51.8246 H         1 UNK         0.1150 
    137 H137       -0.5979  -18.3438  -52.3755 H         1 UNK         0.1150 
    138 H138       -0.8929  -16.2728  -48.6411 H         1 UNK         0.1150 
    139 H139        1.3642  -18.1886  -50.5672 H         1 UNK         0.0800 
    140 H140        0.8451  -17.8811  -48.9314 H         1 UNK         0.0800 
    141 H141       -2.2686  -19.6784  -49.2696 H         1 UNK         0.0800 
    142 H142       -1.3029  -19.0470  -47.9569 H         1 UNK         0.0800 
    143 H143       -1.5460  -22.0438  -48.4976 H         1 UNK         0.0600 
    144 H144        0.0379  -20.6537  -46.6369 H         1 UNK         0.3000 
    145 H145        0.1641  -23.2266  -44.1024 H         1 UNK         0.0600 
    146 H146        2.5728  -22.7369  -44.4984 H         1 UNK         0.0600 
    147 H147        1.8966  -23.6997  -45.8044 H         1 UNK         0.0600 
    148 H148        2.1813  -21.9830  -46.0424 H         1 UNK         0.0600 
    149 H149        1.2767  -20.6391  -44.0495 H         1 UNK         0.3000 
    150 H150       -1.5195  -18.9519  -42.5465 H         1 UNK         0.0600 
    151 H151       -0.2516  -20.0259  -40.7153 H         1 UNK         0.0600 
    152 H152        0.3058  -18.3774  -40.9602 H         1 UNK         0.0600 
    153 H153        1.2684  -19.7319  -41.5464 H         1 UNK         0.0600 
    154 H154        1.1027  -18.1306  -43.4723 H         1 UNK         0.3000 
    155 H155        0.0833  -17.1998  -46.7322 H         1 UNK         0.0600 
    156 H156        0.7319  -15.4014  -44.3383 H         1 UNK         0.0600 
    157 H157       -0.5880  -15.2096  -45.4678 H         1 UNK         0.0600 
    158 H158        1.0620  -14.9983  -46.0256 H         1 UNK         0.0600 
    159 H159        2.5299  -16.9785  -45.2153 H         1 UNK         0.3000 
    160 H160        3.8252  -20.1795  -46.1499 H         1 UNK         0.0600 
    161 H161        4.5516  -17.3790  -47.1697 H         1 UNK         0.0600 
    162 H162        4.1860  -18.7700  -48.1835 H         1 UNK         0.0600 
    163 H163        5.6118  -18.7888  -47.1580 H         1 UNK         0.0600 
    164 H164        5.0050  -17.9661  -44.8013 H         1 UNK         0.3000 
    165 H165        3.7115  -18.5064  -41.5606 H         1 UNK         0.0600 
    166 H166        6.0958  -18.7655  -40.9240 H         1 UNK         0.0600 
    167 H167        5.5034  -20.2472  -41.6571 H         1 UNK         0.0600 
    168 H168        6.5272  -19.1606  -42.5885 H         1 UNK         0.0600 
    169 H169        5.7712  -16.7908  -42.5087 H         1 UNK         0.3000 
    170 H170        5.0530  -14.3562  -42.4510 H         1 UNK         0.0600 
    171 H171        6.1633  -15.4767  -44.4308 H         1 UNK         0.0600 
    172 H172        4.7329  -15.1766  -45.4121 H         1 UNK         0.0600 
    173 H173        5.7171  -13.8349  -44.8377 H         1 UNK         0.0600 
    174 H174        2.4300  -14.2962  -43.5319 H         1 UNK         0.3000 
    175 H175        2.0676  -10.8217  -43.2857 H         1 UNK         0.0600 
    176 H176        1.8003  -12.3546  -45.9288 H         1 UNK         0.0600 
    177 H177        0.9627  -10.8603  -45.5082 H         1 UNK         0.0600 
    178 H178        2.7083  -10.8645  -45.7018 H         1 UNK         0.0600 
    179 H179        0.1980  -12.7918  -44.0949 H         1 UNK         0.3000 
    180 H180       -0.5838  -14.5463  -42.0495 H         1 UNK         0.0600 
    181 H181       -2.2011  -13.9440  -40.2463 H         1 UNK         0.0600 
    182 H182       -1.4623  -12.3492  -40.1061 H         1 UNK         0.0600 
    183 H183       -0.5399  -13.7911  -39.7005 H         1 UNK         0.0600 
    184 H184       -2.2667  -13.8520  -43.3139 H         1 UNK         0.3000 
    185 H185       -4.3964  -11.3961  -43.3787 H         1 UNK         0.0600 
    186 H186       -4.1318  -10.6814  -45.7841 H         1 UNK         0.0600 
    187 H187       -3.1649   -9.7343  -44.6653 H         1 UNK         0.0600 
    188 H188       -2.3944  -10.9604  -45.6541 H         1 UNK         0.0600 
    189 H189       -4.7802  -13.4785  -44.0088 H         1 UNK         0.3000 
    190 H190       -2.6069  -20.0552  -45.6947 H         1 UNK         0.3000 
    191 H191       -5.4068  -20.3116  -46.2234 H         1 UNK         0.0600 
    192 H192       -5.6229  -19.5364  -43.8353 H         1 UNK         0.0600 
    193 H193       -4.5710  -18.5253  -44.8091 H         1 UNK         0.0600 
    194 H194       -3.8756  -19.6647  -43.6563 H         1 UNK         0.0600 
    195 H195       -3.1978  -22.1535  -44.0532 H         1 UNK         0.3000 
    196 H196       -5.1208  -23.9238  -42.9916 H         1 UNK         0.0600 
    197 H197       -2.1030  -24.2895  -43.3837 H         1 UNK         0.0600 
    198 H198       -2.8891  -23.5615  -41.9845 H         1 UNK         0.0600 
    199 H199       -3.1149  -25.2699  -42.3283 H         1 UNK         0.0600 
    200 H200       -3.0977  -24.2134  -45.9226 H         1 UNK         0.3000 
    201 H201       -4.0532  -26.8641  -46.6257 H         1 UNK         0.0600 
    202 H202       -2.5032  -24.7722  -48.2380 H         1 UNK         0.0600 
    203 H203       -2.6653  -26.4799  -48.6418 H         1 UNK         0.0600 
    204 H204       -1.7756  -26.0039  -47.2075 H         1 UNK         0.0600 
    205 H205       -5.5786  -23.8544  -46.8112 H         1 UNK         0.3000 
    206 H206       -7.2445  -22.9194  -47.9236 H         1 UNK         0.0600 
    207 H207       -8.4850  -24.9625  -47.2010 H         1 UNK         0.0600 
    208 H208       -9.0981  -24.3440  -48.7263 H         1 UNK         0.0600 
    209 H209       -8.0658  -25.7669  -48.7127 H         1 UNK         0.0600 
    210 H210       -4.9601  -22.6279  -49.1492 H         1 UNK         0.3000 
    211 H211       -3.9552  -21.8733  -50.9190 H         1 UNK         0.0600 
    212 H212       -5.1489  -21.2029  -52.9565 H         1 UNK         0.0600 
    213 H213       -6.1037  -20.7798  -51.5468 H         1 UNK         0.0600 
    214 H214       -6.5399  -22.1810  -52.5270 H         1 UNK         0.0600 
    215 H215       -4.6879  -25.0761  -50.6802 H         1 UNK         0.3000 
    216 H216       -3.8542  -26.0443  -53.2434 H         1 UNK         0.0600 
    217 H217       -3.7339  -27.4597  -50.5325 H         1 UNK         0.0600 
    218 H218       -3.6946  -28.2194  -52.1150 H         1 UNK         0.0600 
    219 H219       -5.1515  -27.3964  -51.5790 H         1 UNK         0.0600 
    220 H220       -2.0484  -24.8250  -50.5227 H         1 UNK         0.3000 
    221 H221        0.5392  -25.9423  -51.3863 H         1 UNK         0.0600 
    222 H222        0.0249  -25.8019  -48.9676 H         1 UNK         0.0600 
    223 H223       -0.2176  -24.0573  -49.0882 H         1 UNK         0.0600 
    224 H224        1.3735  -24.7531  -49.3561 H         1 UNK         0.0600 
    225 H225       -1.3519  -23.3230  -52.4141 H         1 UNK         0.3000 
    226 H226        0.6560  -21.2500  -52.5050 H         1 UNK         0.0600 
    227 H227       -2.0318  -21.4982  -53.9595 H         1 UNK         0.0600 
    228 H228       -1.7885  -20.7508  -52.3788 H         1 UNK         0.0600 
    229 H229       -1.0736  -20.0427  -53.8202 H         1 UNK         0.0600 
    230 H230        1.8105  -20.4803  -54.2399 H         1 UNK         0.3000 
    231 H231        2.2329  -22.2333  -56.5864 H         1 UNK         0.0600 
    232 H232        3.6918  -19.7152  -55.6183 H         1 UNK         0.0600 
    233 H233        4.1928  -20.7545  -56.9466 H         1 UNK         0.0600 
    234 H234        4.1979  -21.3758  -55.3050 H         1 UNK         0.0600 
    235 H235        0.1137  -19.7728  -55.7963 H         1 UNK         0.3000 
    236 H236       -0.3029  -18.9302  -58.5917 H         1 UNK         0.0600 
    237 H237        1.1992  -17.1920  -57.6181 H         1 UNK         0.0600 
    238 H238       -0.3937  -16.5320  -57.9189 H         1 UNK         0.0600 
    239 H239        0.0935  -16.9519  -56.2727 H         1 UNK         0.0600 
    240 H240       -2.0503  -16.9122  -56.7569 H         1 UNK         0.3000 
    241 H241       -4.1471  -16.6797  -56.1233 H         1 UNK         0.0600 
    242 H242       -4.9655  -17.6466  -59.7837 H         1 UNK         0.3800 
    243 H243       -3.3755  -17.4883  -59.0872 H         1 UNK         0.3800 
    244 H244       -4.3922  -19.6966  -55.7014 H         1 UNK         0.0800 
    245 H245       -5.5701  -18.5230  -55.2325 H         1 UNK         0.0800 
    246 H246       -3.1706  -16.2254  -54.0458 H         1 UNK         0.0800 
    247 H247       -1.8076  -17.2979  -54.3213 H         1 UNK         0.0800 
@<TRIPOS>BOND
     1    1    2 1    
     2    1  127 1    
     3    1  128 1    
     4    1  129 1    
     5    2    3 2    
     6    2    4 am   BACKBONE|DICT|INTERRES
     7    4    5 1    
     8    4  130 1    
     9    5    6 1    
    10    5   65 1    
    11    5  131 1    
    12    6    7 1    
    13    6  132 1    
    14    6  133 1    
    15    7    8 1    
    16    8    9 1    
    17    8  134 1    
    18    8  135 1    
    19    9   10 ar   
    20    9   14 ar   
    21   10   11 ar   
    22   10  136 1    
    23   11   12 ar   
    24   11  126 1    
    25   12   13 ar   
    26   12  137 1    
    27   13   14 ar   
    28   13   15 1    
    29   14  138 1    
    30   15   16 1    
    31   15  139 1    
    32   15  140 1    
    33   16   17 1    
    34   17   18 1    
    35   17  141 1    
    36   17  142 1    
    37   18   19 1    
    38   18   67 1    
    39   18  143 1    
    40   19   20 am   BACKBONE|DICT|INTERRES
    41   19  144 1    
    42   20   21 2    
    43   20   22 1    
    44   22   23 1    
    45   22   24 1    
    46   22  145 1    
    47   23  146 1    
    48   23  147 1    
    49   23  148 1    
    50   24   25 am   BACKBONE|DICT|INTERRES
    51   24  149 1    
    52   25   26 2    
    53   25   27 1    
    54   27   28 1    
    55   27   29 1    
    56   27  150 1    
    57   28  151 1    
    58   28  152 1    
    59   28  153 1    
    60   29   30 am   BACKBONE|DICT|INTERRES
    61   29  154 1    
    62   30   31 2    
    63   30   32 1    
    64   32   33 1    
    65   32   34 1    
    66   32  155 1    
    67   33  156 1    
    68   33  157 1    
    69   33  158 1    
    70   34   35 am   BACKBONE|DICT|INTERRES
    71   34  159 1    
    72   35   36 2    
    73   35   37 1    
    74   37   38 1    
    75   37   39 1    
    76   37  160 1    
    77   38  161 1    
    78   38  162 1    
    79   38  163 1    
    80   39   40 am   BACKBONE|DICT|INTERRES
    81   39  164 1    
    82   40   41 2    
    83   40   42 1    
    84   42   43 1    
    85   42   44 1    
    86   42  165 1    
    87   43  166 1    
    88   43  167 1    
    89   43  168 1    
    90   44   45 am   BACKBONE|DICT|INTERRES
    91   44  169 1    
    92   45   46 2    
    93   45   47 1    
    94   47   48 1    
    95   47   49 1    
    96   47  170 1    
    97   48  171 1    
    98   48  172 1    
    99   48  173 1    
   100   49   50 am   BACKBONE|DICT|INTERRES
   101   49  174 1    
   102   50   51 2    
   103   50   52 1    
   104   52   53 1    
   105   52   54 1    
   106   52  175 1    
   107   53  176 1    
   108   53  177 1    
   109   53  178 1    
   110   54   55 am   BACKBONE|DICT|INTERRES
   111   54  179 1    
   112   55   56 2    
   113   55   57 1    
   114   57   58 1    
   115   57   59 1    
   116   57  180 1    
   117   58  181 1    
   118   58  182 1    
   119   58  183 1    
   120   59   60 am   BACKBONE|DICT|INTERRES
   121   59  184 1    
   122   60   61 2    
   123   60   62 1    
   124   62   63 1    
   125   62   64 1    
   126   62  185 1    
   127   63  186 1    
   128   63  187 1    
   129   63  188 1    
   130   64   65 am   BACKBONE|DICT|INTERRES
   131   64  189 1    
   132   65   66 2    
   133   67   68 2    
   134   67   69 am   BACKBONE|DICT|INTERRES
   135   69   70 1    
   136   69  190 1    
   137   70   71 1    
   138   70   72 1    
   139   70  191 1    
   140   71  192 1    
   141   71  193 1    
   142   71  194 1    
   143   72   73 2    
   144   72   74 am   BACKBONE|DICT|INTERRES
   145   74   75 1    
   146   74  195 1    
   147   75   76 1    
   148   75   77 1    
   149   75  196 1    
   150   76  197 1    
   151   76  198 1    
   152   76  199 1    
   153   77   78 2    
   154   77   79 am   BACKBONE|DICT|INTERRES
   155   79   80 1    
   156   79  200 1    
   157   80   81 1    
   158   80   82 1    
   159   80  201 1    
   160   81  202 1    
   161   81  203 1    
   162   81  204 1    
   163   82   83 2    
   164   82   84 am   BACKBONE|DICT|INTERRES
   165   84   85 1    
   166   84  205 1    
   167   85   86 1    
   168   85   87 1    
   169   85  206 1    
   170   86  207 1    
   171   86  208 1    
   172   86  209 1    
   173   87   88 2    
   174   87   89 am   BACKBONE|DICT|INTERRES
   175   89   90 1    
   176   89  210 1    
   177   90   91 1    
   178   90   92 1    
   179   90  211 1    
   180   91  212 1    
   181   91  213 1    
   182   91  214 1    
   183   92   93 2    
   184   92   94 am   BACKBONE|DICT|INTERRES
   185   94   95 1    
   186   94  215 1    
   187   95   96 1    
   188   95   97 1    
   189   95  216 1    
   190   96  217 1    
   191   96  218 1    
   192   96  219 1    
   193   97   98 2    
   194   97   99 am   BACKBONE|DICT|INTERRES
   195   99  100 1    
   196   99  220 1    
   197  100  101 1    
   198  100  102 1    
   199  100  221 1    
   200  101  222 1    
   201  101  223 1    
   202  101  224 1    
   203  102  103 2    
   204  102  104 am   BACKBONE|DICT|INTERRES
   205  104  105 1    
   206  104  225 1    
   207  105  106 1    
   208  105  107 1    
   209  105  226 1    
   210  106  227 1    
   211  106  228 1    
   212  106  229 1    
   213  107  108 2    
   214  107  109 am   BACKBONE|DICT|INTERRES
   215  109  110 1    
   216  109  230 1    
   217  110  111 1    
   218  110  112 1    
   219  110  231 1    
   220  111  232 1    
   221  111  233 1    
   222  111  234 1    
   223  112  113 2    
   224  112  114 am   BACKBONE|DICT|INTERRES
   225  114  115 1    
   226  114  235 1    
   227  115  116 1    
   228  115  117 1    
   229  115  236 1    
   230  116  237 1    
   231  116  238 1    
   232  116  239 1    
   233  117  118 2    
   234  117  119 am   BACKBONE|DICT|INTERRES
   235  119  120 1    
   236  119  240 1    
   237  120  121 1    
   238  120  124 1    
   239  120  241 1    
   240  121  122 am   BACKBONE|DICT|INTERRES
   241  121  123 2    
   242  122  242 1    
   243  122  243 1    
   244  124  125 1    
   245  124  244 1    
   246  124  245 1    
   247  125  126 1    
   248  126  246 1    
   249  126  247 1    
@<TRIPOS>SUBSTRUCTURE
     1 UNK         1 GROUP             0       ****    0 ROOT    
