@<TRIPOS>MOLECULE
3R540
247   249    1
SMALL
USER_CHARGES


@<TRIPOS>ATOM
      1 CA         -8.4155  -15.4564  -48.1552 C.3       0 UNK        -0.1800 
      2 C          -7.3044  -14.4706  -48.4888 C.2       0 UNK         0.5000 
      3 O          -7.4684  -13.2681  -48.2810 O.2       0 UNK        -0.5000 
      4 N          -6.1795  -14.9738  -49.0114 N.am      1 UNK        -0.5000 
      5 CA         -4.9780  -14.1987  -49.3288 C.3       1 UNK         0.1400 
      6 C6         -4.0415  -15.0011  -50.2625 C.3       23 UNK        -0.0398 
      7 S7         -2.8125  -13.9676  -51.1327 S.3       23 UNK        -0.2404 
      8 C8         -1.3043  -14.2163  -50.1417 C.3       23 UNK        -0.0205 
      9 C9         -0.7624  -15.6342  -50.2460 C.ar      23 UNK        -0.0193 
     10 C10         0.0642  -16.0026  -51.3105 C.ar      23 UNK        -0.1150 
     11 C11         0.5840  -17.3027  -51.3988 C.ar      23 UNK        -0.0193 
     12 C12         0.2652  -18.2278  -50.3972 C.ar      23 UNK        -0.1150 
     13 C13        -0.5627  -17.8700  -49.3309 C.ar      23 UNK        -0.0193 
     14 C14        -1.0713  -16.5742  -49.2626 C.ar      23 UNK        -0.1150 
     15 C15        -0.9205  -18.8674  -48.2452 C.3       23 UNK        -0.0205 
     16 S16        -2.5945  -19.5238  -48.5011 S.3       23 UNK        -0.2404 
     17 C17        -2.9979  -20.1449  -46.8385 C.3       23 UNK        -0.0398 
     18 CA         -2.5777  -21.6216  -46.6563 C.3       11 UNK         0.1400 
     19 N          -1.1552  -21.7722  -46.3352 N.am      11 UNK        -0.5000 
     20 C          -0.4981  -22.9408  -46.3507 C.2       10 UNK         0.5000 
     21 O          -1.0084  -24.0054  -46.6926 O.2       10 UNK        -0.5000 
     22 CA          0.9486  -22.9306  -45.8310 C.3       10 UNK         0.1400 
     23 CB          1.9181  -22.4428  -46.9178 C.3       10 UNK        -0.1800 
     24 N           1.0792  -22.1108  -44.6253 N.am      10 UNK        -0.5000 
     25 C           0.5250  -22.4315  -43.4452 C.2       9 UNK         0.5000 
     26 O          -0.0839  -23.4827  -43.2454 O.2       9 UNK        -0.5000 
     27 CA          0.6106  -21.3889  -42.3137 C.3       9 UNK         0.1400 
     28 CB          1.8370  -21.6419  -41.4252 C.3       9 UNK        -0.1800 
     29 N           0.6280  -20.0106  -42.8067 N.am      9 UNK        -0.5000 
     30 C          -0.3996  -19.4173  -43.4316 C.2       8 UNK         0.5000 
     31 O          -1.4812  -19.9689  -43.6336 O.2       8 UNK        -0.5000 
     32 CA         -0.1677  -17.9901  -43.9624 C.3       8 UNK         0.1400 
     33 CB         -0.6381  -16.9523  -42.9340 C.3       8 UNK        -0.1800 
     34 N           1.2271  -17.7219  -44.3222 N.am      8 UNK        -0.5000 
     35 C           1.8984  -18.3556  -45.2947 C.2       7 UNK         0.5000 
     36 O           1.3996  -19.2305  -46.0013 O.2       7 UNK        -0.5000 
     37 CA          3.3904  -18.0103  -45.4466 C.3       7 UNK         0.1400 
     38 CB          3.5935  -16.6612  -46.1523 C.3       7 UNK        -0.1800 
     39 N           4.0743  -18.0016  -44.1528 N.am      7 UNK        -0.5000 
     40 C           4.3122  -19.0927  -43.4138 C.2       6 UNK         0.5000 
     41 O           4.0484  -20.2325  -43.7956 O.2       6 UNK        -0.5000 
     42 CA          4.8853  -18.8938  -41.9949 C.3       6 UNK         0.1400 
     43 CB          6.4256  -18.8595  -42.0069 C.3       6 UNK        -0.1800 
     44 N           4.3070  -17.7508  -41.2707 N.am      6 UNK        -0.5000 
     45 C           4.4755  -16.4424  -41.5031 C.2       5 UNK         0.5000 
     46 O           5.2434  -15.9852  -42.3531 O.2       5 UNK        -0.5000 
     47 CA          3.6030  -15.4881  -40.6609 C.3       5 UNK         0.1400 
     48 CB          4.3495  -15.0620  -39.3878 C.3       5 UNK        -0.1800 
     49 N           3.1945  -14.2878  -41.3974 N.am      5 UNK        -0.5000 
     50 C           2.5489  -14.2813  -42.5719 C.2       4 UNK         0.5000 
     51 O           2.1673  -15.3084  -43.1406 O.2       4 UNK        -0.5000 
     52 CA          2.3224  -12.8983  -43.2192 C.3       4 UNK         0.1400 
     53 CB          3.6586  -12.1736  -43.4620 C.3       4 UNK        -0.1800 
     54 N           1.6346  -13.0202  -44.5034 N.am      4 UNK        -0.5000 
     55 C           0.3148  -13.1631  -44.6654 C.2       3 UNK         0.5000 
     56 O          -0.5108  -13.0750  -43.7527 O.2       3 UNK        -0.5000 
     57 CA         -0.1326  -13.5115  -46.0971 C.3       3 UNK         0.1400 
     58 CB          0.0941  -15.0039  -46.3794 C.3       3 UNK        -0.1800 
     59 N          -1.5342  -13.1828  -46.3519 N.am      3 UNK        -0.5000 
     60 C          -2.0064  -11.9452  -46.5299 C.2       2 UNK         0.5000 
     61 O          -1.2852  -10.9485  -46.6107 O.2       2 UNK        -0.5000 
     62 CA         -3.5385  -11.8120  -46.6551 C.3       2 UNK         0.1400 
     63 CB         -4.0072  -10.3455  -46.6364 C.3       2 UNK        -0.1800 
     64 N          -4.0624  -12.4507  -47.8643 N.am      2 UNK        -0.5000 
     65 C          -4.2795  -13.7623  -48.0217 C.2       1 UNK         0.5000 
     66 O          -3.9700  -14.6117  -47.1819 O.2       1 UNK        -0.5000 
     67 C          -3.4750  -22.3284  -45.6246 C.2       11 UNK         0.5000 
     68 O          -4.4532  -22.9548  -46.0272 O.2       11 UNK        -0.5000 
     69 N          -3.1258  -22.2578  -44.3331 N.am      12 UNK        -0.5000 
     70 CA         -3.8319  -22.9628  -43.2605 C.3       12 UNK         0.1400 
     71 CB         -3.2752  -22.5296  -41.8963 C.3       12 UNK        -0.1800 
     72 C          -3.7749  -24.4951  -43.4199 C.2       12 UNK         0.5000 
     73 O          -4.7914  -25.1625  -43.2267 O.2       12 UNK        -0.5000 
     74 N          -2.6022  -25.0165  -43.8060 N.am      13 UNK        -0.5000 
     75 CA         -2.3787  -26.4335  -44.0913 C.3       13 UNK         0.1400 
     76 CB         -0.8678  -26.7046  -44.1582 C.3       13 UNK        -0.1800 
     77 C          -3.0738  -26.9020  -45.3843 C.2       13 UNK         0.5000 
     78 O          -3.6850  -27.9710  -45.3924 O.2       13 UNK        -0.5000 
     79 N          -2.9668  -26.0995  -46.4517 N.am      14 UNK        -0.5000 
     80 CA         -3.4813  -26.4123  -47.7877 C.3       14 UNK         0.1400 
     81 CB         -2.6762  -25.6084  -48.8206 C.3       14 UNK        -0.1800 
     82 C          -4.9882  -26.1437  -47.9686 C.2       14 UNK         0.5000 
     83 O          -5.5252  -26.4838  -49.0225 O.2       14 UNK        -0.5000 
     84 N          -5.6333  -25.5094  -46.9789 N.am      15 UNK        -0.5000 
     85 CA         -7.0175  -25.0196  -46.9977 C.3       15 UNK         0.1400 
     86 CB         -8.0260  -26.1839  -47.0893 C.3       15 UNK        -0.1800 
     87 C          -7.2188  -23.9410  -48.0840 C.2       15 UNK         0.5000 
     88 O          -8.1171  -24.0439  -48.9202 O.2       15 UNK        -0.5000 
     89 N          -6.3255  -22.9430  -48.0539 N.am      16 UNK        -0.5000 
     90 CA         -6.2010  -21.7694  -48.9264 C.3       16 UNK         0.1400 
     91 CB         -7.4950  -20.9321  -48.9379 C.3       16 UNK        -0.1800 
     92 C          -5.6952  -22.0618  -50.3530 C.2       16 UNK         0.5000 
     93 O          -5.4263  -21.1134  -51.0902 O.2       16 UNK        -0.5000 
     94 N          -5.5214  -23.3394  -50.7228 N.am      17 UNK        -0.5000 
     95 CA         -5.0804  -23.7640  -52.0565 C.3       17 UNK         0.1400 
     96 CB         -5.2463  -25.2842  -52.1912 C.3       17 UNK        -0.1800 
     97 C          -3.6410  -23.3380  -52.4094 C.2       17 UNK         0.5000 
     98 O          -3.3200  -23.2240  -53.5922 O.2       17 UNK        -0.5000 
     99 N          -2.8118  -23.0696  -51.3893 N.am      18 UNK        -0.5000 
    100 CA        -1.4437  -22.5646  -51.5325 C.3       18 UNK         0.1400 
    101 CB        -0.7385  -22.5909  -50.1675 C.3       18 UNK        -0.1800 
    102 C         -1.3642  -21.1569  -52.1567 C.2       18 UNK         0.5000 
    103 O         -0.3334  -20.8227  -52.7397 O.2       18 UNK        -0.5000 
    104 N         -2.4507  -20.3723  -52.0686 N.am      19 UNK        -0.5000 
    105 CA        -2.5614  -19.0360  -52.6590 C.3       19 UNK         0.1400 
    106 CB        -3.8596  -18.3681  -52.1857 C.3       19 UNK        -0.1800 
    107 C         -2.4758  -19.0328  -54.1969 C.2       19 UNK         0.5000 
    108 O         -2.0482  -18.0330  -54.7738 O.2       19 UNK        -0.5000 
    109 N         -2.8378  -20.1576  -54.8340 N.am      20 UNK        -0.5000 
    110 CA        -2.7740  -20.3598  -56.2832 C.3       20 UNK         0.1400 
    111 CB        -3.4269  -21.7036  -56.6372 C.3       20 UNK        -0.1800 
    112 C         -1.3440  -20.2883  -56.8535 C.2       20 UNK         0.5000 
    113 O         -1.1751  -19.8839  -58.0046 O.2       20 UNK        -0.5000 
    114 N         -0.3366  -20.6254  -56.0330 N.am      21 UNK        -0.5000 
    115 CA         1.0861  -20.5221  -56.3732 C.3       21 UNK         0.1400 
    116 CB         1.9140  -21.2331  -55.2920 C.3       21 UNK        -0.1800 
    117 C          1.5696  -19.0676  -56.5503 C.2       21 UNK         0.5000 
    118 O          2.5853  -18.8444  -57.2101 O.2       21 UNK        -0.5000 
    119 N          0.8283  -18.1150  -55.9738 N.am      22 UNK        -0.5000 
    120 CA         1.0445  -16.6671  -56.0880 C.3       22 UNK         0.1400 
    121 C          0.1290  -16.0026  -57.1601 C.2       22 UNK         0.5000 
    122 N         -0.6488  -16.7467  -57.9398 N.am      22 UNK        -0.7600 
    123 O          0.1398  -14.7836  -57.3092 O.2       22 UNK        -0.5000 
    124 C124        0.9121  -15.9803  -54.7036 C.3       23 UNK        -0.0398 
    125 S125        2.2528  -16.4672  -53.5597 S.3       23 UNK        -0.2404 
    126 C126        1.4564  -17.7757  -52.5634 C.3       23 UNK        -0.0205 
    127 H127       -8.1355  -16.4817  -48.3988 H         1 UNK         0.0600 
    128 H128       -9.3177  -15.2085  -48.7145 H         1 UNK         0.0600 
    129 H129       -8.6494  -15.4117  -47.0916 H         1 UNK         0.0600 
    130 H130       -6.0971  -15.9738  -49.1243 H         1 UNK         0.3000 
    131 H131       -5.3039  -13.3062  -49.8680 H         1 UNK         0.0600 
    132 H132       -4.6378  -15.4699  -51.0462 H         1 UNK         0.0800 
    133 H133       -3.5702  -15.8276  -49.7341 H         1 UNK         0.0800 
    134 H134       -1.5024  -13.9596  -49.1011 H         1 UNK         0.0800 
    135 H135       -0.5431  -13.5130  -50.4824 H         1 UNK         0.0800 
    136 H136        0.2896  -15.2648  -52.0651 H         1 UNK         0.1150 
    137 H137        0.6486  -19.2369  -50.4583 H         1 UNK         0.1150 
    138 H138       -1.7097  -16.2986  -48.4346 H         1 UNK         0.1150 
    139 H139       -0.2051  -19.6906  -48.2244 H         1 UNK         0.0800 
    140 H140       -0.8568  -18.3717  -47.2763 H         1 UNK         0.0800 
    141 H141       -4.0777  -20.0262  -46.7294 H         1 UNK         0.0800 
    142 H142       -2.5568  -19.5058  -46.0729 H         1 UNK         0.0800 
    143 H143       -2.7548  -22.1429  -47.5994 H         1 UNK         0.0600 
    144 H144       -0.6660  -20.9487  -46.0148 H         1 UNK         0.3000 
    145 H145        1.2205  -23.9563  -45.5728 H         1 UNK         0.0600 
    146 H146        2.9417  -22.3994  -46.5453 H         1 UNK         0.0600 
    147 H147        1.9099  -23.1199  -47.7728 H         1 UNK         0.0600 
    148 H148        1.6531  -21.4533  -47.2892 H         1 UNK         0.0600 
    149 H149        1.5471  -21.2195  -44.7262 H         1 UNK         0.3000 
    150 H150       -0.2790  -21.5027  -41.6916 H         1 UNK         0.0600 
    151 H151        1.7798  -22.6276  -40.9617 H         1 UNK         0.0600 
    152 H152        1.9041  -20.9090  -40.6211 H         1 UNK         0.0600 
    153 H153        2.7651  -21.6072  -41.9943 H         1 UNK         0.0600 
    154 H154        1.4909  -19.4979  -42.7110 H         1 UNK         0.3000 
    155 H155       -0.7742  -17.8754  -44.8623 H         1 UNK         0.0600 
    156 H156       -0.0332  -16.9821  -42.0270 H         1 UNK         0.0600 
    157 H157       -1.6757  -17.1262  -42.6462 H         1 UNK         0.0600 
    158 H158       -0.5804  -15.9425  -43.3401 H         1 UNK         0.0600 
    159 H159        1.6879  -16.9683  -43.8152 H         1 UNK         0.3000 
    160 H160        3.8431  -18.7846  -46.0698 H         1 UNK         0.0600 
    161 H161        3.2792  -15.8248  -45.5288 H         1 UNK         0.0600 
    162 H162        3.0265  -16.6150  -47.0832 H         1 UNK         0.0600 
    163 H163        4.6430  -16.5078  -46.4033 H         1 UNK         0.0600 
    164 H164        4.3296  -17.0996  -43.7643 H         1 UNK         0.3000 
    165 H165        4.5918  -19.7739  -41.4203 H         1 UNK         0.0600 
    166 H166        6.8154  -18.0468  -42.6199 H         1 UNK         0.0600 
    167 H167        6.8259  -18.7438  -40.9997 H         1 UNK         0.0600 
    168 H168        6.8281  -19.7887  -42.4121 H         1 UNK         0.0600 
    169 H169        3.6491  -18.0091  -40.5482 H         1 UNK         0.3000 
    170 H170        2.6919  -16.0159  -40.3717 H         1 UNK         0.0600 
    171 H171        5.2550  -14.5009  -39.6227 H         1 UNK         0.0600 
    172 H172        3.7222  -14.4377  -38.7513 H         1 UNK         0.0600 
    173 H173        4.6459  -15.9303  -38.7977 H         1 UNK         0.0600 
    174 H174        3.4965  -13.4072  -41.0080 H         1 UNK         0.3000 
    175 H175        1.7141  -12.2988  -42.5388 H         1 UNK         0.0600 
    176 H176        4.3314  -12.7685  -44.0815 H         1 UNK         0.0600 
    177 H177        3.5026  -11.2169  -43.9611 H         1 UNK         0.0600 
    178 H178        4.1758  -11.9625  -42.5256 H         1 UNK         0.0600 
    179 H179        2.2332  -13.1503  -45.3053 H         1 UNK         0.3000 
    180 H180        0.4897  -12.9367  -46.7867 H         1 UNK         0.0600 
    181 H181        0.2058  -15.1732  -47.4468 H         1 UNK         0.0600 
    182 H182       -0.7247  -15.6225  -46.0115 H         1 UNK         0.0600 
    183 H183        1.0082  -15.3679  -45.9139 H         1 UNK         0.0600 
    184 H184       -2.2030  -13.9438  -46.3163 H         1 UNK         0.3000 
    185 H185       -3.9750  -12.3041  -45.7832 H         1 UNK         0.0600 
    186 H186       -5.0954  -10.2799  -46.6459 H         1 UNK         0.0600 
    187 H187       -3.6613   -9.8355  -45.7363 H         1 UNK         0.0600 
    188 H188       -3.6303   -9.7894  -47.4957 H         1 UNK         0.0600 
    189 H189       -4.3197  -11.8244  -48.6136 H         1 UNK         0.3000 
    190 H190       -2.3532  -21.6564  -44.0637 H         1 UNK         0.3000 
    191 H191       -4.8810  -22.6628  -43.3060 H         1 UNK         0.0600 
    192 H192       -3.8632  -22.9595  -41.0845 H         1 UNK         0.0600 
    193 H193       -3.3039  -21.4458  -41.7817 H         1 UNK         0.0600 
    194 H194       -2.2452  -22.8560  -41.7583 H         1 UNK         0.0600 
    195 H195       -1.7995  -24.4019  -43.8928 H         1 UNK         0.3000 
    196 H196       -2.7888  -27.0154  -43.2631 H         1 UNK         0.0600 
    197 H197       -0.3882  -26.1255  -44.9482 H         1 UNK         0.0600 
    198 H198       -0.3806  -26.4495  -43.2169 H         1 UNK         0.0600 
    199 H199       -0.6673  -27.7586  -44.3541 H         1 UNK         0.0600 
    200 H200       -2.3966  -25.2604  -46.3787 H         1 UNK         0.3000 
    201 H201       -3.3165  -27.4735  -47.9849 H         1 UNK         0.0600 
    202 H202       -2.9599  -25.8727  -49.8388 H         1 UNK         0.0600 
    203 H203       -2.8330  -24.5364  -48.6991 H         1 UNK         0.0600 
    204 H204       -1.6081  -25.8047  -48.7268 H         1 UNK         0.0600 
    205 H205       -5.0807  -25.2178  -46.1830 H         1 UNK         0.3000 
    206 H206       -7.1780  -24.5235  -46.0392 H         1 UNK         0.0600 
    207 H207       -7.8541  -26.9157  -46.3000 H         1 UNK         0.0600 
    208 H208       -9.0481  -25.8203  -46.9784 H         1 UNK         0.0600 
    209 H209       -7.9690  -26.7031  -48.0462 H         1 UNK         0.0600 
    210 H210       -5.6265  -22.9909  -47.3119 H         1 UNK         0.3000 
    211 H211       -5.4271  -21.1537  -48.4678 H         1 UNK         0.0600 
    212 H212       -7.3421  -19.9862  -49.4590 H         1 UNK         0.0600 
    213 H213       -7.8202  -20.6940  -47.9252 H         1 UNK         0.0600 
    214 H214       -8.3113  -21.4499  -49.4418 H         1 UNK         0.0600 
    215 H215       -5.7823  -24.0702  -50.0750 H         1 UNK         0.3000 
    216 H216       -5.7411  -23.2900  -52.7854 H         1 UNK         0.0600 
    217 H217       -4.5936  -25.8248  -51.5070 H         1 UNK         0.0600 
    218 H218       -5.0043  -25.6145  -53.2021 H         1 UNK         0.0600 
    219 H219       -6.2725  -25.5901  -51.9864 H         1 UNK         0.0600 
    220 H220       -3.1639  -23.1761  -50.4511 H         1 UNK         0.3000 
    221 H221       -0.9087  -23.2420  -52.2014 H         1 UNK         0.0600 
    222 H222       -0.6883  -23.6019  -49.7642 H         1 UNK         0.0600 
    223 H223       -1.2479  -21.9627  -49.4394 H         1 UNK         0.0600 
    224 H224        0.2863  -22.2263  -50.2491 H         1 UNK         0.0600 
    225 H225       -3.2726  -20.7200  -51.5903 H         1 UNK         0.3000 
    226 H226       -1.7294  -18.4382  -52.2917 H         1 UNK         0.0600 
    227 H227       -4.7403  -18.9131  -52.5267 H         1 UNK         0.0600 
    228 H228       -3.8990  -18.3087  -51.0979 H         1 UNK         0.0600 
    229 H229       -3.9334  -17.3501  -52.5697 H         1 UNK         0.0600 
    230 H230       -3.1437  -20.9484  -54.2818 H         1 UNK         0.3000 
    231 H231       -3.3546  -19.5633  -56.7530 H         1 UNK         0.0600 
    232 H232       -2.8780  -22.5422  -56.2072 H         1 UNK         0.0600 
    233 H233       -3.4555  -21.8507  -57.7176 H         1 UNK         0.0600 
    234 H234       -4.4538  -21.7534  -56.2748 H         1 UNK         0.0600 
    235 H235       -0.5533  -20.9077  -55.0856 H         1 UNK         0.3000 
    236 H236        1.2438  -21.0399  -57.3215 H         1 UNK         0.0600 
    237 H237        1.8301  -20.7318  -54.3272 H         1 UNK         0.0600 
    238 H238        1.5947  -22.2674  -55.1629 H         1 UNK         0.0600 
    239 H239        2.9712  -21.2498  -55.5594 H         1 UNK         0.0600 
    240 H240       -0.0196  -18.3840  -55.4906 H         1 UNK         0.3000 
    241 H241        2.0609  -16.4857  -56.4419 H         1 UNK         0.0600 
    242 H242       -1.2259  -16.2959  -58.6321 H         1 UNK         0.3800 
    243 H243       -0.6635  -17.7545  -57.8579 H         1 UNK         0.3800 
    244 H244       -0.0611  -16.1953  -54.2598 H         1 UNK         0.0800 
    245 H245        0.9652  -14.8950  -54.8037 H         1 UNK         0.0800 
    246 H246        0.8567  -18.4129  -53.2131 H         1 UNK         0.0800 
    247 H247        2.2509  -18.4107  -52.1689 H         1 UNK         0.0800 
@<TRIPOS>BOND
     1    1    2 1    
     2    1  127 1    
     3    1  128 1    
     4    1  129 1    
     5    2    3 2    
     6    2    4 am   BACKBONE|DICT|INTERRES
     7    4    5 1    
     8    4  130 1    
     9    5    6 1    
    10    5   65 1    
    11    5  131 1    
    12    6    7 1    
    13    6  132 1    
    14    6  133 1    
    15    7    8 1    
    16    8    9 1    
    17    8  134 1    
    18    8  135 1    
    19    9   10 ar   
    20    9   14 ar   
    21   10   11 ar   
    22   10  136 1    
    23   11   12 ar   
    24   11  126 1    
    25   12   13 ar   
    26   12  137 1    
    27   13   14 ar   
    28   13   15 1    
    29   14  138 1    
    30   15   16 1    
    31   15  139 1    
    32   15  140 1    
    33   16   17 1    
    34   17   18 1    
    35   17  141 1    
    36   17  142 1    
    37   18   19 1    
    38   18   67 1    
    39   18  143 1    
    40   19   20 am   BACKBONE|DICT|INTERRES
    41   19  144 1    
    42   20   21 2    
    43   20   22 1    
    44   22   23 1    
    45   22   24 1    
    46   22  145 1    
    47   23  146 1    
    48   23  147 1    
    49   23  148 1    
    50   24   25 am   BACKBONE|DICT|INTERRES
    51   24  149 1    
    52   25   26 2    
    53   25   27 1    
    54   27   28 1    
    55   27   29 1    
    56   27  150 1    
    57   28  151 1    
    58   28  152 1    
    59   28  153 1    
    60   29   30 am   BACKBONE|DICT|INTERRES
    61   29  154 1    
    62   30   31 2    
    63   30   32 1    
    64   32   33 1    
    65   32   34 1    
    66   32  155 1    
    67   33  156 1    
    68   33  157 1    
    69   33  158 1    
    70   34   35 am   BACKBONE|DICT|INTERRES
    71   34  159 1    
    72   35   36 2    
    73   35   37 1    
    74   37   38 1    
    75   37   39 1    
    76   37  160 1    
    77   38  161 1    
    78   38  162 1    
    79   38  163 1    
    80   39   40 am   BACKBONE|DICT|INTERRES
    81   39  164 1    
    82   40   41 2    
    83   40   42 1    
    84   42   43 1    
    85   42   44 1    
    86   42  165 1    
    87   43  166 1    
    88   43  167 1    
    89   43  168 1    
    90   44   45 am   BACKBONE|DICT|INTERRES
    91   44  169 1    
    92   45   46 2    
    93   45   47 1    
    94   47   48 1    
    95   47   49 1    
    96   47  170 1    
    97   48  171 1    
    98   48  172 1    
    99   48  173 1    
   100   49   50 am   BACKBONE|DICT|INTERRES
   101   49  174 1    
   102   50   51 2    
   103   50   52 1    
   104   52   53 1    
   105   52   54 1    
   106   52  175 1    
   107   53  176 1    
   108   53  177 1    
   109   53  178 1    
   110   54   55 am   BACKBONE|DICT|INTERRES
   111   54  179 1    
   112   55   56 2    
   113   55   57 1    
   114   57   58 1    
   115   57   59 1    
   116   57  180 1    
   117   58  181 1    
   118   58  182 1    
   119   58  183 1    
   120   59   60 am   BACKBONE|DICT|INTERRES
   121   59  184 1    
   122   60   61 2    
   123   60   62 1    
   124   62   63 1    
   125   62   64 1    
   126   62  185 1    
   127   63  186 1    
   128   63  187 1    
   129   63  188 1    
   130   64   65 am   BACKBONE|DICT|INTERRES
   131   64  189 1    
   132   65   66 2    
   133   67   68 2    
   134   67   69 am   BACKBONE|DICT|INTERRES
   135   69   70 1    
   136   69  190 1    
   137   70   71 1    
   138   70   72 1    
   139   70  191 1    
   140   71  192 1    
   141   71  193 1    
   142   71  194 1    
   143   72   73 2    
   144   72   74 am   BACKBONE|DICT|INTERRES
   145   74   75 1    
   146   74  195 1    
   147   75   76 1    
   148   75   77 1    
   149   75  196 1    
   150   76  197 1    
   151   76  198 1    
   152   76  199 1    
   153   77   78 2    
   154   77   79 am   BACKBONE|DICT|INTERRES
   155   79   80 1    
   156   79  200 1    
   157   80   81 1    
   158   80   82 1    
   159   80  201 1    
   160   81  202 1    
   161   81  203 1    
   162   81  204 1    
   163   82   83 2    
   164   82   84 am   BACKBONE|DICT|INTERRES
   165   84   85 1    
   166   84  205 1    
   167   85   86 1    
   168   85   87 1    
   169   85  206 1    
   170   86  207 1    
   171   86  208 1    
   172   86  209 1    
   173   87   88 2    
   174   87   89 am   BACKBONE|DICT|INTERRES
   175   89   90 1    
   176   89  210 1    
   177   90   91 1    
   178   90   92 1    
   179   90  211 1    
   180   91  212 1    
   181   91  213 1    
   182   91  214 1    
   183   92   93 2    
   184   92   94 am   BACKBONE|DICT|INTERRES
   185   94   95 1    
   186   94  215 1    
   187   95   96 1    
   188   95   97 1    
   189   95  216 1    
   190   96  217 1    
   191   96  218 1    
   192   96  219 1    
   193   97   98 2    
   194   97   99 am   BACKBONE|DICT|INTERRES
   195   99  100 1    
   196   99  220 1    
   197  100  101 1    
   198  100  102 1    
   199  100  221 1    
   200  101  222 1    
   201  101  223 1    
   202  101  224 1    
   203  102  103 2    
   204  102  104 am   BACKBONE|DICT|INTERRES
   205  104  105 1    
   206  104  225 1    
   207  105  106 1    
   208  105  107 1    
   209  105  226 1    
   210  106  227 1    
   211  106  228 1    
   212  106  229 1    
   213  107  108 2    
   214  107  109 am   BACKBONE|DICT|INTERRES
   215  109  110 1    
   216  109  230 1    
   217  110  111 1    
   218  110  112 1    
   219  110  231 1    
   220  111  232 1    
   221  111  233 1    
   222  111  234 1    
   223  112  113 2    
   224  112  114 am   BACKBONE|DICT|INTERRES
   225  114  115 1    
   226  114  235 1    
   227  115  116 1    
   228  115  117 1    
   229  115  236 1    
   230  116  237 1    
   231  116  238 1    
   232  116  239 1    
   233  117  118 2    
   234  117  119 am   BACKBONE|DICT|INTERRES
   235  119  120 1    
   236  119  240 1    
   237  120  121 1    
   238  120  124 1    
   239  120  241 1    
   240  121  122 am   BACKBONE|DICT|INTERRES
   241  121  123 2    
   242  122  242 1    
   243  122  243 1    
   244  124  125 1    
   245  124  244 1    
   246  124  245 1    
   247  125  126 1    
   248  126  246 1    
   249  126  247 1    
@<TRIPOS>SUBSTRUCTURE
     1 UNK         1 GROUP             0       ****    0 ROOT    
