@<TRIPOS>MOLECULE
3R540
247   249    1
SMALL
USER_CHARGES


@<TRIPOS>ATOM
      1 CA         -0.3430  -11.6122  -46.1304 C.3       0 UNK        -0.1800 
      2 C           0.8729  -12.4144  -46.5699 C.2       0 UNK         0.5000 
      3 O           1.9747  -11.8721  -46.6415 O.2       0 UNK        -0.5000 
      4 N           0.6830  -13.7095  -46.8452 N.am      1 UNK        -0.5000 
      5 CA          1.7162  -14.6628  -47.2737 C.3       1 UNK         0.1400 
      6 C6          1.1207  -16.0245  -47.7174 C.3       23 UNK        -0.0398 
      7 S7         -0.2642  -15.8532  -48.8951 S.3       23 UNK        -0.2404 
      8 C8          0.6026  -15.8861  -50.4931 C.3       23 UNK        -0.0205 
      9 C9          0.6834  -17.2892  -51.0754 C.ar      23 UNK        -0.0193 
     10 C10        -0.4335  -17.8374  -51.7118 C.ar      23 UNK        -0.1150 
     11 C11        -0.3688  -19.0978  -52.3115 C.ar      23 UNK        -0.0193 
     12 C12         0.8325  -19.8135  -52.2595 C.ar      23 UNK        -0.1150 
     13 C13         1.9666  -19.2708  -51.6459 C.ar      23 UNK        -0.0193 
     14 C14         1.8796  -18.0126  -51.0399 C.ar      23 UNK        -0.1150 
     15 C15         3.3107  -19.9890  -51.7303 C.3       23 UNK        -0.0205 
     16 S16         3.2605  -21.7333  -51.2020 S.3       23 UNK        -0.2404 
     17 C17         3.2666  -21.5592  -49.3884 C.3       23 UNK        -0.0398 
     18 CA          2.3449  -22.5801  -48.6785 C.3       11 UNK         0.1400 
     19 N           2.6625  -22.6653  -47.2506 N.am      11 UNK        -0.5000 
     20 C           2.1321  -23.5393  -46.3828 C.2       10 UNK         0.5000 
     21 O           1.3332  -24.4218  -46.6933 O.2       10 UNK        -0.5000 
     22 CA          2.5261  -23.3554  -44.9049 C.3       10 UNK         0.1400 
     23 CB          3.8237  -24.1151  -44.5925 C.3       10 UNK        -0.1800 
     24 N           2.6805  -21.9473  -44.5243 N.am      10 UNK        -0.5000 
     25 C           1.6903  -21.0458  -44.5551 C.2       9 UNK         0.5000 
     26 O           0.5429  -21.3042  -44.9246 O.2       9 UNK        -0.5000 
     27 CA          2.0583  -19.6018  -44.1816 C.3       9 UNK         0.1400 
     28 CB          2.2589  -18.7692  -45.4579 C.3       9 UNK        -0.1800 
     29 N           1.0038  -19.0044  -43.3651 N.am      9 UNK        -0.5000 
     30 C           0.8295  -19.2681  -42.0605 C.2       8 UNK         0.5000 
     31 O           1.6162  -19.9434  -41.3951 O.2       8 UNK        -0.5000 
     32 CA         -0.4315  -18.7009  -41.3742 C.3       8 UNK         0.1400 
     33 CB         -0.1116  -17.3964  -40.6295 C.3       8 UNK        -0.1800 
     34 N          -1.5278  -18.4562  -42.3087 N.am      8 UNK        -0.5000 
     35 C          -2.2247  -19.4122  -42.9354 C.2       7 UNK         0.5000 
     36 O          -2.1383  -20.6072  -42.6540 O.2       7 UNK        -0.5000 
     37 CA         -3.1713  -18.9724  -44.0732 C.3       7 UNK         0.1400 
     38 CB         -4.6322  -19.2867  -43.7174 C.3       7 UNK        -0.1800 
     39 N          -3.0848  -17.5607  -44.4728 N.am      7 UNK        -0.5000 
     40 C          -2.0131  -16.9456  -44.9927 C.2       6 UNK         0.5000 
     41 O          -0.8941  -17.4506  -45.0536 O.2       6 UNK        -0.5000 
     42 CA         -2.2224  -15.5049  -45.4795 C.3       6 UNK         0.1400 
     43 CB         -3.4132  -15.3790  -46.4446 C.3       6 UNK        -0.1800 
     44 N          -2.3925  -14.5928  -44.3513 N.am      6 UNK        -0.5000 
     45 C          -1.3895  -14.1367  -43.5914 C.2       5 UNK         0.5000 
     46 O          -0.1966  -14.3589  -43.8194 O.2       5 UNK        -0.5000 
     47 CA         -1.7921  -13.2969  -42.3720 C.3       5 UNK         0.1400 
     48 CB         -2.4491  -14.1808  -41.2933 C.3       5 UNK        -0.1800 
     49 N          -0.6038  -12.6442  -41.8332 N.am      5 UNK        -0.5000 
     50 C          -0.5895  -11.6249  -40.9668 C.2       4 UNK         0.5000 
     51 O          -1.6061  -11.0882  -40.5245 O.2       4 UNK        -0.5000 
     52 CA          0.7915  -11.1178  -40.5103 C.3       4 UNK         0.1400 
     53 CB          1.2341  -11.8508  -39.2346 C.3       4 UNK        -0.1800 
     54 N           1.8281  -11.2775  -41.5297 N.am      4 UNK        -0.5000 
     55 C           1.9439  -10.5350  -42.6364 C.2       3 UNK         0.5000 
     56 O           1.1833   -9.6084  -42.9172 O.2       3 UNK        -0.5000 
     57 CA          3.0884  -10.8944  -43.6031 C.3       3 UNK         0.1400 
     58 CB          4.4428  -10.3543  -43.1049 C.3       3 UNK        -0.1800 
     59 N           3.1541  -12.3239  -43.9365 N.am      3 UNK        -0.5000 
     60 C           3.4809  -13.3666  -43.1572 C.2       2 UNK         0.5000 
     61 O           3.8363  -13.2464  -41.9836 O.2       2 UNK        -0.5000 
     62 CA          3.3386  -14.7777  -43.7659 C.3       2 UNK         0.1400 
     63 CB          2.7988  -15.7731  -42.7243 C.3       2 UNK        -0.1800 
     64 N           2.4383  -14.7696  -44.9216 N.am      2 UNK        -0.5000 
     65 C           2.8133  -14.8720  -46.2049 C.2       1 UNK         0.5000 
     66 O           3.9714  -15.0852  -46.5641 O.2       1 UNK        -0.5000 
     67 C           0.8543  -22.2577  -48.9084 C.2       11 UNK         0.5000 
     68 O           0.1891  -22.9424  -49.6854 O.2       11 UNK        -0.5000 
     69 N           0.3528  -21.2496  -48.1822 N.am      12 UNK        -0.5000 
     70 CA         -1.0446  -20.8338  -48.2091 C.3       12 UNK         0.1400 
     71 CB         -1.1998  -19.5152  -47.4487 C.3       12 UNK        -0.1800 
     72 C          -1.9765  -21.8996  -47.6185 C.2       12 UNK         0.5000 
     73 O          -3.0188  -22.1710  -48.2105 O.2       12 UNK        -0.5000 
     74 N          -1.5831  -22.4930  -46.4830 N.am      13 UNK        -0.5000 
     75 CA         -2.3180  -23.5590  -45.8008 C.3       13 UNK         0.1400 
     76 CB         -1.6205  -23.9016  -44.4767 C.3       13 UNK        -0.1800 
     77 C          -2.4888  -24.8172  -46.6712 C.2       13 UNK         0.5000 
     78 O          -3.5976  -25.3472  -46.7567 O.2       13 UNK        -0.5000 
     79 N          -1.4044  -25.2397  -47.3387 N.am      14 UNK        -0.5000 
     80 CA         -1.3952  -26.3472  -48.2977 C.3       14 UNK         0.1400 
     81 CB          0.0527  -26.6581  -48.7051 C.3       14 UNK        -0.1800 
     82 C          -2.2568  -26.0677  -49.5434 C.2       14 UNK         0.5000 
     83 O          -2.8943  -26.9841  -50.0620 O.2       14 UNK        -0.5000 
     84 N          -2.2957  -24.8004  -49.9707 N.am      15 UNK        -0.5000 
     85 CA         -3.1014  -24.2955  -51.0800 C.3       15 UNK         0.1400 
     86 CB         -2.3147  -23.1819  -51.7856 C.3       15 UNK        -0.1800 
     87 C          -4.5008  -23.8224  -50.6309 C.2       15 UNK         0.5000 
     88 O          -5.0280  -22.8689  -51.2031 O.2       15 UNK        -0.5000 
     89 N          -5.0823  -24.4937  -49.6258 N.am      16 UNK        -0.5000 
     90 CA         -6.4545  -24.3366  -49.1301 C.3       16 UNK         0.1400 
     91 CB         -7.4583  -24.8615  -50.1782 C.3       16 UNK        -0.1800 
     92 C          -6.7861  -22.9101  -48.6403 C.2       16 UNK         0.5000 
     93 O          -7.8295  -22.3603  -48.9965 O.2       16 UNK        -0.5000 
     94 N          -5.8842  -22.3505  -47.8221 N.am      17 UNK        -0.5000 
     95 CA         -5.9244  -21.0039  -47.2400 C.3       17 UNK         0.1400 
     96 CB         -7.1566  -20.8150  -46.3285 C.3       17 UNK        -0.1800 
     97 C          -5.7709  -19.9069  -48.3132 C.2       17 UNK         0.5000 
     98 O          -6.5614  -18.9631  -48.3611 O.2       17 UNK        -0.5000 
     99 N          -4.7331  -20.0692  -49.1461 N.am      18 UNK        -0.5000 
    100 CA        -4.3319  -19.2024  -50.2584 C.3       18 UNK         0.1400 
    101 CB        -3.8376  -17.8293  -49.7525 C.3       18 UNK        -0.1800 
    102 C         -5.4111  -19.0864  -51.3541 C.2       18 UNK         0.5000 
    103 O         -5.7101  -17.9854  -51.8225 O.2       18 UNK        -0.5000 
    104 N         -5.9698  -20.2341  -51.7544 N.am      19 UNK        -0.5000 
    105 CA        -6.8484  -20.3632  -52.9135 C.3       19 UNK         0.1400 
    106 CB        -7.6939  -21.6390  -52.7494 C.3       19 UNK        -0.1800 
    107 C         -6.0287  -20.4031  -54.2197 C.2       19 UNK         0.5000 
    108 O         -4.7957  -20.3835  -54.1919 O.2       19 UNK        -0.5000 
    109 N         -6.7320  -20.5134  -55.3545 N.am      20 UNK        -0.5000 
    110 CA        -6.1627  -20.6137  -56.7052 C.3       20 UNK         0.1400 
    111 CB        -7.3066  -20.5139  -57.7270 C.3       20 UNK        -0.1800 
    112 C         -5.3143  -21.8806  -56.9632 C.2       20 UNK         0.5000 
    113 O         -4.6588  -21.9653  -58.0026 O.2       20 UNK        -0.5000 
    114 N         -5.3228  -22.8303  -56.0167 N.am      21 UNK        -0.5000 
    115 CA        -4.5680  -24.0847  -56.0144 C.3       21 UNK         0.1400 
    116 CB        -4.8865  -24.8406  -54.7144 C.3       21 UNK        -0.1800 
    117 C         -3.0422  -23.9266  -56.1832 C.2       21 UNK         0.5000 
    118 O         -2.4042  -24.8461  -56.6980 O.2       21 UNK        -0.5000 
    119 N         -2.4864  -22.7765  -55.7755 N.am      22 UNK        -0.5000 
    120 CA        -1.0834  -22.4068  -56.0286 C.3       22 UNK         0.1400 
    121 C         -0.7844  -21.9051  -57.4747 C.2       22 UNK         0.5000 
    122 N         -1.7702  -21.7184  -58.3451 N.am      22 UNK        -0.7600 
    123 O          0.3752  -21.7003  -57.8238 O.2       22 UNK        -0.5000 
    124 C124       -0.5193  -21.4549  -54.9434 C.3       23 UNK        -0.0398 
    125 S125       -1.3727  -19.8419  -54.8176 S.3       23 UNK        -0.2404 
    126 C126       -1.5967  -19.6657  -53.0166 C.3       23 UNK        -0.0205 
    127 H127       -1.2601  -12.1983  -46.1953 H         1 UNK         0.0600 
    128 H128       -0.4586  -10.7295  -46.7591 H         1 UNK         0.0600 
    129 H129       -0.2205  -11.2843  -45.0979 H         1 UNK         0.0600 
    130 H130       -0.2493  -14.0880  -46.7893 H         1 UNK         0.3000 
    131 H131        2.2062  -14.2202  -48.1435 H         1 UNK         0.0600 
    132 H132        1.8909  -16.6605  -48.1572 H         1 UNK         0.0800 
    133 H133        0.7417  -16.5673  -46.8522 H         1 UNK         0.0800 
    134 H134        0.0629  -15.2438  -51.1905 H         1 UNK         0.0800 
    135 H135        1.5961  -15.4470  -50.3921 H         1 UNK         0.0800 
    136 H136       -1.3515  -17.2685  -51.7519 H         1 UNK         0.1150 
    137 H137        0.9039  -20.7844  -52.7237 H         1 UNK         0.1150 
    138 H138        2.7539  -17.5762  -50.5779 H         1 UNK         0.1150 
    139 H139        3.6433  -19.9573  -52.7686 H         1 UNK         0.0800 
    140 H140        4.0735  -19.4632  -51.1538 H         1 UNK         0.0800 
    141 H141        3.0071  -20.5367  -49.1075 H         1 UNK         0.0800 
    142 H142        4.2983  -21.7049  -49.0649 H         1 UNK         0.0800 
    143 H143        2.5357  -23.5687  -49.1024 H         1 UNK         0.0600 
    144 H144        3.3126  -21.9828  -46.8911 H         1 UNK         0.3000 
    145 H145        1.7277  -23.7805  -44.2937 H         1 UNK         0.0600 
    146 H146        4.0664  -24.0613  -43.5311 H         1 UNK         0.0600 
    147 H147        3.7285  -25.1711  -44.8493 H         1 UNK         0.0600 
    148 H148        4.6707  -23.7162  -45.1521 H         1 UNK         0.0600 
    149 H149        3.5981  -21.6621  -44.2135 H         1 UNK         0.3000 
    150 H150        2.9923  -19.5978  -43.6158 H         1 UNK         0.0600 
    151 H151        3.0673  -19.1741  -46.0675 H         1 UNK         0.0600 
    152 H152        2.5180  -17.7383  -45.2249 H         1 UNK         0.0600 
    153 H153        1.3605  -18.7541  -46.0737 H         1 UNK         0.0600 
    154 H154        0.2952  -18.4753  -43.8650 H         1 UNK         0.3000 
    155 H155       -0.7620  -19.4390  -40.6405 H         1 UNK         0.0600 
    156 H156        0.1105  -16.5846  -41.3212 H         1 UNK         0.0600 
    157 H157       -0.9510  -17.0865  -40.0071 H         1 UNK         0.0600 
    158 H158        0.7507  -17.5173  -39.9725 H         1 UNK         0.0600 
    159 H159       -1.6533  -17.5058  -42.6221 H         1 UNK         0.3000 
    160 H160       -2.9029  -19.5726  -44.9445 H         1 UNK         0.0600 
    161 H161       -4.9579  -18.7320  -42.8366 H         1 UNK         0.0600 
    162 H162       -4.7673  -20.3485  -43.5069 H         1 UNK         0.0600 
    163 H163       -5.3004  -19.0328  -44.5394 H         1 UNK         0.0600 
    164 H164       -3.9482  -17.0411  -44.4186 H         1 UNK         0.3000 
    165 H165       -1.3278  -15.2259  -46.0322 H         1 UNK         0.0600 
    166 H166       -3.4548  -14.3815  -46.8823 H         1 UNK         0.0600 
    167 H167       -3.3219  -16.0874  -47.2689 H         1 UNK         0.0600 
    168 H168       -4.3687  -15.5646  -45.9534 H         1 UNK         0.0600 
    169 H169       -3.3420  -14.3593  -44.0984 H         1 UNK         0.3000 
    170 H170       -2.4972  -12.5324  -42.7045 H         1 UNK         0.0600 
    171 H171       -1.7506  -14.9219  -40.9060 H         1 UNK         0.0600 
    172 H172       -2.8007  -13.5859  -40.4504 H         1 UNK         0.0600 
    173 H173       -3.3139  -14.7166  -41.6858 H         1 UNK         0.0600 
    174 H174        0.2682  -13.0104  -42.1926 H         1 UNK         0.3000 
    175 H175        0.6961  -10.0549  -40.2786 H         1 UNK         0.0600 
    176 H176        2.1761  -11.4520  -38.8577 H         1 UNK         0.0600 
    177 H177        1.3685  -12.9189  -39.4107 H         1 UNK         0.0600 
    178 H178        0.4934  -11.7384  -38.4417 H         1 UNK         0.0600 
    179 H179        2.5090  -12.0199  -41.3930 H         1 UNK         0.3000 
    180 H180        2.8697  -10.3861  -44.5433 H         1 UNK         0.0600 
    181 H181        4.7278  -10.7780  -42.1419 H         1 UNK         0.0600 
    182 H182        4.4043   -9.2713  -42.9818 H         1 UNK         0.0600 
    183 H183        5.2390  -10.5721  -43.8167 H         1 UNK         0.0600 
    184 H184        2.8557  -12.5314  -44.8832 H         1 UNK         0.3000 
    185 H185        4.3382  -15.1025  -44.0602 H         1 UNK         0.0600 
    186 H186        3.4731  -15.8612  -41.8718 H         1 UNK         0.0600 
    187 H187        1.8277  -15.4587  -42.3442 H         1 UNK         0.0600 
    188 H188        2.6890  -16.7699  -43.1451 H         1 UNK         0.0600 
    189 H189        1.4577  -14.5986  -44.7059 H         1 UNK         0.3000 
    190 H190        0.9492  -20.7818  -47.5179 H         1 UNK         0.3000 
    191 H191       -1.3345  -20.6675  -49.2490 H         1 UNK         0.0600 
    192 H192       -0.6472  -18.7103  -47.9321 H         1 UNK         0.0600 
    193 H193       -2.2449  -19.2127  -47.3887 H         1 UNK         0.0600 
    194 H194       -0.8370  -19.6093  -46.4267 H         1 UNK         0.0600 
    195 H195       -0.7327  -22.1667  -46.0298 H         1 UNK         0.3000 
    196 H196       -3.3137  -23.1748  -45.5697 H         1 UNK         0.0600 
    197 H197       -2.1826  -24.6542  -43.9226 H         1 UNK         0.0600 
    198 H198       -1.5340  -23.0231  -43.8373 H         1 UNK         0.0600 
    199 H199       -0.6174  -24.2948  -44.6402 H         1 UNK         0.0600 
    200 H200       -0.5165  -24.7688  -47.1855 H         1 UNK         0.3000 
    201 H201       -1.8071  -27.2269  -47.7991 H         1 UNK         0.0600 
    202 H202        0.6528  -26.9416  -47.8403 H         1 UNK         0.0600 
    203 H203        0.5304  -25.7975  -49.1757 H         1 UNK         0.0600 
    204 H204        0.0918  -27.4860  -49.4140 H         1 UNK         0.0600 
    205 H205       -1.7300  -24.1123  -49.4885 H         1 UNK         0.3000 
    206 H206       -3.2583  -25.0964  -51.8049 H         1 UNK         0.0600 
    207 H207       -1.3393  -23.5371  -52.1183 H         1 UNK         0.0600 
    208 H208       -2.8448  -22.8167  -52.6662 H         1 UNK         0.0600 
    209 H209       -2.1525  -22.3383  -51.1144 H         1 UNK         0.0600 
    210 H210       -4.5416  -25.2230  -49.1812 H         1 UNK         0.3000 
    211 H211       -6.5336  -24.9799  -48.2525 H         1 UNK         0.0600 
    212 H212       -7.4550  -24.2521  -51.0819 H         1 UNK         0.0600 
    213 H213       -8.4752  -24.8573  -49.7842 H         1 UNK         0.0600 
    214 H214       -7.2276  -25.8872  -50.4657 H         1 UNK         0.0600 
    215 H215       -5.0121  -22.8480  -47.6876 H         1 UNK         0.3000 
    216 H216       -5.0423  -20.9244  -46.6028 H         1 UNK         0.0600 
    217 H217       -7.1250  -19.8494  -45.8240 H         1 UNK         0.0600 
    218 H218       -7.1966  -21.5834  -45.5566 H         1 UNK         0.0600 
    219 H219       -8.0915  -20.8507  -46.8875 H         1 UNK         0.0600 
    220 H220       -4.1718  -20.9069  -49.0157 H         1 UNK         0.3000 
    221 H221       -3.4826  -19.6992  -50.7280 H         1 UNK         0.0600 
    222 H222       -4.6200  -17.2831  -49.2255 H         1 UNK         0.0600 
    223 H223       -2.9870  -17.9307  -49.0826 H         1 UNK         0.0600 
    224 H224       -3.5074  -17.2019  -50.5808 H         1 UNK         0.0600 
    225 H225       -5.6295  -21.1119  -51.3673 H         1 UNK         0.3000 
    226 H226       -7.5193  -19.5028  -52.9532 H         1 UNK         0.0600 
    227 H227       -8.1809  -21.6670  -51.7742 H         1 UNK         0.0600 
    228 H228       -8.4810  -21.6943  -53.5018 H         1 UNK         0.0600 
    229 H229       -7.0874  -22.5401  -52.8439 H         1 UNK         0.0600 
    230 H230       -7.7401  -20.5371  -55.2990 H         1 UNK         0.3000 
    231 H231       -5.5009  -19.7573  -56.8493 H         1 UNK         0.0600 
    232 H232       -8.0127  -21.3383  -57.6206 H         1 UNK         0.0600 
    233 H233       -6.9248  -20.5388  -58.7486 H         1 UNK         0.0600 
    234 H234       -7.8583  -19.5806  -57.6130 H         1 UNK         0.0600 
    235 H235       -5.8819  -22.6517  -55.1967 H         1 UNK         0.3000 
    236 H236       -4.9255  -24.6807  -56.8562 H         1 UNK         0.0600 
    237 H237       -5.9480  -25.0790  -54.6456 H         1 UNK         0.0600 
    238 H238       -4.3390  -25.7826  -54.6610 H         1 UNK         0.0600 
    239 H239       -4.6188  -24.2531  -53.8358 H         1 UNK         0.0600 
    240 H240       -3.0745  -22.0572  -55.3759 H         1 UNK         0.3000 
    241 H241       -0.4964  -23.3230  -55.9390 H         1 UNK         0.0600 
    242 H242       -2.7411  -21.8814  -58.0952 H         1 UNK         0.3800 
    243 H243       -1.5487  -21.4018  -59.2755 H         1 UNK         0.3800 
    244 H244       -0.5736  -21.9669  -53.9830 H         1 UNK         0.0800 
    245 H245        0.5421  -21.2675  -55.1148 H         1 UNK         0.0800 
    246 H246       -2.4562  -19.0125  -52.8596 H         1 UNK         0.0800 
    247 H247       -1.8682  -20.6204  -52.5762 H         1 UNK         0.0800 
@<TRIPOS>BOND
     1    1    2 1    
     2    1  127 1    
     3    1  128 1    
     4    1  129 1    
     5    2    3 2    
     6    2    4 am   BACKBONE|DICT|INTERRES
     7    4    5 1    
     8    4  130 1    
     9    5    6 1    
    10    5   65 1    
    11    5  131 1    
    12    6    7 1    
    13    6  132 1    
    14    6  133 1    
    15    7    8 1    
    16    8    9 1    
    17    8  134 1    
    18    8  135 1    
    19    9   10 ar   
    20    9   14 ar   
    21   10   11 ar   
    22   10  136 1    
    23   11   12 ar   
    24   11  126 1    
    25   12   13 ar   
    26   12  137 1    
    27   13   14 ar   
    28   13   15 1    
    29   14  138 1    
    30   15   16 1    
    31   15  139 1    
    32   15  140 1    
    33   16   17 1    
    34   17   18 1    
    35   17  141 1    
    36   17  142 1    
    37   18   19 1    
    38   18   67 1    
    39   18  143 1    
    40   19   20 am   BACKBONE|DICT|INTERRES
    41   19  144 1    
    42   20   21 2    
    43   20   22 1    
    44   22   23 1    
    45   22   24 1    
    46   22  145 1    
    47   23  146 1    
    48   23  147 1    
    49   23  148 1    
    50   24   25 am   BACKBONE|DICT|INTERRES
    51   24  149 1    
    52   25   26 2    
    53   25   27 1    
    54   27   28 1    
    55   27   29 1    
    56   27  150 1    
    57   28  151 1    
    58   28  152 1    
    59   28  153 1    
    60   29   30 am   BACKBONE|DICT|INTERRES
    61   29  154 1    
    62   30   31 2    
    63   30   32 1    
    64   32   33 1    
    65   32   34 1    
    66   32  155 1    
    67   33  156 1    
    68   33  157 1    
    69   33  158 1    
    70   34   35 am   BACKBONE|DICT|INTERRES
    71   34  159 1    
    72   35   36 2    
    73   35   37 1    
    74   37   38 1    
    75   37   39 1    
    76   37  160 1    
    77   38  161 1    
    78   38  162 1    
    79   38  163 1    
    80   39   40 am   BACKBONE|DICT|INTERRES
    81   39  164 1    
    82   40   41 2    
    83   40   42 1    
    84   42   43 1    
    85   42   44 1    
    86   42  165 1    
    87   43  166 1    
    88   43  167 1    
    89   43  168 1    
    90   44   45 am   BACKBONE|DICT|INTERRES
    91   44  169 1    
    92   45   46 2    
    93   45   47 1    
    94   47   48 1    
    95   47   49 1    
    96   47  170 1    
    97   48  171 1    
    98   48  172 1    
    99   48  173 1    
   100   49   50 am   BACKBONE|DICT|INTERRES
   101   49  174 1    
   102   50   51 2    
   103   50   52 1    
   104   52   53 1    
   105   52   54 1    
   106   52  175 1    
   107   53  176 1    
   108   53  177 1    
   109   53  178 1    
   110   54   55 am   BACKBONE|DICT|INTERRES
   111   54  179 1    
   112   55   56 2    
   113   55   57 1    
   114   57   58 1    
   115   57   59 1    
   116   57  180 1    
   117   58  181 1    
   118   58  182 1    
   119   58  183 1    
   120   59   60 am   BACKBONE|DICT|INTERRES
   121   59  184 1    
   122   60   61 2    
   123   60   62 1    
   124   62   63 1    
   125   62   64 1    
   126   62  185 1    
   127   63  186 1    
   128   63  187 1    
   129   63  188 1    
   130   64   65 am   BACKBONE|DICT|INTERRES
   131   64  189 1    
   132   65   66 2    
   133   67   68 2    
   134   67   69 am   BACKBONE|DICT|INTERRES
   135   69   70 1    
   136   69  190 1    
   137   70   71 1    
   138   70   72 1    
   139   70  191 1    
   140   71  192 1    
   141   71  193 1    
   142   71  194 1    
   143   72   73 2    
   144   72   74 am   BACKBONE|DICT|INTERRES
   145   74   75 1    
   146   74  195 1    
   147   75   76 1    
   148   75   77 1    
   149   75  196 1    
   150   76  197 1    
   151   76  198 1    
   152   76  199 1    
   153   77   78 2    
   154   77   79 am   BACKBONE|DICT|INTERRES
   155   79   80 1    
   156   79  200 1    
   157   80   81 1    
   158   80   82 1    
   159   80  201 1    
   160   81  202 1    
   161   81  203 1    
   162   81  204 1    
   163   82   83 2    
   164   82   84 am   BACKBONE|DICT|INTERRES
   165   84   85 1    
   166   84  205 1    
   167   85   86 1    
   168   85   87 1    
   169   85  206 1    
   170   86  207 1    
   171   86  208 1    
   172   86  209 1    
   173   87   88 2    
   174   87   89 am   BACKBONE|DICT|INTERRES
   175   89   90 1    
   176   89  210 1    
   177   90   91 1    
   178   90   92 1    
   179   90  211 1    
   180   91  212 1    
   181   91  213 1    
   182   91  214 1    
   183   92   93 2    
   184   92   94 am   BACKBONE|DICT|INTERRES
   185   94   95 1    
   186   94  215 1    
   187   95   96 1    
   188   95   97 1    
   189   95  216 1    
   190   96  217 1    
   191   96  218 1    
   192   96  219 1    
   193   97   98 2    
   194   97   99 am   BACKBONE|DICT|INTERRES
   195   99  100 1    
   196   99  220 1    
   197  100  101 1    
   198  100  102 1    
   199  100  221 1    
   200  101  222 1    
   201  101  223 1    
   202  101  224 1    
   203  102  103 2    
   204  102  104 am   BACKBONE|DICT|INTERRES
   205  104  105 1    
   206  104  225 1    
   207  105  106 1    
   208  105  107 1    
   209  105  226 1    
   210  106  227 1    
   211  106  228 1    
   212  106  229 1    
   213  107  108 2    
   214  107  109 am   BACKBONE|DICT|INTERRES
   215  109  110 1    
   216  109  230 1    
   217  110  111 1    
   218  110  112 1    
   219  110  231 1    
   220  111  232 1    
   221  111  233 1    
   222  111  234 1    
   223  112  113 2    
   224  112  114 am   BACKBONE|DICT|INTERRES
   225  114  115 1    
   226  114  235 1    
   227  115  116 1    
   228  115  117 1    
   229  115  236 1    
   230  116  237 1    
   231  116  238 1    
   232  116  239 1    
   233  117  118 2    
   234  117  119 am   BACKBONE|DICT|INTERRES
   235  119  120 1    
   236  119  240 1    
   237  120  121 1    
   238  120  124 1    
   239  120  241 1    
   240  121  122 am   BACKBONE|DICT|INTERRES
   241  121  123 2    
   242  122  242 1    
   243  122  243 1    
   244  124  125 1    
   245  124  244 1    
   246  124  245 1    
   247  125  126 1    
   248  126  246 1    
   249  126  247 1    
@<TRIPOS>SUBSTRUCTURE
     1 UNK         1 GROUP             0       ****    0 ROOT    
