@<TRIPOS>MOLECULE
3R540
247   249    1
SMALL
USER_CHARGES


@<TRIPOS>ATOM
      1 CA         -0.9836  -13.0238  -52.3921 C.3       0 UNK        -0.1800 
      2 C          -0.1429  -12.8991  -51.1299 C.2       0 UNK         0.5000 
      3 O          -0.3874  -12.0123  -50.3125 O.2       0 UNK        -0.5000 
      4 N           0.8355  -13.7959  -50.9586 N.am      1 UNK        -0.5000 
      5 CA          1.7258  -13.8877  -49.7938 C.3       1 UNK         0.1400 
      6 C6          2.8324  -14.9490  -49.9886 C.3       23 UNK        -0.0398 
      7 S7          3.7848  -14.7564  -51.5379 S.3       23 UNK        -0.2404 
      8 C8          5.2217  -15.8423  -51.2362 C.3       23 UNK        -0.0205 
      9 C9          4.8105  -17.1753  -50.6285 C.ar      23 UNK        -0.0193 
     10 C10         4.1172  -18.1160  -51.3920 C.ar      23 UNK        -0.1150 
     11 C11         3.6311  -19.2848  -50.8012 C.ar      23 UNK        -0.0193 
     12 C12         3.8934  -19.5352  -49.4514 C.ar      23 UNK        -0.1150 
     13 C13         4.6055  -18.6099  -48.6754 C.ar      23 UNK        -0.0193 
     14 C14         5.0602  -17.4347  -49.2788 C.ar      23 UNK        -0.1150 
     15 C15         4.8900  -18.7940  -47.1836 C.3       23 UNK        -0.0205 
     16 S16         4.3809  -20.3790  -46.4381 S.3       23 UNK        -0.2404 
     17 C17         2.5620  -20.2145  -46.3529 C.3       23 UNK        -0.0398 
     18 CA          1.8468  -21.5560  -46.6443 C.3       11 UNK         0.1400 
     19 N           2.3076  -22.6290  -45.7613 N.am      11 UNK        -0.5000 
     20 C           2.3541  -23.9276  -46.0783 C.2       10 UNK         0.5000 
     21 O           2.0478  -24.3716  -47.1843 O.2       10 UNK        -0.5000 
     22 CA          2.8217  -24.8991  -44.9752 C.3       10 UNK         0.1400 
     23 CB          4.3070  -25.2437  -45.1626 C.3       10 UNK        -0.1800 
     24 N           2.6259  -24.3761  -43.6207 N.am      10 UNK        -0.5000 
     25 C           1.4345  -24.2335  -43.0237 C.2       9 UNK         0.5000 
     26 O           0.3686  -24.5719  -43.5382 O.2       9 UNK        -0.5000 
     27 CA          1.4336  -23.5489  -41.6406 C.3       9 UNK         0.1400 
     28 CB          1.6369  -24.5872  -40.5272 C.3       9 UNK        -0.1800 
     29 N           2.4330  -22.4808  -41.4964 N.am      9 UNK        -0.5000 
     30 C           2.5029  -21.3922  -42.2747 C.2       8 UNK         0.5000 
     31 O           1.7623  -21.2104  -43.2409 O.2       8 UNK        -0.5000 
     32 CA          3.6209  -20.3791  -41.9635 C.3       8 UNK         0.1400 
     33 CB          4.9707  -20.9022  -42.4797 C.3       8 UNK        -0.1800 
     34 N           3.3623  -19.0724  -42.5744 N.am      8 UNK        -0.5000 
     35 C           2.4292  -18.2055  -42.1578 C.2       7 UNK         0.5000 
     36 O           1.7472  -18.3847  -41.1457 O.2       7 UNK        -0.5000 
     37 CA          2.2455  -16.8990  -42.9674 C.3       7 UNK         0.1400 
     38 CB          3.0049  -16.8481  -44.3113 C.3       7 UNK        -0.1800 
     39 N           0.8341  -16.5619  -43.1657 N.am      7 UNK        -0.5000 
     40 C          -0.1084  -17.3111  -43.7582 C.2       6 UNK         0.5000 
     41 O           0.1277  -18.3803  -44.3188 O.2       6 UNK        -0.5000 
     42 CA         -1.5562  -16.7728  -43.7821 C.3       6 UNK         0.1400 
     43 CB         -2.5505  -17.7613  -43.1413 C.3       6 UNK        -0.1800 
     44 N          -1.7229  -15.4173  -43.2407 N.am      6 UNK        -0.5000 
     45 C          -1.6335  -15.0073  -41.9667 C.2       5 UNK         0.5000 
     46 O          -1.4247  -15.7615  -41.0159 O.2       5 UNK        -0.5000 
     47 CA         -1.7549  -13.4839  -41.7374 C.3       5 UNK         0.1400 
     48 CB         -1.3403  -13.0574  -40.3140 C.3       5 UNK        -0.1800 
     49 N          -1.0283  -12.6845  -42.7333 N.am      5 UNK        -0.5000 
     50 C           0.2706  -12.7622  -43.0605 C.2       4 UNK         0.5000 
     51 O           1.0478  -13.5794  -42.5634 O.2       4 UNK        -0.5000 
     52 CA          0.7692  -11.7732  -44.1404 C.3       4 UNK         0.1400 
     53 CB          2.2381  -12.0183  -44.5304 C.3       4 UNK        -0.1800 
     54 N          -0.0511  -11.8223  -45.3529 N.am      4 UNK        -0.5000 
     55 C          -1.2579  -11.2553  -45.5059 C.2       3 UNK         0.5000 
     56 O          -1.7875  -10.5551  -44.6420 O.2       3 UNK        -0.5000 
     57 CA         -2.0338  -11.5661  -46.8040 C.3       3 UNK         0.1400 
     58 CB         -1.8568  -10.4282  -47.8191 C.3       3 UNK        -0.1800 
     59 N          -1.6455  -12.8357  -47.4246 N.am      3 UNK        -0.5000 
     60 C          -1.7597  -14.0376  -46.8379 C.2       2 UNK         0.5000 
     61 O          -2.3292  -14.2037  -45.7590 O.2       2 UNK        -0.5000 
     62 CA         -1.0937  -15.2508  -47.5227 C.3       2 UNK         0.1400 
     63 CB         -2.1572  -16.2203  -48.0600 C.3       2 UNK        -0.1800 
     64 N          -0.1652  -14.9135  -48.6036 N.am      2 UNK        -0.5000 
     65 C           0.9545  -14.1826  -48.4883 C.2       1 UNK         0.5000 
     66 O           1.3551  -13.7141  -47.4218 O.2       1 UNK        -0.5000 
     67 C           0.3193  -21.4141  -46.5168 C.2       11 UNK         0.5000 
     68 O          -0.3743  -21.3260  -47.5295 O.2       11 UNK        -0.5000 
     69 N          -0.1821  -21.4714  -45.2734 N.am      12 UNK        -0.5000 
     70 CA         -1.6003  -21.4376  -44.9096 C.3       12 UNK         0.1400 
     71 CB         -1.7224  -21.4403  -43.3787 C.3       12 UNK        -0.1800 
     72 C          -2.4179  -22.5948  -45.5137 C.2       12 UNK         0.5000 
     73 O          -3.6127  -22.4304  -45.7621 O.2       12 UNK        -0.5000 
     74 N          -1.7476  -23.7217  -45.7965 N.am      13 UNK        -0.5000 
     75 CA         -2.2762  -24.8923  -46.4998 C.3       13 UNK         0.1400 
     76 CB         -1.1819  -25.9668  -46.5739 C.3       13 UNK        -0.1800 
     77 C          -2.8366  -24.5949  -47.9075 C.2       13 UNK         0.5000 
     78 O          -3.6550  -25.3739  -48.3969 O.2       13 UNK        -0.5000 
     79 N          -2.4522  -23.4574  -48.5123 N.am      14 UNK        -0.5000 
     80 CA         -3.0205  -22.9277  -49.7564 C.3       14 UNK         0.1400 
     81 CB         -2.2863  -21.6376  -50.1507 C.3       14 UNK        -0.1800 
     82 C          -4.5391  -22.6694  -49.6898 C.2       14 UNK         0.5000 
     83 O          -5.1904  -22.6667  -50.7345 O.2       14 UNK        -0.5000 
     84 N          -5.0969  -22.5064  -48.4794 N.am      15 UNK        -0.5000 
     85 CA         -6.5355  -22.4011  -48.2206 C.3       15 UNK         0.1400 
     86 CB         -6.7639  -22.1521  -46.7235 C.3       15 UNK        -0.1800 
     87 C          -7.3472  -23.6262  -48.6926 C.2       15 UNK         0.5000 
     88 O          -8.5208  -23.4710  -49.0301 O.2       15 UNK        -0.5000 
     89 N          -6.7077  -24.8045  -48.7750 N.am      16 UNK        -0.5000 
     90 CA         -7.2847  -26.0231  -49.3537 C.3       16 UNK         0.1400 
     91 CB         -6.3823  -27.2197  -49.0184 C.3       16 UNK        -0.1800 
     92 C          -7.5060  -25.9252  -50.8787 C.2       16 UNK         0.5000 
     93 O          -8.3563  -26.6368  -51.4134 O.2       16 UNK        -0.5000 
     94 N          -6.7650  -25.0262  -51.5400 N.am      17 UNK        -0.5000 
     95 CA         -6.9074  -24.6569  -52.9477 C.3       17 UNK         0.1400 
     96 CB         -5.5108  -24.6510  -53.5968 C.3       17 UNK        -0.1800 
     97 C          -7.6066  -23.2876  -53.0870 C.2       17 UNK         0.5000 
     98 O          -7.4067  -22.6009  -54.0890 O.2       17 UNK        -0.5000 
     99 N          -8.3798  -22.8863  -52.0641 N.am      18 UNK        -0.5000 
    100 CA        -9.1225  -21.6243  -51.9469 C.3       18 UNK         0.1400 
    101 CB       -10.2667  -21.5732  -52.9808 C.3       18 UNK        -0.1800 
    102 C         -8.2246  -20.3676  -51.9910 C.2       18 UNK         0.5000 
    103 O         -8.6871  -19.2984  -52.3912 O.2       18 UNK        -0.5000 
    104 N         -6.9529  -20.5277  -51.5925 N.am      19 UNK        -0.5000 
    105 CA        -5.8711  -19.5395  -51.6186 C.3       19 UNK         0.1400 
    106 CB        -6.1885  -18.3307  -50.7148 C.3       19 UNK        -0.1800 
    107 C         -5.4325  -19.1293  -53.0403 C.2       19 UNK         0.5000 
    108 O         -4.7211  -18.1349  -53.1849 O.2       19 UNK        -0.5000 
    109 N         -5.8064  -19.9083  -54.0672 N.am      20 UNK        -0.5000 
    110 CA        -5.4654  -19.6399  -55.4678 C.3       20 UNK         0.1400 
    111 CB        -6.2907  -20.5633  -56.3762 C.3       20 UNK        -0.1800 
    112 C         -3.9622  -19.7852  -55.7775 C.2       20 UNK         0.5000 
    113 O         -3.4821  -19.1757  -56.7340 O.2       20 UNK        -0.5000 
    114 N         -3.2519  -20.5880  -54.9723 N.am      21 UNK        -0.5000 
    115 CA        -1.8163  -20.8300  -55.0980 C.3       21 UNK         0.1400 
    116 CB        -1.4290  -22.0504  -54.2468 C.3       21 UNK        -0.1800 
    117 C         -0.9642  -19.6051  -54.7165 C.2       21 UNK         0.5000 
    118 O         -0.0386  -19.2632  -55.4539 O.2       21 UNK        -0.5000 
    119 N         -1.2804  -18.9786  -53.5756 N.am      22 UNK        -0.5000 
    120 CA        -0.4859  -17.8965  -52.9690 C.3       22 UNK         0.1400 
    121 C         -1.2238  -17.1149  -51.8428 C.2       22 UNK         0.5000 
    122 N         -2.5445  -17.1603  -51.7378 N.am      22 UNK        -0.7600 
    123 O         -0.5941  -16.4193  -51.0518 O.2       22 UNK        -0.5000 
    124 C124        0.9489  -18.3440  -52.5571 C.3       23 UNK        -0.0398 
    125 S125        1.0123  -19.8333  -51.4969 S.3       23 UNK        -0.2404 
    126 C126        2.7821  -20.2568  -51.6059 C.3       23 UNK        -0.0205 
    127 H127       -0.6567  -13.8571  -53.0148 H         1 UNK         0.0600 
    128 H128       -0.9159  -12.1093  -52.9812 H         1 UNK         0.0600 
    129 H129       -2.0288  -13.1874  -52.1298 H         1 UNK         0.0600 
    130 H130        0.9571  -14.5255  -51.6464 H         1 UNK         0.3000 
    131 H131        2.2050  -12.9138  -49.6753 H         1 UNK         0.0600 
    132 H132        2.3950  -15.9499  -49.9876 H         1 UNK         0.0800 
    133 H133        3.5303  -14.9140  -49.1499 H         1 UNK         0.0800 
    134 H134        5.7446  -16.0151  -52.1777 H         1 UNK         0.0800 
    135 H135        5.9264  -15.3235  -50.5845 H         1 UNK         0.0800 
    136 H136        3.9092  -17.9095  -52.4324 H         1 UNK         0.1150 
    137 H137        3.5148  -20.4462  -49.0151 H         1 UNK         0.1150 
    138 H138        5.5887  -16.7022  -48.6843 H         1 UNK         0.1150 
    139 H139        5.9646  -18.6906  -47.0266 H         1 UNK         0.0800 
    140 H140        4.4223  -17.9783  -46.6324 H         1 UNK         0.0800 
    141 H141        2.2288  -19.4492  -47.0559 H         1 UNK         0.0800 
    142 H142        2.3016  -19.8469  -45.3607 H         1 UNK         0.0800 
    143 H143        2.0641  -21.8315  -47.6785 H         1 UNK         0.0600 
    144 H144        2.5230  -22.3493  -44.8134 H         1 UNK         0.3000 
    145 H145        2.2400  -25.8178  -45.0771 H         1 UNK         0.0600 
    146 H146        4.6369  -25.9816  -44.4311 H         1 UNK         0.0600 
    147 H147        4.4883  -25.6654  -46.1522 H         1 UNK         0.0600 
    148 H148        4.9404  -24.3613  -45.0610 H         1 UNK         0.0600 
    149 H149        3.4509  -24.0703  -43.1262 H         1 UNK         0.3000 
    150 H150        0.4506  -23.0949  -41.5033 H         1 UNK         0.0600 
    151 H151        2.6223  -25.0513  -40.5839 H         1 UNK         0.0600 
    152 H152        0.8943  -25.3835  -40.5954 H         1 UNK         0.0600 
    153 H153        1.5345  -24.1340  -39.5411 H         1 UNK         0.0600 
    154 H154        3.0849  -22.5780  -40.7312 H         1 UNK         0.3000 
    155 H155        3.6821  -20.2522  -40.8807 H         1 UNK         0.0600 
    156 H156        4.9516  -21.0759  -43.5559 H         1 UNK         0.0600 
    157 H157        5.2376  -21.8454  -42.0016 H         1 UNK         0.0600 
    158 H158        5.7745  -20.1965  -42.2689 H         1 UNK         0.0600 
    159 H159        3.8609  -18.8710  -43.4277 H         1 UNK         0.3000 
    160 H160        2.6526  -16.1063  -42.3383 H         1 UNK         0.0600 
    161 H161        2.6431  -17.5987  -45.0114 H         1 UNK         0.0600 
    162 H162        4.0763  -16.9981  -44.1746 H         1 UNK         0.0600 
    163 H163        2.8805  -15.8748  -44.7867 H         1 UNK         0.0600 
    164 H164        0.5467  -15.6869  -42.7445 H         1 UNK         0.3000 
    165 H165       -1.8239  -16.6982  -44.8359 H         1 UNK         0.0600 
    166 H166       -3.5615  -17.3543  -43.1264 H         1 UNK         0.0600 
    167 H167       -2.5874  -18.6909  -43.7078 H         1 UNK         0.0600 
    168 H168       -2.2716  -18.0151  -42.1184 H         1 UNK         0.0600 
    169 H169       -1.8998  -14.7144  -43.9541 H         1 UNK         0.3000 
    170 H170       -2.8116  -13.2426  -41.8602 H         1 UNK         0.0600 
    171 H171       -1.9496  -13.5583  -39.5608 H         1 UNK         0.0600 
    172 H172       -0.2974  -13.3007  -40.1075 H         1 UNK         0.0600 
    173 H173       -1.4684  -11.9845  -40.1712 H         1 UNK         0.0600 
    174 H174       -1.5765  -11.9833  -43.2210 H         1 UNK         0.3000 
    175 H175        0.7036  -10.7709  -43.7122 H         1 UNK         0.0600 
    176 H176        2.3835  -13.0189  -44.9398 H         1 UNK         0.0600 
    177 H177        2.5738  -11.2992  -45.2778 H         1 UNK         0.0600 
    178 H178        2.8954  -11.9179  -43.6659 H         1 UNK         0.0600 
    179 H179        0.3037  -12.4094  -46.1002 H         1 UNK         0.3000 
    180 H180       -3.0924  -11.6333  -46.5454 H         1 UNK         0.0600 
    181 H181       -0.8137  -10.3162  -48.1177 H         1 UNK         0.0600 
    182 H182       -2.1830   -9.4754  -47.4000 H         1 UNK         0.0600 
    183 H183       -2.4457  -10.6061  -48.7191 H         1 UNK         0.0600 
    184 H184       -1.1682  -12.7723  -48.3156 H         1 UNK         0.3000 
    185 H185       -0.5166  -15.7698  -46.7551 H         1 UNK         0.0600 
    186 H186       -2.8461  -16.5276  -47.2721 H         1 UNK         0.0600 
    187 H187       -2.7480  -15.7629  -48.8541 H         1 UNK         0.0600 
    188 H188       -1.6996  -17.1257  -48.4601 H         1 UNK         0.0600 
    189 H189       -0.3909  -15.2915  -49.5216 H         1 UNK         0.3000 
    190 H190        0.4750  -21.4738  -44.4957 H         1 UNK         0.3000 
    191 H191       -2.0132  -20.5026  -45.2925 H         1 UNK         0.0600 
    192 H192       -1.1488  -20.6264  -42.9339 H         1 UNK         0.0600 
    193 H193       -2.7609  -21.3164  -43.0697 H         1 UNK         0.0600 
    194 H194       -1.3615  -22.3756  -42.9511 H         1 UNK         0.0600 
    195 H195       -0.7804  -23.7725  -45.5062 H         1 UNK         0.3000 
    196 H196       -3.1008  -25.2836  -45.9010 H         1 UNK         0.0600 
    197 H197       -1.5635  -26.8823  -47.0276 H         1 UNK         0.0600 
    198 H198       -0.8118  -26.2260  -45.5816 H         1 UNK         0.0600 
    199 H199       -0.3344  -25.6335  -47.1731 H         1 UNK         0.0600 
    200 H200       -1.7743  -22.8640  -48.0464 H         1 UNK         0.3000 
    201 H201       -2.8534  -23.6708  -50.5385 H         1 UNK         0.0600 
    202 H202       -2.6751  -21.2317  -51.0850 H         1 UNK         0.0600 
    203 H203       -1.2206  -21.8176  -50.2938 H         1 UNK         0.0600 
    204 H204       -2.3950  -20.8643  -49.3891 H         1 UNK         0.0600 
    205 H205       -4.4966  -22.5152  -47.6613 H         1 UNK         0.3000 
    206 H206       -6.9054  -21.5333  -48.7701 H         1 UNK         0.0600 
    207 H207       -6.2580  -21.2447  -46.3929 H         1 UNK         0.0600 
    208 H208       -7.8253  -22.0314  -46.5031 H         1 UNK         0.0600 
    209 H209       -6.3936  -22.9808  -46.1184 H         1 UNK         0.0600 
    210 H210       -5.7317  -24.8560  -48.5045 H         1 UNK         0.3000 
    211 H211       -8.2586  -26.1897  -48.8887 H         1 UNK         0.0600 
    212 H212       -5.4034  -27.1295  -49.4907 H         1 UNK         0.0600 
    213 H213       -6.8276  -28.1529  -49.3653 H         1 UNK         0.0600 
    214 H214       -6.2294  -27.3120  -47.9430 H         1 UNK         0.0600 
    215 H215       -6.1171  -24.4506  -51.0138 H         1 UNK         0.3000 
    216 H216       -7.5245  -25.3879  -53.4733 H         1 UNK         0.0600 
    217 H217       -5.5747  -24.4532  -54.6675 H         1 UNK         0.0600 
    218 H218       -5.0172  -25.6153  -53.4764 H         1 UNK         0.0600 
    219 H219       -4.8655  -23.8880  -53.1601 H         1 UNK         0.0600 
    220 H220       -8.4539  -23.4973  -51.2605 H         1 UNK         0.3000 
    221 H221       -9.5760  -21.6318  -50.9549 H         1 UNK         0.0600 
    222 H222       -9.8881  -21.4910  -54.0001 H         1 UNK         0.0600 
    223 H223      -10.8887  -22.4665  -52.9248 H         1 UNK         0.0600 
    224 H224      -10.9176  -20.7162  -52.8042 H         1 UNK         0.0600 
    225 H225       -6.6542  -21.4586  -51.3192 H         1 UNK         0.3000 
    226 H226       -5.0036  -20.0361  -51.1847 H         1 UNK         0.0600 
    227 H227       -6.9853  -17.7115  -51.1269 H         1 UNK         0.0600 
    228 H228       -6.4923  -18.6530  -49.7188 H         1 UNK         0.0600 
    229 H229       -5.3130  -17.6925  -50.5929 H         1 UNK         0.0600 
    230 H230       -6.3845  -20.7226  -53.8904 H         1 UNK         0.3000 
    231 H231       -5.7468  -18.6081  -55.6883 H         1 UNK         0.0600 
    232 H232       -6.0322  -21.6118  -56.2234 H         1 UNK         0.0600 
    233 H233       -6.1176  -20.3332  -57.4282 H         1 UNK         0.0600 
    234 H234       -7.3590  -20.4506  -56.1896 H         1 UNK         0.0600 
    235 H235       -3.7360  -21.0611  -54.2245 H         1 UNK         0.3000 
    236 H236       -1.6042  -21.0698  -56.1422 H         1 UNK         0.0600 
    237 H237       -0.3642  -22.2679  -54.3410 H         1 UNK         0.0600 
    238 H238       -1.6356  -21.8904  -53.1886 H         1 UNK         0.0600 
    239 H239       -1.9715  -22.9413  -54.5637 H         1 UNK         0.0600 
    240 H240       -2.0581  -19.3098  -53.0260 H         1 UNK         0.3000 
    241 H241       -0.3616  -17.1425  -53.7480 H         1 UNK         0.0600 
    242 H242       -3.1474  -17.5965  -52.4301 H         1 UNK         0.3800 
    243 H243       -2.9722  -16.6273  -51.0008 H         1 UNK         0.3800 
    244 H244        1.5336  -18.5459  -53.4546 H         1 UNK         0.0800 
    245 H245        1.4758  -17.5319  -52.0547 H         1 UNK         0.0800 
    246 H246        2.9245  -21.2714  -51.2310 H         1 UNK         0.0800 
    247 H247        3.0994  -20.2711  -52.6497 H         1 UNK         0.0800 
@<TRIPOS>BOND
     1    1    2 1    
     2    1  127 1    
     3    1  128 1    
     4    1  129 1    
     5    2    3 2    
     6    2    4 am   BACKBONE|DICT|INTERRES
     7    4    5 1    
     8    4  130 1    
     9    5    6 1    
    10    5   65 1    
    11    5  131 1    
    12    6    7 1    
    13    6  132 1    
    14    6  133 1    
    15    7    8 1    
    16    8    9 1    
    17    8  134 1    
    18    8  135 1    
    19    9   10 ar   
    20    9   14 ar   
    21   10   11 ar   
    22   10  136 1    
    23   11   12 ar   
    24   11  126 1    
    25   12   13 ar   
    26   12  137 1    
    27   13   14 ar   
    28   13   15 1    
    29   14  138 1    
    30   15   16 1    
    31   15  139 1    
    32   15  140 1    
    33   16   17 1    
    34   17   18 1    
    35   17  141 1    
    36   17  142 1    
    37   18   19 1    
    38   18   67 1    
    39   18  143 1    
    40   19   20 am   BACKBONE|DICT|INTERRES
    41   19  144 1    
    42   20   21 2    
    43   20   22 1    
    44   22   23 1    
    45   22   24 1    
    46   22  145 1    
    47   23  146 1    
    48   23  147 1    
    49   23  148 1    
    50   24   25 am   BACKBONE|DICT|INTERRES
    51   24  149 1    
    52   25   26 2    
    53   25   27 1    
    54   27   28 1    
    55   27   29 1    
    56   27  150 1    
    57   28  151 1    
    58   28  152 1    
    59   28  153 1    
    60   29   30 am   BACKBONE|DICT|INTERRES
    61   29  154 1    
    62   30   31 2    
    63   30   32 1    
    64   32   33 1    
    65   32   34 1    
    66   32  155 1    
    67   33  156 1    
    68   33  157 1    
    69   33  158 1    
    70   34   35 am   BACKBONE|DICT|INTERRES
    71   34  159 1    
    72   35   36 2    
    73   35   37 1    
    74   37   38 1    
    75   37   39 1    
    76   37  160 1    
    77   38  161 1    
    78   38  162 1    
    79   38  163 1    
    80   39   40 am   BACKBONE|DICT|INTERRES
    81   39  164 1    
    82   40   41 2    
    83   40   42 1    
    84   42   43 1    
    85   42   44 1    
    86   42  165 1    
    87   43  166 1    
    88   43  167 1    
    89   43  168 1    
    90   44   45 am   BACKBONE|DICT|INTERRES
    91   44  169 1    
    92   45   46 2    
    93   45   47 1    
    94   47   48 1    
    95   47   49 1    
    96   47  170 1    
    97   48  171 1    
    98   48  172 1    
    99   48  173 1    
   100   49   50 am   BACKBONE|DICT|INTERRES
   101   49  174 1    
   102   50   51 2    
   103   50   52 1    
   104   52   53 1    
   105   52   54 1    
   106   52  175 1    
   107   53  176 1    
   108   53  177 1    
   109   53  178 1    
   110   54   55 am   BACKBONE|DICT|INTERRES
   111   54  179 1    
   112   55   56 2    
   113   55   57 1    
   114   57   58 1    
   115   57   59 1    
   116   57  180 1    
   117   58  181 1    
   118   58  182 1    
   119   58  183 1    
   120   59   60 am   BACKBONE|DICT|INTERRES
   121   59  184 1    
   122   60   61 2    
   123   60   62 1    
   124   62   63 1    
   125   62   64 1    
   126   62  185 1    
   127   63  186 1    
   128   63  187 1    
   129   63  188 1    
   130   64   65 am   BACKBONE|DICT|INTERRES
   131   64  189 1    
   132   65   66 2    
   133   67   68 2    
   134   67   69 am   BACKBONE|DICT|INTERRES
   135   69   70 1    
   136   69  190 1    
   137   70   71 1    
   138   70   72 1    
   139   70  191 1    
   140   71  192 1    
   141   71  193 1    
   142   71  194 1    
   143   72   73 2    
   144   72   74 am   BACKBONE|DICT|INTERRES
   145   74   75 1    
   146   74  195 1    
   147   75   76 1    
   148   75   77 1    
   149   75  196 1    
   150   76  197 1    
   151   76  198 1    
   152   76  199 1    
   153   77   78 2    
   154   77   79 am   BACKBONE|DICT|INTERRES
   155   79   80 1    
   156   79  200 1    
   157   80   81 1    
   158   80   82 1    
   159   80  201 1    
   160   81  202 1    
   161   81  203 1    
   162   81  204 1    
   163   82   83 2    
   164   82   84 am   BACKBONE|DICT|INTERRES
   165   84   85 1    
   166   84  205 1    
   167   85   86 1    
   168   85   87 1    
   169   85  206 1    
   170   86  207 1    
   171   86  208 1    
   172   86  209 1    
   173   87   88 2    
   174   87   89 am   BACKBONE|DICT|INTERRES
   175   89   90 1    
   176   89  210 1    
   177   90   91 1    
   178   90   92 1    
   179   90  211 1    
   180   91  212 1    
   181   91  213 1    
   182   91  214 1    
   183   92   93 2    
   184   92   94 am   BACKBONE|DICT|INTERRES
   185   94   95 1    
   186   94  215 1    
   187   95   96 1    
   188   95   97 1    
   189   95  216 1    
   190   96  217 1    
   191   96  218 1    
   192   96  219 1    
   193   97   98 2    
   194   97   99 am   BACKBONE|DICT|INTERRES
   195   99  100 1    
   196   99  220 1    
   197  100  101 1    
   198  100  102 1    
   199  100  221 1    
   200  101  222 1    
   201  101  223 1    
   202  101  224 1    
   203  102  103 2    
   204  102  104 am   BACKBONE|DICT|INTERRES
   205  104  105 1    
   206  104  225 1    
   207  105  106 1    
   208  105  107 1    
   209  105  226 1    
   210  106  227 1    
   211  106  228 1    
   212  106  229 1    
   213  107  108 2    
   214  107  109 am   BACKBONE|DICT|INTERRES
   215  109  110 1    
   216  109  230 1    
   217  110  111 1    
   218  110  112 1    
   219  110  231 1    
   220  111  232 1    
   221  111  233 1    
   222  111  234 1    
   223  112  113 2    
   224  112  114 am   BACKBONE|DICT|INTERRES
   225  114  115 1    
   226  114  235 1    
   227  115  116 1    
   228  115  117 1    
   229  115  236 1    
   230  116  237 1    
   231  116  238 1    
   232  116  239 1    
   233  117  118 2    
   234  117  119 am   BACKBONE|DICT|INTERRES
   235  119  120 1    
   236  119  240 1    
   237  120  121 1    
   238  120  124 1    
   239  120  241 1    
   240  121  122 am   BACKBONE|DICT|INTERRES
   241  121  123 2    
   242  122  242 1    
   243  122  243 1    
   244  124  125 1    
   245  124  244 1    
   246  124  245 1    
   247  125  126 1    
   248  126  246 1    
   249  126  247 1    
@<TRIPOS>SUBSTRUCTURE
     1 UNK         1 GROUP             0       ****    0 ROOT    
