@<TRIPOS>MOLECULE
3R540
247   249    1
SMALL
USER_CHARGES


@<TRIPOS>ATOM
      1 CA          7.4359  -12.1180  -47.8491 C.3       0 UNK        -0.1800 
      2 C           6.0047  -12.3181  -47.3726 C.2       0 UNK         0.5000 
      3 O           5.6808  -11.9767  -46.2355 O.2       0 UNK        -0.5000 
      4 N           5.1364  -12.8491  -48.2413 N.am      1 UNK        -0.5000 
      5 CA          3.7205  -13.1507  -47.9885 C.3       1 UNK         0.1400 
      6 C6          3.2103  -14.2999  -48.8964 C.3       23 UNK        -0.0398 
      7 S7          3.4640  -14.0205  -50.6879 S.3       23 UNK        -0.2404 
      8 C8          3.6025  -15.7282  -51.3086 C.3       23 UNK        -0.0205 
      9 C9          2.2453  -16.4095  -51.4235 C.ar      23 UNK        -0.0193 
     10 C10         1.6215  -16.5414  -52.6695 C.ar      23 UNK        -0.1150 
     11 C11         0.3902  -17.1968  -52.7843 C.ar      23 UNK        -0.0193 
     12 C12        -0.2258  -17.7006  -51.6354 C.ar      23 UNK        -0.1150 
     13 C13         0.3785  -17.5578  -50.3848 C.ar      23 UNK        -0.0193 
     14 C14         1.6214  -16.9310  -50.2866 C.ar      23 UNK        -0.1150 
     15 C15        -0.3148  -18.0874  -49.1452 C.3       23 UNK        -0.0205 
     16 S16         0.0527  -19.8477  -48.9127 S.3       23 UNK        -0.2404 
     17 C17        -1.5258  -20.3902  -48.1926 C.3       23 UNK        -0.0398 
     18 CA         -1.4310  -21.8126  -47.6058 C.3       11 UNK         0.1400 
     19 N          -0.5862  -21.8469  -46.4097 N.am      11 UNK        -0.5000 
     20 C          -0.1441  -22.9563  -45.8057 C.2       10 UNK         0.5000 
     21 O          -0.4049  -24.0960  -46.1915 O.2       10 UNK        -0.5000 
     22 CA          0.6876  -22.7539  -44.5266 C.3       10 UNK         0.1400 
     23 CB          2.1340  -22.3661  -44.8681 C.3       10 UNK        -0.1800 
     24 N           0.1032  -21.7492  -43.6356 N.am      10 UNK        -0.5000 
     25 C          -1.0698  -21.8982  -43.0027 C.2       9 UNK         0.5000 
     26 O          -1.7601  -22.9136  -43.0761 O.2       9 UNK        -0.5000 
     27 CA         -1.5785  -20.7057  -42.1741 C.3       9 UNK         0.1400 
     28 CB         -0.8925  -20.6694  -40.8003 C.3       9 UNK        -0.1800 
     29 N          -1.4016  -19.4200  -42.8492 N.am      9 UNK        -0.5000 
     30 C          -1.9872  -19.0780  -44.0059 C.2       8 UNK         0.5000 
     31 O          -2.7647  -19.8060  -44.6217 O.2       8 UNK        -0.5000 
     32 CA         -1.5947  -17.7162  -44.6090 C.3       8 UNK         0.1400 
     33 CB         -2.3432  -16.5693  -43.9145 C.3       8 UNK        -0.1800 
     34 N          -0.1543  -17.4620  -44.5618 N.am      8 UNK        -0.5000 
     35 C           0.7760  -18.2489  -45.1218 C.2       7 UNK         0.5000 
     36 O           0.5209  -19.2795  -45.7404 O.2       7 UNK        -0.5000 
     37 CA          2.2413  -17.8512  -44.8952 C.3       7 UNK         0.1400 
     38 CB          2.6316  -16.6491  -45.7708 C.3       7 UNK        -0.1800 
     39 N           2.4942  -17.5574  -43.4855 N.am      7 UNK        -0.5000 
     40 C           2.4666  -18.4784  -42.5101 C.2       6 UNK         0.5000 
     41 O           2.2795  -19.6802  -42.7041 O.2       6 UNK        -0.5000 
     42 CA          2.6347  -17.9590  -41.0710 C.3       6 UNK         0.1400 
     43 CB          4.1207  -17.7725  -40.7304 C.3       6 UNK        -0.1800 
     44 N           1.9210  -16.7018  -40.8402 N.am      6 UNK        -0.5000 
     45 C           0.5866  -16.5744  -40.8648 C.2       5 UNK         0.5000 
     46 O          -0.1867  -17.5089  -41.0669 O.2       5 UNK        -0.5000 
     47 CA          0.0224  -15.1563  -40.6723 C.3       5 UNK         0.1400 
     48 CB         -0.1337  -14.8351  -39.1786 C.3       5 UNK        -0.1800 
     49 N           0.8313  -14.1164  -41.3125 N.am      5 UNK        -0.5000 
     50 C           1.0427  -14.0212  -42.6312 C.2       4 UNK         0.5000 
     51 O           0.6328  -14.8421  -43.4560 O.2       4 UNK        -0.5000 
     52 CA          1.8753  -12.8193  -43.1070 C.3       4 UNK         0.1400 
     53 CB          3.2593  -13.2741  -43.5960 C.3       4 UNK        -0.1800 
     54 N           1.1983  -12.1051  -44.1857 N.am      4 UNK        -0.5000 
     55 C           0.0828  -11.3747  -44.0474 C.2       3 UNK         0.5000 
     56 O          -0.4859  -11.2006  -42.9677 O.2       3 UNK        -0.5000 
     57 CA         -0.4798  -10.7313  -45.3352 C.3       3 UNK         0.1400 
     58 CB         -1.3850   -9.5129  -45.0567 C.3       3 UNK        -0.1800 
     59 N           0.5623  -10.4000  -46.3160 N.am      3 UNK        -0.5000 
     60 C           1.5784   -9.5365  -46.1737 C.2       2 UNK         0.5000 
     61 O           1.7550   -8.8380  -45.1740 O.2       2 UNK        -0.5000 
     62 CA          2.5910   -9.4997  -47.3375 C.3       2 UNK         0.1400 
     63 CB          3.6359   -8.3800  -47.1843 C.3       2 UNK        -0.1800 
     64 N           3.2940  -10.7772  -47.4647 N.am      2 UNK        -0.5000 
     65 C           2.8072  -11.8984  -48.0104 C.2       1 UNK         0.5000 
     66 O           1.6726  -11.9633  -48.4879 O.2       1 UNK        -0.5000 
     67 C          -2.8393  -22.3932  -47.3686 C.2       11 UNK         0.5000 
     68 O          -3.4266  -22.9331  -48.3068 O.2       11 UNK        -0.5000 
     69 N          -3.3584  -22.2718  -46.1407 N.am      12 UNK        -0.5000 
     70 CA         -4.6241  -22.8670  -45.7101 C.3       12 UNK         0.1400 
     71 CB         -5.1580  -22.0788  -44.5043 C.3       12 UNK        -0.1800 
     72 C          -4.5014  -24.3646  -45.3669 C.2       12 UNK         0.5000 
     73 O          -5.5241  -25.0489  -45.3044 O.2       12 UNK        -0.5000 
     74 N          -3.2716  -24.8429  -45.1382 N.am      13 UNK        -0.5000 
     75 CA         -2.9445  -26.2340  -44.8417 C.3       13 UNK         0.1400 
     76 CB         -1.7798  -26.2694  -43.8308 C.3       13 UNK        -0.1800 
     77 C          -2.6661  -27.0205  -46.1406 C.2       13 UNK         0.5000 
     78 O          -3.3093  -26.7731  -47.1631 O.2       13 UNK        -0.5000 
     79 N          -1.7250  -27.9727  -46.0763 N.am      14 UNK        -0.5000 
     80 CA         -1.4090  -28.9610  -47.1131 C.3       14 UNK         0.1400 
     81 CB         -0.3324  -29.9137  -46.5700 C.3       14 UNK        -0.1800 
     82 C          -0.9781  -28.3904  -48.4793 C.2       14 UNK         0.5000 
     83 O          -1.0923  -29.0983  -49.4810 O.2       14 UNK        -0.5000 
     84 N          -0.5010  -27.1377  -48.5116 N.am      15 UNK        -0.5000 
     85 CA         -0.1605  -26.4269  -49.7456 C.3       15 UNK         0.1400 
     86 CB          0.6429  -25.1644  -49.4012 C.3       15 UNK        -0.1800 
     87 C          -1.3987  -26.0663  -50.5911 C.2       15 UNK         0.5000 
     88 O          -1.2918  -26.0130  -51.8161 O.2       15 UNK        -0.5000 
     89 N          -2.5385  -25.8233  -49.9226 N.am      16 UNK        -0.5000 
     90 CA         -3.8689  -25.5204  -50.4705 C.3       16 UNK         0.1400 
     91 CB         -4.4378  -26.7527  -51.2010 C.3       16 UNK        -0.1800 
     92 C          -3.9603  -24.2467  -51.3417 C.2       16 UNK         0.5000 
     93 O          -4.9843  -24.0271  -51.9908 O.2       16 UNK        -0.5000 
     94 N          -2.9167  -23.4075  -51.3308 N.am      17 UNK        -0.5000 
     95 CA         -2.8012  -22.1948  -52.1397 C.3       17 UNK         0.1400 
     96 CB         -1.3721  -21.6475  -52.0318 C.3       17 UNK        -0.1800 
     97 C          -3.8348  -21.1093  -51.7910 C.2       17 UNK         0.5000 
     98 O          -4.1871  -20.3222  -52.6692 O.2       17 UNK        -0.5000 
     99 N          -4.3253  -21.0981  -50.5419 N.am      18 UNK        -0.5000 
    100 CA        -5.3885  -20.1944  -50.0972 C.3       18 UNK         0.1400 
    101 CB        -5.4056  -20.1106  -48.5637 C.3       18 UNK        -0.1800 
    102 C         -6.7652  -20.6299  -50.6269 C.2       18 UNK         0.5000 
    103 O         -7.5640  -19.7761  -51.0102 O.2       18 UNK        -0.5000 
    104 N         -7.0032  -21.9489  -50.6727 N.am      19 UNK        -0.5000 
    105 CA        -8.2175  -22.5544  -51.2237 C.3       19 UNK         0.1400 
    106 CB        -8.3096  -24.0210  -50.7743 C.3       19 UNK        -0.1800 
    107 C         -8.2655  -22.4422  -52.7579 C.2       19 UNK         0.5000 
    108 O         -9.3291  -22.1801  -53.3199 O.2       19 UNK        -0.5000 
    109 N         -7.0995  -22.5985  -53.3991 N.am      20 UNK        -0.5000 
    110 CA        -6.8948  -22.3954  -54.8339 C.3       20 UNK         0.1400 
    111 CB        -5.5792  -23.0767  -55.2416 C.3       20 UNK        -0.1800 
    112 C         -6.8731  -20.9091  -55.2484 C.2       20 UNK         0.5000 
    113 O         -6.9172  -20.6250  -56.4460 O.2       20 UNK        -0.5000 
    114 N         -6.7638  -19.9955  -54.2705 N.am      21 UNK        -0.5000 
    115 CA        -6.6528  -18.5379  -54.4097 C.3       21 UNK         0.1400 
    116 CB        -8.0004  -17.9403  -54.8627 C.3       21 UNK        -0.1800 
    117 C         -5.4692  -18.1186  -55.3091 C.2       21 UNK         0.5000 
    118 O         -5.6184  -17.2546  -56.1752 O.2       21 UNK        -0.5000 
    119 N         -4.3277  -18.7890  -55.1076 N.am      22 UNK        -0.5000 
    120 CA        -3.1020  -18.7174  -55.9230 C.3       22 UNK         0.1400 
    121 C         -3.2360  -19.2884  -57.3705 C.2       22 UNK         0.5000 
    122 N         -4.3336  -19.9322  -57.7510 N.am      22 UNK        -0.7600 
    123 O         -2.3046  -19.1812  -58.1638 O.2       22 UNK        -0.5000 
    124 C124       -2.4228  -17.3165  -55.9084 C.3       23 UNK        -0.0398 
    125 S125       -1.9556  -16.7659  -54.2325 S.3       23 UNK        -0.2404 
    126 C126       -0.2509  -17.4052  -54.1498 C.3       23 UNK        -0.0205 
    127 H127        7.7028  -11.0623  -47.8017 H         1 UNK         0.0600 
    128 H128        7.5722  -12.4582  -48.8760 H         1 UNK         0.0600 
    129 H129        8.1239  -12.6740  -47.2122 H         1 UNK         0.0600 
    130 H130        5.4507  -13.0691  -49.1763 H         1 UNK         0.3000 
    131 H131        3.6512  -13.5246  -46.9648 H         1 UNK         0.0600 
    132 H132        3.7351  -15.2132  -48.6140 H         1 UNK         0.0800 
    133 H133        2.1536  -14.5027  -48.7141 H         1 UNK         0.0800 
    134 H134        4.2616  -16.3112  -50.6637 H         1 UNK         0.0800 
    135 H135        4.0887  -15.7009  -52.2850 H         1 UNK         0.0800 
    136 H136        2.1060  -16.1507  -53.5534 H         1 UNK         0.1150 
    137 H137       -1.1767  -18.2092  -51.7158 H         1 UNK         0.1150 
    138 H138        2.0998  -16.8507  -49.3220 H         1 UNK         0.1150 
    139 H139       -0.0035  -17.5343  -48.2575 H         1 UNK         0.0800 
    140 H140       -1.3906  -17.9326  -49.2434 H         1 UNK         0.0800 
    141 H141       -2.2658  -20.3392  -48.9902 H         1 UNK         0.0800 
    142 H142       -1.8424  -19.6801  -47.4263 H         1 UNK         0.0800 
    143 H143       -0.9621  -22.4520  -48.3551 H         1 UNK         0.0600 
    144 H144       -0.2789  -20.9431  -46.0552 H         1 UNK         0.3000 
    145 H145        0.7103  -23.7057  -43.9918 H         1 UNK         0.0600 
    146 H146        2.1853  -21.4062  -45.3827 H         1 UNK         0.0600 
    147 H147        2.7445  -22.2938  -43.9679 H         1 UNK         0.0600 
    148 H148        2.5954  -23.1119  -45.5164 H         1 UNK         0.0600 
    149 H149        0.6222  -20.8868  -43.5166 H         1 UNK         0.3000 
    150 H150       -2.6491  -20.8493  -42.0138 H         1 UNK         0.0600 
    151 H151       -1.0081  -21.6206  -40.2791 H         1 UNK         0.0600 
    152 H152       -1.3253  -19.8967  -40.1649 H         1 UNK         0.0600 
    153 H153        0.1759  -20.4696  -40.8894 H         1 UNK         0.0600 
    154 H154       -0.8079  -18.7413  -42.3797 H         1 UNK         0.3000 
    155 H155       -1.8886  -17.7246  -45.6605 H         1 UNK         0.0600 
    156 H156       -3.4225  -16.7124  -43.9791 H         1 UNK         0.0600 
    157 H157       -2.0836  -16.5010  -42.8582 H         1 UNK         0.0600 
    158 H158       -2.1125  -15.6097  -44.3777 H         1 UNK         0.0600 
    159 H159        0.1442  -16.6200  -44.0772 H         1 UNK         0.3000 
    160 H160        2.8685  -18.6975  -45.1841 H         1 UNK         0.0600 
    161 H161        3.6743  -16.3700  -45.6190 H         1 UNK         0.0600 
    162 H162        2.5099  -16.8885  -46.8277 H         1 UNK         0.0600 
    163 H163        2.0146  -15.7749  -45.5634 H         1 UNK         0.0600 
    164 H164        2.5992  -16.5866  -43.2329 H         1 UNK         0.3000 
    165 H165        2.2213  -18.7117  -40.3962 H         1 UNK         0.0600 
    166 H166        4.2526  -17.4810  -39.6883 H         1 UNK         0.0600 
    167 H167        4.6741  -18.7007  -40.8795 H         1 UNK         0.0600 
    168 H168        4.5862  -17.0088  -41.3547 H         1 UNK         0.0600 
    169 H169        2.4809  -15.8803  -40.6668 H         1 UNK         0.3000 
    170 H170       -0.9690  -15.1322  -41.1291 H         1 UNK         0.0600 
    171 H171       -0.7494  -15.5855  -38.6805 H         1 UNK         0.0600 
    172 H172        0.8297  -14.8093  -38.6679 H         1 UNK         0.0600 
    173 H173       -0.6186  -13.8699  -39.0312 H         1 UNK         0.0600 
    174 H174        1.2019  -13.4000  -40.7047 H         1 UNK         0.3000 
    175 H175        2.0160  -12.1263  -42.2747 H         1 UNK         0.0600 
    176 H176        3.1874  -13.9465  -44.4507 H         1 UNK         0.0600 
    177 H177        3.8713  -12.4224  -43.8946 H         1 UNK         0.0600 
    178 H178        3.7996  -13.8008  -42.8084 H         1 UNK         0.0600 
    179 H179        1.5835  -12.2126  -45.1104 H         1 UNK         0.3000 
    180 H180       -1.0998  -11.4974  -45.8028 H         1 UNK         0.0600 
    181 H181       -0.8544   -8.7265  -44.5195 H         1 UNK         0.0600 
    182 H182       -2.2466   -9.7964  -44.4512 H         1 UNK         0.0600 
    183 H183       -1.7686   -9.0866  -45.9836 H         1 UNK         0.0600 
    184 H184        0.5573  -10.9550  -47.1671 H         1 UNK         0.3000 
    185 H185        2.0307   -9.3089  -48.2553 H         1 UNK         0.0600 
    186 H186        4.2993   -8.3406  -48.0485 H         1 UNK         0.0600 
    187 H187        3.1551   -7.4047  -47.1003 H         1 UNK         0.0600 
    188 H188        4.2526   -8.5221  -46.2958 H         1 UNK         0.0600 
    189 H189        4.2065  -10.8371  -47.0258 H         1 UNK         0.3000 
    190 H190       -2.8572  -21.7264  -45.4478 H         1 UNK         0.3000 
    191 H191       -5.3516  -22.7820  -46.5189 H         1 UNK         0.0600 
    192 H192       -4.4636  -22.1132  -43.6639 H         1 UNK         0.0600 
    193 H193       -6.1115  -22.4821  -44.1614 H         1 UNK         0.0600 
    194 H194       -5.3215  -21.0319  -44.7608 H         1 UNK         0.0600 
    195 H195       -2.4844  -24.2158  -45.2386 H         1 UNK         0.3000 
    196 H196       -3.8030  -26.7111  -44.3653 H         1 UNK         0.0600 
    197 H197       -1.5947  -27.2806  -43.4671 H         1 UNK         0.0600 
    198 H198       -2.0066  -25.6605  -42.9556 H         1 UNK         0.0600 
    199 H199       -0.8526  -25.8920  -44.2622 H         1 UNK         0.0600 
    200 H200       -1.2311  -28.0835  -45.2028 H         1 UNK         0.3000 
    201 H201       -2.3172  -29.5411  -47.2883 H         1 UNK         0.0600 
    202 H202       -0.6697  -30.4174  -45.6639 H         1 UNK         0.0600 
    203 H203        0.5916  -29.3830  -46.3369 H         1 UNK         0.0600 
    204 H204       -0.0904  -30.6893  -47.2981 H         1 UNK         0.0600 
    205 H205       -0.4400  -26.6175  -47.6474 H         1 UNK         0.3000 
    206 H206        0.4751  -27.0772  -50.3505 H         1 UNK         0.0600 
    207 H207        1.5549  -25.4117  -48.8578 H         1 UNK         0.0600 
    208 H208        0.9368  -24.6278  -50.3043 H         1 UNK         0.0600 
    209 H209        0.0631  -24.4786  -48.7861 H         1 UNK         0.0600 
    210 H210       -2.5237  -25.9299  -48.9135 H         1 UNK         0.3000 
    211 H211       -4.5047  -25.3294  -49.6048 H         1 UNK         0.0600 
    212 H212       -3.8790  -26.9762  -52.1102 H         1 UNK         0.0600 
    213 H213       -5.4787  -26.5962  -51.4868 H         1 UNK         0.0600 
    214 H214       -4.4080  -27.6359  -50.5626 H         1 UNK         0.0600 
    215 H215       -2.1266  -23.6535  -50.7550 H         1 UNK         0.3000 
    216 H216       -2.9707  -22.4763  -53.1801 H         1 UNK         0.0600 
    217 H217       -1.2592  -20.7194  -52.5943 H         1 UNK         0.0600 
    218 H218       -1.1019  -21.4427  -50.9981 H         1 UNK         0.0600 
    219 H219       -0.6482  -22.3586  -52.4301 H         1 UNK         0.0600 
    220 H220       -4.0074  -21.8027  -49.8840 H         1 UNK         0.3000 
    221 H221       -5.1810  -19.1947  -50.4856 H         1 UNK         0.0600 
    222 H222       -5.6024  -21.0818  -48.1116 H         1 UNK         0.0600 
    223 H223       -4.4602  -19.7383  -48.1713 H         1 UNK         0.0600 
    224 H224       -6.1849  -19.4289  -48.2206 H         1 UNK         0.0600 
    225 H225       -6.2729  -22.5837  -50.3854 H         1 UNK         0.3000 
    226 H226       -9.0812  -22.0209  -50.8211 H         1 UNK         0.0600 
    227 H227       -8.3203  -24.1002  -49.6871 H         1 UNK         0.0600 
    228 H228       -9.2263  -24.4830  -51.1426 H         1 UNK         0.0600 
    229 H229       -7.4733  -24.6140  -51.1454 H         1 UNK         0.0600 
    230 H230       -6.2899  -22.8988  -52.8628 H         1 UNK         0.3000 
    231 H231       -7.7130  -22.8768  -55.3732 H         1 UNK         0.0600 
    232 H232       -5.4240  -23.0172  -56.3196 H         1 UNK         0.0600 
    233 H233       -5.5788  -24.1326  -54.9703 H         1 UNK         0.0600 
    234 H234       -4.7212  -22.6066  -54.7614 H         1 UNK         0.0600 
    235 H235       -6.6946  -20.3413  -53.3241 H         1 UNK         0.3000 
    236 H236       -6.4339  -18.1494  -53.4139 H         1 UNK         0.0600 
    237 H237       -7.9642  -16.8503  -54.8649 H         1 UNK         0.0600 
    238 H238       -8.8062  -18.2364  -54.1909 H         1 UNK         0.0600 
    239 H239       -8.2678  -18.2622  -55.8696 H         1 UNK         0.0600 
    240 H240       -4.3007  -19.4491  -54.3338 H         1 UNK         0.3000 
    241 H241       -2.4123  -19.4077  -55.4365 H         1 UNK         0.0600 
    242 H242       -4.3823  -20.2997  -58.6879 H         1 UNK         0.3800 
    243 H243       -5.1371  -20.0284  -57.1402 H         1 UNK         0.3800 
    244 H244       -3.0819  -16.5663  -56.3461 H         1 UNK         0.0800 
    245 H245       -1.5246  -17.3123  -56.5281 H         1 UNK         0.0800 
    246 H246        0.3440  -16.9274  -54.9297 H         1 UNK         0.0800 
    247 H247       -0.2549  -18.4735  -54.3704 H         1 UNK         0.0800 
@<TRIPOS>BOND
     1    1    2 1    
     2    1  127 1    
     3    1  128 1    
     4    1  129 1    
     5    2    3 2    
     6    2    4 am   BACKBONE|DICT|INTERRES
     7    4    5 1    
     8    4  130 1    
     9    5    6 1    
    10    5   65 1    
    11    5  131 1    
    12    6    7 1    
    13    6  132 1    
    14    6  133 1    
    15    7    8 1    
    16    8    9 1    
    17    8  134 1    
    18    8  135 1    
    19    9   10 ar   
    20    9   14 ar   
    21   10   11 ar   
    22   10  136 1    
    23   11   12 ar   
    24   11  126 1    
    25   12   13 ar   
    26   12  137 1    
    27   13   14 ar   
    28   13   15 1    
    29   14  138 1    
    30   15   16 1    
    31   15  139 1    
    32   15  140 1    
    33   16   17 1    
    34   17   18 1    
    35   17  141 1    
    36   17  142 1    
    37   18   19 1    
    38   18   67 1    
    39   18  143 1    
    40   19   20 am   BACKBONE|DICT|INTERRES
    41   19  144 1    
    42   20   21 2    
    43   20   22 1    
    44   22   23 1    
    45   22   24 1    
    46   22  145 1    
    47   23  146 1    
    48   23  147 1    
    49   23  148 1    
    50   24   25 am   BACKBONE|DICT|INTERRES
    51   24  149 1    
    52   25   26 2    
    53   25   27 1    
    54   27   28 1    
    55   27   29 1    
    56   27  150 1    
    57   28  151 1    
    58   28  152 1    
    59   28  153 1    
    60   29   30 am   BACKBONE|DICT|INTERRES
    61   29  154 1    
    62   30   31 2    
    63   30   32 1    
    64   32   33 1    
    65   32   34 1    
    66   32  155 1    
    67   33  156 1    
    68   33  157 1    
    69   33  158 1    
    70   34   35 am   BACKBONE|DICT|INTERRES
    71   34  159 1    
    72   35   36 2    
    73   35   37 1    
    74   37   38 1    
    75   37   39 1    
    76   37  160 1    
    77   38  161 1    
    78   38  162 1    
    79   38  163 1    
    80   39   40 am   BACKBONE|DICT|INTERRES
    81   39  164 1    
    82   40   41 2    
    83   40   42 1    
    84   42   43 1    
    85   42   44 1    
    86   42  165 1    
    87   43  166 1    
    88   43  167 1    
    89   43  168 1    
    90   44   45 am   BACKBONE|DICT|INTERRES
    91   44  169 1    
    92   45   46 2    
    93   45   47 1    
    94   47   48 1    
    95   47   49 1    
    96   47  170 1    
    97   48  171 1    
    98   48  172 1    
    99   48  173 1    
   100   49   50 am   BACKBONE|DICT|INTERRES
   101   49  174 1    
   102   50   51 2    
   103   50   52 1    
   104   52   53 1    
   105   52   54 1    
   106   52  175 1    
   107   53  176 1    
   108   53  177 1    
   109   53  178 1    
   110   54   55 am   BACKBONE|DICT|INTERRES
   111   54  179 1    
   112   55   56 2    
   113   55   57 1    
   114   57   58 1    
   115   57   59 1    
   116   57  180 1    
   117   58  181 1    
   118   58  182 1    
   119   58  183 1    
   120   59   60 am   BACKBONE|DICT|INTERRES
   121   59  184 1    
   122   60   61 2    
   123   60   62 1    
   124   62   63 1    
   125   62   64 1    
   126   62  185 1    
   127   63  186 1    
   128   63  187 1    
   129   63  188 1    
   130   64   65 am   BACKBONE|DICT|INTERRES
   131   64  189 1    
   132   65   66 2    
   133   67   68 2    
   134   67   69 am   BACKBONE|DICT|INTERRES
   135   69   70 1    
   136   69  190 1    
   137   70   71 1    
   138   70   72 1    
   139   70  191 1    
   140   71  192 1    
   141   71  193 1    
   142   71  194 1    
   143   72   73 2    
   144   72   74 am   BACKBONE|DICT|INTERRES
   145   74   75 1    
   146   74  195 1    
   147   75   76 1    
   148   75   77 1    
   149   75  196 1    
   150   76  197 1    
   151   76  198 1    
   152   76  199 1    
   153   77   78 2    
   154   77   79 am   BACKBONE|DICT|INTERRES
   155   79   80 1    
   156   79  200 1    
   157   80   81 1    
   158   80   82 1    
   159   80  201 1    
   160   81  202 1    
   161   81  203 1    
   162   81  204 1    
   163   82   83 2    
   164   82   84 am   BACKBONE|DICT|INTERRES
   165   84   85 1    
   166   84  205 1    
   167   85   86 1    
   168   85   87 1    
   169   85  206 1    
   170   86  207 1    
   171   86  208 1    
   172   86  209 1    
   173   87   88 2    
   174   87   89 am   BACKBONE|DICT|INTERRES
   175   89   90 1    
   176   89  210 1    
   177   90   91 1    
   178   90   92 1    
   179   90  211 1    
   180   91  212 1    
   181   91  213 1    
   182   91  214 1    
   183   92   93 2    
   184   92   94 am   BACKBONE|DICT|INTERRES
   185   94   95 1    
   186   94  215 1    
   187   95   96 1    
   188   95   97 1    
   189   95  216 1    
   190   96  217 1    
   191   96  218 1    
   192   96  219 1    
   193   97   98 2    
   194   97   99 am   BACKBONE|DICT|INTERRES
   195   99  100 1    
   196   99  220 1    
   197  100  101 1    
   198  100  102 1    
   199  100  221 1    
   200  101  222 1    
   201  101  223 1    
   202  101  224 1    
   203  102  103 2    
   204  102  104 am   BACKBONE|DICT|INTERRES
   205  104  105 1    
   206  104  225 1    
   207  105  106 1    
   208  105  107 1    
   209  105  226 1    
   210  106  227 1    
   211  106  228 1    
   212  106  229 1    
   213  107  108 2    
   214  107  109 am   BACKBONE|DICT|INTERRES
   215  109  110 1    
   216  109  230 1    
   217  110  111 1    
   218  110  112 1    
   219  110  231 1    
   220  111  232 1    
   221  111  233 1    
   222  111  234 1    
   223  112  113 2    
   224  112  114 am   BACKBONE|DICT|INTERRES
   225  114  115 1    
   226  114  235 1    
   227  115  116 1    
   228  115  117 1    
   229  115  236 1    
   230  116  237 1    
   231  116  238 1    
   232  116  239 1    
   233  117  118 2    
   234  117  119 am   BACKBONE|DICT|INTERRES
   235  119  120 1    
   236  119  240 1    
   237  120  121 1    
   238  120  124 1    
   239  120  241 1    
   240  121  122 am   BACKBONE|DICT|INTERRES
   241  121  123 2    
   242  122  242 1    
   243  122  243 1    
   244  124  125 1    
   245  124  244 1    
   246  124  245 1    
   247  125  126 1    
   248  126  246 1    
   249  126  247 1    
@<TRIPOS>SUBSTRUCTURE
     1 UNK         1 GROUP             0       ****    0 ROOT    
