@<TRIPOS>MOLECULE
3R540
247   249    1
SMALL
USER_CHARGES


@<TRIPOS>ATOM
      1 CA         -0.5284  -10.4144  -47.1637 C.3       0 UNK        -0.1800 
      2 C          -1.0272  -11.5662  -48.0251 C.2       0 UNK         0.5000 
      3 O          -1.8820  -11.3634  -48.8873 O.2       0 UNK        -0.5000 
      4 N          -0.4957  -12.7698  -47.7981 N.am      1 UNK        -0.5000 
      5 CA         -0.8088  -13.9944  -48.5272 C.3       1 UNK         0.1400 
      6 C6         -2.1678  -14.5986  -48.0851 C.3       23 UNK        -0.0398 
      7 S7         -2.7266  -15.9903  -49.1232 S.3       23 UNK        -0.2404 
      8 C8         -4.1280  -16.5946  -48.1362 C.3       23 UNK        -0.0205 
      9 C9         -4.7786  -17.8187  -48.7637 C.ar      23 UNK        -0.0193 
     10 C10        -5.7535  -17.6690  -49.7533 C.ar      23 UNK        -0.1150 
     11 C11        -6.3931  -18.7828  -50.3081 C.ar      23 UNK        -0.0193 
     12 C12        -6.0581  -20.0604  -49.8381 C.ar      23 UNK        -0.1150 
     13 C13        -5.0749  -20.2261  -48.8598 C.ar      23 UNK        -0.0193 
     14 C14        -4.4300  -19.1021  -48.3366 C.ar      23 UNK        -0.1150 
     15 C15        -4.6778  -21.6192  -48.3976 C.3       23 UNK        -0.0205 
     16 S16        -5.2209  -21.9817  -46.6982 S.3       23 UNK        -0.2404 
     17 C17        -3.9644  -23.2168  -46.2119 C.3       23 UNK        -0.0398 
     18 CA         -2.7952  -22.5539  -45.4322 C.3       11 UNK         0.1400 
     19 N          -3.1995  -21.9919  -44.1380 N.am      11 UNK        -0.5000 
     20 C          -3.5620  -22.6561  -43.0301 C.2       10 UNK         0.5000 
     21 O          -3.6932  -23.8796  -42.9832 O.2       10 UNK        -0.5000 
     22 CA         -3.7744  -21.8267  -41.7451 C.3       10 UNK         0.1400 
     23 CB         -2.7653  -22.2491  -40.6637 C.3       10 UNK        -0.1800 
     24 N          -3.6132  -20.3909  -41.9810 N.am      10 UNK        -0.5000 
     25 C          -4.6116  -19.5244  -42.1995 C.2       9 UNK         0.5000 
     26 O          -5.8043  -19.8202  -42.1209 O.2       9 UNK        -0.5000 
     27 CA         -4.2116  -18.0883  -42.6040 C.3       9 UNK         0.1400 
     28 CB         -4.1931  -17.1677  -41.3746 C.3       9 UNK        -0.1800 
     29 N          -2.9149  -18.0053  -43.2841 N.am      9 UNK        -0.5000 
     30 C          -2.6174  -18.6095  -44.4427 C.2       8 UNK         0.5000 
     31 O          -3.4285  -19.2627  -45.0911 O.2       8 UNK        -0.5000 
     32 CA         -1.1597  -18.5448  -44.9263 C.3       8 UNK         0.1400 
     33 CB         -0.9631  -17.3309  -45.8343 C.3       8 UNK        -0.1800 
     34 N          -0.1961  -18.4986  -43.8263 N.am      8 UNK        -0.5000 
     35 C          -0.0013  -19.4828  -42.9383 C.2       7 UNK         0.5000 
     36 O          -0.5781  -20.5692  -42.9995 O.2       7 UNK        -0.5000 
     37 CA          0.9730  -19.2017  -41.7827 C.3       7 UNK         0.1400 
     38 CB          2.4144  -19.5475  -42.1748 C.3       7 UNK        -0.1800 
     39 N           0.9176  -17.8025  -41.3657 N.am      7 UNK        -0.5000 
     40 C           0.0213  -17.3054  -40.5041 C.2       6 UNK         0.5000 
     41 O          -0.8145  -17.9898  -39.9140 O.2       6 UNK        -0.5000 
     42 CA          0.0514  -15.7810  -40.2825 C.3       6 UNK         0.1400 
     43 CB          1.0263  -15.4193  -39.1520 C.3       6 UNK        -0.1800 
     44 N           0.4141  -15.0330  -41.4891 N.am      6 UNK        -0.5000 
     45 C          -0.3431  -14.9639  -42.5927 C.2       5 UNK         0.5000 
     46 O          -1.4347  -15.5201  -42.7062 O.2       5 UNK        -0.5000 
     47 CA          0.2304  -14.1719  -43.7823 C.3       5 UNK         0.1400 
     48 CB         -0.1789  -12.6946  -43.6945 C.3       5 UNK        -0.1800 
     49 N           1.6869  -14.2650  -43.9230 N.am      5 UNK        -0.5000 
     50 C           2.3616  -15.4002  -44.1467 C.2       4 UNK         0.5000 
     51 O           1.8510  -16.5225  -44.1289 O.2       4 UNK        -0.5000 
     52 CA          3.8618  -15.2712  -44.4213 C.3       4 UNK         0.1400 
     53 CB          4.6842  -15.8777  -43.2699 C.3       4 UNK        -0.1800 
     54 N           4.1479  -15.9608  -45.6739 N.am      4 UNK        -0.5000 
     55 C           5.2221  -15.7542  -46.4458 C.2       3 UNK         0.5000 
     56 O           6.1182  -14.9564  -46.1665 O.2       3 UNK        -0.5000 
     57 CA          5.3246  -16.5715  -47.7495 C.3       3 UNK         0.1400 
     58 CB          6.1696  -17.8353  -47.5236 C.3       3 UNK        -0.1800 
     59 N           4.0197  -16.9570  -48.2917 N.am      3 UNK        -0.5000 
     60 C           3.1953  -16.1288  -48.9485 C.2       2 UNK         0.5000 
     61 O           3.4895  -14.9651  -49.2319 O.2       2 UNK        -0.5000 
     62 CA          1.8250  -16.6997  -49.3888 C.3       2 UNK         0.1400 
     63 CB          1.4123  -17.9747  -48.6213 C.3       2 UNK        -0.1800 
     64 N           0.7420  -15.7094  -49.3427 N.am      2 UNK        -0.5000 
     65 C           0.3773  -14.9489  -48.3004 C.2       1 UNK         0.5000 
     66 O           0.9313  -14.9642  -47.1983 O.2       1 UNK        -0.5000 
     67 C          -1.5313  -23.4401  -45.3188 C.2       11 UNK         0.5000 
     68 O          -1.3715  -24.3880  -46.0875 O.2       11 UNK        -0.5000 
     69 N          -0.6434  -23.1041  -44.3706 N.am      12 UNK        -0.5000 
     70 CA          0.6037  -23.8214  -44.1078 C.3       12 UNK         0.1400 
     71 CB          0.9762  -23.6607  -42.6255 C.3       12 UNK        -0.1800 
     72 C           1.7456  -23.3332  -45.0149 C.2       12 UNK         0.5000 
     73 O           2.5307  -24.1503  -45.4958 O.2       12 UNK        -0.5000 
     74 N           1.8096  -22.0133  -45.2455 N.am      13 UNK        -0.5000 
     75 CA          2.7906  -21.3792  -46.1346 C.3       13 UNK         0.1400 
     76 CB          2.9807  -19.9109  -45.7216 C.3       13 UNK        -0.1800 
     77 C           2.4002  -21.4669  -47.6208 C.2       13 UNK         0.5000 
     78 O           3.2596  -21.3011  -48.4865 O.2       13 UNK        -0.5000 
     79 N           1.1096  -21.6920  -47.8874 N.am      14 UNK        -0.5000 
     80 CA          0.5332  -21.8318  -49.2178 C.3       14 UNK         0.1400 
     81 CB         -0.9833  -21.6405  -49.0920 C.3       14 UNK        -0.1800 
     82 C           0.8842  -23.2101  -49.8031 C.2       14 UNK         0.5000 
     83 O           0.3870  -24.2234  -49.3061 O.2       14 UNK        -0.5000 
     84 N           1.7461  -23.2278  -50.8276 N.am      15 UNK        -0.5000 
     85 CA          2.2174  -24.4289  -51.5192 C.3       15 UNK         0.1400 
     86 CB          3.2629  -24.0267  -52.5713 C.3       15 UNK        -0.1800 
     87 C           1.0502  -25.1995  -52.1607 C.2       15 UNK         0.5000 
     88 O           0.4083  -24.6774  -53.0723 O.2       15 UNK        -0.5000 
     89 N           0.7550  -26.3923  -51.6238 N.am      16 UNK        -0.5000 
     90 CA         -0.3936  -27.2452  -51.9639 C.3       16 UNK         0.1400 
     91 CB         -0.2296  -27.8351  -53.3805 C.3       16 UNK        -0.1800 
     92 C          -1.7571  -26.5410  -51.7627 C.2       16 UNK         0.5000 
     93 O          -2.7138  -26.8349  -52.4810 O.2       16 UNK        -0.5000 
     94 N          -1.8042  -25.6061  -50.8001 N.am      17 UNK        -0.5000 
     95 CA         -2.9161  -24.7094  -50.4706 C.3       17 UNK         0.1400 
     96 CB         -4.1588  -25.4975  -50.0063 C.3       17 UNK        -0.1800 
     97 C          -3.2408  -23.6676  -51.5661 C.2       17 UNK         0.5000 
     98 O          -4.3013  -23.0451  -51.5030 O.2       17 UNK        -0.5000 
     99 N          -2.3297  -23.4574  -52.5267 N.am      18 UNK        -0.5000 
    100 CA        -2.4186  -22.3876  -53.5158 C.3       18 UNK         0.1400 
    101 CB        -1.8623  -22.8794  -54.8607 C.3       18 UNK        -0.1800 
    102 C         -1.6335  -21.1703  -53.0050 C.2       18 UNK         0.5000 
    103 O         -0.4808  -21.3162  -52.5910 O.2       18 UNK        -0.5000 
    104 N         -2.2709  -19.9995  -53.0542 N.am      19 UNK        -0.5000 
    105 CA        -1.7612  -18.6937  -52.6526 C.3       19 UNK         0.1400 
    106 CB        -1.3946  -18.6611  -51.1569 C.3       19 UNK        -0.1800 
    107 C         -2.8508  -17.6552  -52.9520 C.2       19 UNK         0.5000 
    108 O         -4.0382  -17.9640  -52.8225 O.2       19 UNK        -0.5000 
    109 N         -2.4301  -16.4423  -53.3363 N.am      20 UNK        -0.5000 
    110 CA        -3.2798  -15.2995  -53.6879 C.3       20 UNK         0.1400 
    111 CB        -3.9307  -14.7048  -52.4177 C.3       20 UNK        -0.1800 
    112 C         -4.2831  -15.6543  -54.8087 C.2       20 UNK         0.5000 
    113 O         -3.8559  -15.9237  -55.9327 O.2       20 UNK        -0.5000 
    114 N         -5.5831  -15.6564  -54.4889 N.am      21 UNK        -0.5000 
    115 CA        -6.6701  -16.0109  -55.4016 C.3       21 UNK         0.1400 
    116 CB        -7.9743  -15.3982  -54.8664 C.3       21 UNK        -0.1800 
    117 C         -6.8398  -17.5307  -55.6043 C.2       21 UNK         0.5000 
    118 O         -7.4708  -17.9334  -56.5829 O.2       21 UNK        -0.5000 
    119 N         -6.3102  -18.3438  -54.6828 N.am      22 UNK        -0.5000 
    120 CA        -6.3946  -19.8089  -54.7141 C.3       22 UNK         0.1400 
    121 C         -5.2351  -20.4085  -55.5489 C.2       22 UNK         0.5000 
    122 N         -5.5136  -21.3741  -56.4133 N.am      22 UNK        -0.7600 
    123 O         -4.0754  -20.0412  -55.3843 O.2       22 UNK        -0.5000 
    124 C124       -6.4047  -20.4037  -53.2839 C.3       23 UNK        -0.0398 
    125 S125       -7.9402  -20.0035  -52.3793 S.3       23 UNK        -0.2404 
    126 C126       -7.4457  -18.5450  -51.3929 C.3       23 UNK        -0.0205 
    127 H127        0.3538  -10.6931  -46.5872 H         1 UNK         0.0600 
    128 H128       -1.3074  -10.1009  -46.4688 H         1 UNK         0.0600 
    129 H129       -0.2652   -9.5622  -47.7904 H         1 UNK         0.0600 
    130 H130        0.2278  -12.8966  -47.1006 H         1 UNK         0.3000 
    131 H131       -0.8555  -13.7522  -49.5914 H         1 UNK         0.0600 
    132 H132       -2.9447  -13.8350  -48.1348 H         1 UNK         0.0800 
    133 H133       -2.1254  -14.9120  -47.0418 H         1 UNK         0.0800 
    134 H134       -4.8661  -15.7977  -48.0348 H         1 UNK         0.0800 
    135 H135       -3.7910  -16.8303  -47.1257 H         1 UNK         0.0800 
    136 H136       -6.0144  -16.6768  -50.0937 H         1 UNK         0.1150 
    137 H137       -6.5448  -20.9371  -50.2390 H         1 UNK         0.1150 
    138 H138       -3.6637  -19.2291  -47.5870 H         1 UNK         0.1150 
    139 H139       -5.0856  -22.3798  -49.0636 H         1 UNK         0.0800 
    140 H140       -3.5968  -21.6999  -48.4635 H         1 UNK         0.0800 
    141 H141       -3.6114  -23.7203  -47.1134 H         1 UNK         0.0800 
    142 H142       -4.4423  -23.9888  -45.6079 H         1 UNK         0.0800 
    143 H143       -2.4636  -21.6999  -46.0246 H         1 UNK         0.0600 
    144 H144       -3.2084  -20.9794  -44.1082 H         1 UNK         0.3000 
    145 H145       -4.7802  -22.0398  -41.3780 H         1 UNK         0.0600 
    146 H146       -2.9130  -21.6825  -39.7442 H         1 UNK         0.0600 
    147 H147       -2.8753  -23.3052  -40.4142 H         1 UNK         0.0600 
    148 H148       -1.7360  -22.0951  -40.9903 H         1 UNK         0.0600 
    149 H149       -2.6608  -20.0642  -42.0772 H         1 UNK         0.3000 
    150 H150       -4.9713  -17.7204  -43.2965 H         1 UNK         0.0600 
    151 H151       -5.1543  -17.1830  -40.8592 H         1 UNK         0.0600 
    152 H152       -3.9934  -16.1343  -41.6583 H         1 UNK         0.0600 
    153 H153       -3.4303  -17.4718  -40.6574 H         1 UNK         0.0600 
    154 H154       -2.2140  -17.4087  -42.8574 H         1 UNK         0.3000 
    155 H155       -0.9514  -19.4445  -45.5089 H         1 UNK         0.0600 
    156 H156       -1.3885  -16.4298  -45.3950 H         1 UNK         0.0600 
    157 H157       -1.4402  -17.4894  -46.8010 H         1 UNK         0.0600 
    158 H158        0.0913  -17.1423  -46.0164 H         1 UNK         0.0600 
    159 H159        0.3820  -17.6649  -43.7666 H         1 UNK         0.3000 
    160 H160        0.6868  -19.8460  -40.9485 H         1 UNK         0.0600 
    161 H161        2.8022  -18.8466  -42.9132 H         1 UNK         0.0600 
    162 H162        2.4857  -20.5524  -42.5921 H         1 UNK         0.0600 
    163 H163        3.0735  -19.5090  -41.3075 H         1 UNK         0.0600 
    164 H164        1.5374  -17.1630  -41.8432 H         1 UNK         0.3000 
    165 H165       -0.9519  -15.4716  -39.9814 H         1 UNK         0.0600 
    166 H166        0.9974  -14.3518  -38.9326 H         1 UNK         0.0600 
    167 H167        0.7695  -15.9459  -38.2319 H         1 UNK         0.0600 
    168 H168        2.0539  -15.6831  -39.4056 H         1 UNK         0.0600 
    169 H169        1.2996  -14.5486  -41.4813 H         1 UNK         0.3000 
    170 H170       -0.2087  -14.5842  -44.6915 H         1 UNK         0.0600 
    171 H171       -1.2630  -12.5930  -43.6269 H         1 UNK         0.0600 
    172 H172        0.2525  -12.2081  -42.8188 H         1 UNK         0.0600 
    173 H173        0.1421  -12.1432  -44.5776 H         1 UNK         0.0600 
    174 H174        2.1892  -13.3895  -43.9399 H         1 UNK         0.3000 
    175 H175        4.1153  -14.2143  -44.5277 H         1 UNK         0.0600 
    176 H176        4.4937  -16.9459  -43.1595 H         1 UNK         0.0600 
    177 H177        5.7537  -15.7456  -43.4337 H         1 UNK         0.0600 
    178 H178        4.4406  -15.3992  -42.3207 H         1 UNK         0.0600 
    179 H179        3.4232  -16.5951  -45.9813 H         1 UNK         0.3000 
    180 H180        5.8378  -15.9524  -48.4886 H         1 UNK         0.0600 
    181 H181        5.7354  -18.4846  -46.7633 H         1 UNK         0.0600 
    182 H182        7.1754  -17.5746  -47.1917 H         1 UNK         0.0600 
    183 H183        6.2720  -18.4132  -48.4424 H         1 UNK         0.0600 
    184 H184        3.7262  -17.9090  -48.1331 H         1 UNK         0.3000 
    185 H185        1.9330  -16.9703  -50.4400 H         1 UNK         0.0600 
    186 H186        2.0294  -18.8207  -48.9211 H         1 UNK         0.0600 
    187 H187        1.5172  -17.8518  -47.5448 H         1 UNK         0.0600 
    188 H188        0.3769  -18.2486  -48.8221 H         1 UNK         0.0600 
    189 H189        0.2386  -15.5890  -50.2093 H         1 UNK         0.3000 
    190 H190       -0.8294  -22.2913  -43.7887 H         1 UNK         0.3000 
    191 H191        0.4532  -24.8859  -44.3005 H         1 UNK         0.0600 
    192 H192        0.1903  -24.0524  -41.9794 H         1 UNK         0.0600 
    193 H193        1.1379  -22.6170  -42.3563 H         1 UNK         0.0600 
    194 H194        1.8916  -24.2057  -42.3919 H         1 UNK         0.0600 
    195 H195        1.1331  -21.4121  -44.7993 H         1 UNK         0.3000 
    196 H196        3.7529  -21.8846  -46.0281 H         1 UNK         0.0600 
    197 H197        3.5508  -19.3599  -46.4685 H         1 UNK         0.0600 
    198 H198        3.5433  -19.8456  -44.7927 H         1 UNK         0.0600 
    199 H199        2.0305  -19.3930  -45.5881 H         1 UNK         0.0600 
    200 H200        0.4959  -21.8788  -47.1110 H         1 UNK         0.3000 
    201 H201        0.9279  -21.0482  -49.8681 H         1 UNK         0.0600 
    202 H202       -1.2262  -20.6522  -48.7006 H         1 UNK         0.0600 
    203 H203       -1.4181  -22.3834  -48.4235 H         1 UNK         0.0600 
    204 H204       -1.4737  -21.7349  -50.0598 H         1 UNK         0.0600 
    205 H205        2.0812  -22.3475  -51.1908 H         1 UNK         0.3000 
    206 H206        2.7062  -25.0699  -50.7827 H         1 UNK         0.0600 
    207 H207        4.1199  -23.5366  -52.1090 H         1 UNK         0.0600 
    208 H208        3.6369  -24.9022  -53.1035 H         1 UNK         0.0600 
    209 H209        2.8459  -23.3445  -53.3135 H         1 UNK         0.0600 
    210 H210        1.3183  -26.7179  -50.8501 H         1 UNK         0.3000 
    211 H211       -0.3780  -28.0761  -51.2573 H         1 UNK         0.0600 
    212 H212       -0.3053  -27.0669  -54.1506 H         1 UNK         0.0600 
    213 H213       -0.9987  -28.5804  -53.5862 H         1 UNK         0.0600 
    214 H214        0.7357  -28.3287  -53.4928 H         1 UNK         0.0600 
    215 H215       -0.9499  -25.4197  -50.2826 H         1 UNK         0.3000 
    216 H216       -2.5723  -24.1318  -49.6128 H         1 UNK         0.0600 
    217 H217       -4.9139  -24.8297  -49.5908 H         1 UNK         0.0600 
    218 H218       -3.9021  -26.2157  -49.2277 H         1 UNK         0.0600 
    219 H219       -4.6256  -26.0419  -50.8272 H         1 UNK         0.0600 
    220 H220       -1.4548  -23.9711  -52.5165 H         1 UNK         0.3000 
    221 H221       -3.4629  -22.1095  -53.6703 H         1 UNK         0.0600 
    222 H222       -0.7977  -23.1066  -54.8029 H         1 UNK         0.0600 
    223 H223       -2.3803  -23.7774  -55.1975 H         1 UNK         0.0600 
    224 H224       -1.9917  -22.1187  -55.6314 H         1 UNK         0.0600 
    225 H225       -3.1910  -19.9556  -53.4821 H         1 UNK         0.3000 
    226 H226       -0.8769  -18.4717  -53.2525 H         1 UNK         0.0600 
    227 H227       -0.5730  -19.3358  -50.9244 H         1 UNK         0.0600 
    228 H228       -1.0697  -17.6638  -50.8629 H         1 UNK         0.0600 
    229 H229       -2.2450  -18.9310  -50.5289 H         1 UNK         0.0600 
    230 H230       -1.4379  -16.2904  -53.4469 H         1 UNK         0.3000 
    231 H231       -2.6203  -14.5368  -54.1043 H         1 UNK         0.0600 
    232 H232       -4.5575  -15.4277  -51.8944 H         1 UNK         0.0600 
    233 H233       -4.5454  -13.8359  -52.6562 H         1 UNK         0.0600 
    234 H234       -3.1675  -14.3683  -51.7161 H         1 UNK         0.0600 
    235 H235       -5.8421  -15.4430  -53.5370 H         1 UNK         0.3000 
    236 H236       -6.4639  -15.5703  -56.3793 H         1 UNK         0.0600 
    237 H237       -8.8089  -15.6071  -55.5371 H         1 UNK         0.0600 
    238 H238       -8.2338  -15.7988  -53.8856 H         1 UNK         0.0600 
    239 H239       -7.8947  -14.3146  -54.7776 H         1 UNK         0.0600 
    240 H240       -5.7062  -17.9581  -53.9642 H         1 UNK         0.3000 
    241 H241       -7.3339  -20.0941  -55.1927 H         1 UNK         0.0600 
    242 H242       -4.7640  -21.7768  -56.9533 H         1 UNK         0.3800 
    243 H243       -6.4573  -21.6969  -56.5622 H         1 UNK         0.3800 
    244 H244       -6.3386  -21.4926  -53.3250 H         1 UNK         0.0800 
    245 H245       -5.5351  -20.0781  -52.7125 H         1 UNK         0.0800 
    246 H246       -7.0910  -17.7710  -52.0742 H         1 UNK         0.0800 
    247 H247       -8.3394  -18.1436  -50.9139 H         1 UNK         0.0800 
@<TRIPOS>BOND
     1    1    2 1    
     2    1  127 1    
     3    1  128 1    
     4    1  129 1    
     5    2    3 2    
     6    2    4 am   BACKBONE|DICT|INTERRES
     7    4    5 1    
     8    4  130 1    
     9    5    6 1    
    10    5   65 1    
    11    5  131 1    
    12    6    7 1    
    13    6  132 1    
    14    6  133 1    
    15    7    8 1    
    16    8    9 1    
    17    8  134 1    
    18    8  135 1    
    19    9   10 ar   
    20    9   14 ar   
    21   10   11 ar   
    22   10  136 1    
    23   11   12 ar   
    24   11  126 1    
    25   12   13 ar   
    26   12  137 1    
    27   13   14 ar   
    28   13   15 1    
    29   14  138 1    
    30   15   16 1    
    31   15  139 1    
    32   15  140 1    
    33   16   17 1    
    34   17   18 1    
    35   17  141 1    
    36   17  142 1    
    37   18   19 1    
    38   18   67 1    
    39   18  143 1    
    40   19   20 am   BACKBONE|DICT|INTERRES
    41   19  144 1    
    42   20   21 2    
    43   20   22 1    
    44   22   23 1    
    45   22   24 1    
    46   22  145 1    
    47   23  146 1    
    48   23  147 1    
    49   23  148 1    
    50   24   25 am   BACKBONE|DICT|INTERRES
    51   24  149 1    
    52   25   26 2    
    53   25   27 1    
    54   27   28 1    
    55   27   29 1    
    56   27  150 1    
    57   28  151 1    
    58   28  152 1    
    59   28  153 1    
    60   29   30 am   BACKBONE|DICT|INTERRES
    61   29  154 1    
    62   30   31 2    
    63   30   32 1    
    64   32   33 1    
    65   32   34 1    
    66   32  155 1    
    67   33  156 1    
    68   33  157 1    
    69   33  158 1    
    70   34   35 am   BACKBONE|DICT|INTERRES
    71   34  159 1    
    72   35   36 2    
    73   35   37 1    
    74   37   38 1    
    75   37   39 1    
    76   37  160 1    
    77   38  161 1    
    78   38  162 1    
    79   38  163 1    
    80   39   40 am   BACKBONE|DICT|INTERRES
    81   39  164 1    
    82   40   41 2    
    83   40   42 1    
    84   42   43 1    
    85   42   44 1    
    86   42  165 1    
    87   43  166 1    
    88   43  167 1    
    89   43  168 1    
    90   44   45 am   BACKBONE|DICT|INTERRES
    91   44  169 1    
    92   45   46 2    
    93   45   47 1    
    94   47   48 1    
    95   47   49 1    
    96   47  170 1    
    97   48  171 1    
    98   48  172 1    
    99   48  173 1    
   100   49   50 am   BACKBONE|DICT|INTERRES
   101   49  174 1    
   102   50   51 2    
   103   50   52 1    
   104   52   53 1    
   105   52   54 1    
   106   52  175 1    
   107   53  176 1    
   108   53  177 1    
   109   53  178 1    
   110   54   55 am   BACKBONE|DICT|INTERRES
   111   54  179 1    
   112   55   56 2    
   113   55   57 1    
   114   57   58 1    
   115   57   59 1    
   116   57  180 1    
   117   58  181 1    
   118   58  182 1    
   119   58  183 1    
   120   59   60 am   BACKBONE|DICT|INTERRES
   121   59  184 1    
   122   60   61 2    
   123   60   62 1    
   124   62   63 1    
   125   62   64 1    
   126   62  185 1    
   127   63  186 1    
   128   63  187 1    
   129   63  188 1    
   130   64   65 am   BACKBONE|DICT|INTERRES
   131   64  189 1    
   132   65   66 2    
   133   67   68 2    
   134   67   69 am   BACKBONE|DICT|INTERRES
   135   69   70 1    
   136   69  190 1    
   137   70   71 1    
   138   70   72 1    
   139   70  191 1    
   140   71  192 1    
   141   71  193 1    
   142   71  194 1    
   143   72   73 2    
   144   72   74 am   BACKBONE|DICT|INTERRES
   145   74   75 1    
   146   74  195 1    
   147   75   76 1    
   148   75   77 1    
   149   75  196 1    
   150   76  197 1    
   151   76  198 1    
   152   76  199 1    
   153   77   78 2    
   154   77   79 am   BACKBONE|DICT|INTERRES
   155   79   80 1    
   156   79  200 1    
   157   80   81 1    
   158   80   82 1    
   159   80  201 1    
   160   81  202 1    
   161   81  203 1    
   162   81  204 1    
   163   82   83 2    
   164   82   84 am   BACKBONE|DICT|INTERRES
   165   84   85 1    
   166   84  205 1    
   167   85   86 1    
   168   85   87 1    
   169   85  206 1    
   170   86  207 1    
   171   86  208 1    
   172   86  209 1    
   173   87   88 2    
   174   87   89 am   BACKBONE|DICT|INTERRES
   175   89   90 1    
   176   89  210 1    
   177   90   91 1    
   178   90   92 1    
   179   90  211 1    
   180   91  212 1    
   181   91  213 1    
   182   91  214 1    
   183   92   93 2    
   184   92   94 am   BACKBONE|DICT|INTERRES
   185   94   95 1    
   186   94  215 1    
   187   95   96 1    
   188   95   97 1    
   189   95  216 1    
   190   96  217 1    
   191   96  218 1    
   192   96  219 1    
   193   97   98 2    
   194   97   99 am   BACKBONE|DICT|INTERRES
   195   99  100 1    
   196   99  220 1    
   197  100  101 1    
   198  100  102 1    
   199  100  221 1    
   200  101  222 1    
   201  101  223 1    
   202  101  224 1    
   203  102  103 2    
   204  102  104 am   BACKBONE|DICT|INTERRES
   205  104  105 1    
   206  104  225 1    
   207  105  106 1    
   208  105  107 1    
   209  105  226 1    
   210  106  227 1    
   211  106  228 1    
   212  106  229 1    
   213  107  108 2    
   214  107  109 am   BACKBONE|DICT|INTERRES
   215  109  110 1    
   216  109  230 1    
   217  110  111 1    
   218  110  112 1    
   219  110  231 1    
   220  111  232 1    
   221  111  233 1    
   222  111  234 1    
   223  112  113 2    
   224  112  114 am   BACKBONE|DICT|INTERRES
   225  114  115 1    
   226  114  235 1    
   227  115  116 1    
   228  115  117 1    
   229  115  236 1    
   230  116  237 1    
   231  116  238 1    
   232  116  239 1    
   233  117  118 2    
   234  117  119 am   BACKBONE|DICT|INTERRES
   235  119  120 1    
   236  119  240 1    
   237  120  121 1    
   238  120  124 1    
   239  120  241 1    
   240  121  122 am   BACKBONE|DICT|INTERRES
   241  121  123 2    
   242  122  242 1    
   243  122  243 1    
   244  124  125 1    
   245  124  244 1    
   246  124  245 1    
   247  125  126 1    
   248  126  246 1    
   249  126  247 1    
@<TRIPOS>SUBSTRUCTURE
     1 UNK         1 GROUP             0       ****    0 ROOT    
