@<TRIPOS>MOLECULE
3R540
247   249    1
SMALL
USER_CHARGES


@<TRIPOS>ATOM
      1 CA          6.6172  -11.9793  -48.5473 C.3       0 UNK        -0.1800 
      2 C           6.3095  -13.4677  -48.6325 C.2       0 UNK         0.5000 
      3 O           7.1965  -14.2600  -48.9519 O.2       0 UNK        -0.5000 
      4 N           5.0554  -13.8463  -48.3588 N.am      1 UNK        -0.5000 
      5 CA          4.5759  -15.2326  -48.3361 C.3       1 UNK         0.1400 
      6 C6          3.0263  -15.3089  -48.3117 C.3       23 UNK        -0.0398 
      7 S7          2.2184  -14.3344  -49.6349 S.3       23 UNK        -0.2404 
      8 C8          2.6348  -15.2514  -51.1557 C.3       23 UNK        -0.0205 
      9 C9          1.9136  -16.5867  -51.2275 C.ar      23 UNK        -0.0193 
     10 C10         0.6540  -16.6828  -51.8256 C.ar      23 UNK        -0.1150 
     11 C11        -0.0316  -17.9020  -51.8474 C.ar      23 UNK        -0.0193 
     12 C12         0.5509  -19.0258  -51.2509 C.ar      23 UNK        -0.1150 
     13 C13         1.8186  -18.9427  -50.6656 C.ar      23 UNK        -0.0193 
     14 C14         2.5042  -17.7274  -50.6833 C.ar      23 UNK        -0.1150 
     15 C15         2.4404  -20.1523  -49.9833 C.3       23 UNK        -0.0205 
     16 S16         2.7930  -19.8503  -48.2160 S.3       23 UNK        -0.2404 
     17 C17         1.1605  -19.3630  -47.5657 C.3       23 UNK        -0.0398 
     18 CA          0.3807  -20.5476  -46.9492 C.3       11 UNK         0.1400 
     19 N          -0.6171  -20.0952  -45.9795 N.am      11 UNK        -0.5000 
     20 C          -1.3021  -20.8992  -45.1551 C.2       10 UNK         0.5000 
     21 O          -1.1139  -22.1121  -45.0645 O.2       10 UNK        -0.5000 
     22 CA         -2.4207  -20.2389  -44.3333 C.3       10 UNK         0.1400 
     23 CB         -1.8604  -19.6683  -43.0244 C.3       10 UNK        -0.1800 
     24 N          -3.0993  -19.1842  -45.0909 N.am      10 UNK        -0.5000 
     25 C          -3.9318  -19.4288  -46.1154 C.2       9 UNK         0.5000 
     26 O          -4.2482  -20.5641  -46.4698 O.2       9 UNK        -0.5000 
     27 CA         -4.4682  -18.2172  -46.9061 C.3       9 UNK         0.1400 
     28 CB         -5.7620  -17.6891  -46.2696 C.3       9 UNK        -0.1800 
     29 N          -3.5058  -17.1202  -47.0173 N.am      9 UNK        -0.5000 
     30 C          -2.3076  -17.2073  -47.6126 C.2       8 UNK         0.5000 
     31 O          -1.9099  -18.2185  -48.1862 O.2       8 UNK        -0.5000 
     32 CA         -1.3651  -15.9930  -47.4823 C.3       8 UNK         0.1400 
     33 CB         -1.4280  -15.1138  -48.7380 C.3       8 UNK        -0.1800 
     34 N          -1.6263  -15.1640  -46.2999 N.am      8 UNK        -0.5000 
     35 C          -1.5378  -15.5920  -45.0331 C.2       7 UNK         0.5000 
     36 O          -1.2497  -16.7534  -44.7389 O.2       7 UNK        -0.5000 
     37 CA         -1.8469  -14.5405  -43.9491 C.3       7 UNK         0.1400 
     38 CB         -3.3436  -14.1666  -43.9341 C.3       7 UNK        -0.1800 
     39 N          -1.3688  -14.9251  -42.6171 N.am      7 UNK        -0.5000 
     40 C          -1.8304  -15.8795  -41.7924 C.2       6 UNK         0.5000 
     41 O          -2.8605  -16.5242  -41.9929 O.2       6 UNK        -0.5000 
     42 CA         -1.0065  -16.1508  -40.5138 C.3       6 UNK         0.1400 
     43 CB         -0.8498  -17.6567  -40.2400 C.3       6 UNK        -0.1800 
     44 N           0.3297  -15.5618  -40.6054 N.am      6 UNK        -0.5000 
     45 C           0.7942  -14.5429  -39.8706 C.2       5 UNK         0.5000 
     46 O           0.1605  -14.0134  -38.9571 O.2       5 UNK        -0.5000 
     47 CA          2.1978  -14.0031  -40.2266 C.3       5 UNK         0.1400 
     48 CB          3.2537  -14.5915  -39.2785 C.3       5 UNK        -0.1800 
     49 N           2.6057  -14.2668  -41.6105 N.am      5 UNK        -0.5000 
     50 C           1.9811  -13.8018  -42.7014 C.2       4 UNK         0.5000 
     51 O           1.0184  -13.0359  -42.6577 O.2       4 UNK        -0.5000 
     52 CA          2.4646  -14.3192  -44.0714 C.3       4 UNK         0.1400 
     53 CB          3.4333  -13.3015  -44.6936 C.3       4 UNK        -0.1800 
     54 N           3.0791  -15.6576  -44.0666 N.am      4 UNK        -0.5000 
     55 C           2.5216  -16.7765  -43.5684 C.2       3 UNK         0.5000 
     56 O           1.4412  -16.7847  -42.9799 O.2       3 UNK        -0.5000 
     57 CA          3.2960  -18.0982  -43.7330 C.3       3 UNK         0.1400 
     58 CB          2.3642  -19.3239  -43.7609 C.3       3 UNK        -0.1800 
     59 N           4.1162  -18.0831  -44.9443 N.am      3 UNK        -0.5000 
     60 C           5.4306  -18.3337  -44.9887 C.2       2 UNK         0.5000 
     61 O           6.0965  -18.6710  -44.0090 O.2       2 UNK        -0.5000 
     62 CA          6.1375  -18.1594  -46.3500 C.3       2 UNK         0.1400 
     63 CB          6.4290  -19.5257  -46.9895 C.3       2 UNK        -0.1800 
     64 N           5.4295  -17.3103  -47.3187 N.am      2 UNK        -0.5000 
     65 C           5.1891  -16.0030  -47.1451 C.2       1 UNK         0.5000 
     66 O           5.4149  -15.4128  -46.0859 O.2       1 UNK        -0.5000 
     67 C          -0.2711  -21.4309  -48.0310 C.2       11 UNK         0.5000 
     68 O           0.2312  -22.5174  -48.3124 O.2       11 UNK        -0.5000 
     69 N          -1.4076  -20.9735  -48.5746 N.am      12 UNK        -0.5000 
     70 CA         -2.2371  -21.7074  -49.5277 C.3       12 UNK         0.1400 
     71 CB         -3.4058  -20.8244  -49.9769 C.3       12 UNK        -0.1800 
     72 C          -2.7500  -23.0429  -48.9657 C.2       12 UNK         0.5000 
     73 O          -2.6705  -24.0555  -49.6589 O.2       12 UNK        -0.5000 
     74 N          -3.2200  -23.0386  -47.7104 N.am      13 UNK        -0.5000 
     75 CA         -3.6395  -24.2386  -46.9863 C.3       13 UNK         0.1400 
     76 CB         -4.2730  -23.8464  -45.6440 C.3       13 UNK        -0.1800 
     77 C          -2.4933  -25.2480  -46.7885 C.2       13 UNK         0.5000 
     78 O          -2.6864  -26.4353  -47.0512 O.2       13 UNK        -0.5000 
     79 N          -1.3119  -24.7578  -46.3847 N.am      14 UNK        -0.5000 
     80 CA         -0.0893  -25.5526  -46.2319 C.3       14 UNK         0.1400 
     81 CB          0.9953  -24.6997  -45.5563 C.3       14 UNK        -0.1800 
     82 C           0.4246  -26.1380  -47.5628 C.2       14 UNK         0.5000 
     83 O           0.9028  -27.2725  -47.5850 O.2       14 UNK        -0.5000 
     84 N           0.2848  -25.3690  -48.6501 N.am      15 UNK        -0.5000 
     85 CA          0.6187  -25.7628  -50.0204 C.3       15 UNK         0.1400 
     86 CB          0.7737  -24.4910  -50.8714 C.3       15 UNK        -0.1800 
     87 C          -0.4082  -26.7187  -50.6655 C.2       15 UNK         0.5000 
     88 O          -0.1464  -27.2169  -51.7612 O.2       15 UNK        -0.5000 
     89 N          -1.5514  -26.9437  -49.9986 N.am      16 UNK        -0.5000 
     90 CA         -2.7129  -27.7179  -50.4515 C.3       16 UNK         0.1400 
     91 CB         -2.3571  -29.2077  -50.6377 C.3       16 UNK        -0.1800 
     92 C          -3.4011  -27.0920  -51.6849 C.2       16 UNK         0.5000 
     93 O          -3.8953  -27.8078  -52.5575 O.2       16 UNK        -0.5000 
     94 N          -3.4334  -25.7558  -51.7148 N.am      17 UNK        -0.5000 
     95 CA         -4.0553  -24.9123  -52.7320 C.3       17 UNK         0.1400 
     96 CB         -2.9509  -24.1198  -53.4548 C.3       17 UNK        -0.1800 
     97 C          -5.0939  -23.9908  -52.0638 C.2       17 UNK         0.5000 
     98 O          -5.2252  -22.8263  -52.4415 O.2       17 UNK        -0.5000 
     99 N          -5.8086  -24.5328  -51.0656 N.am      18 UNK        -0.5000 
    100 CA        -6.7097  -23.8451  -50.1312 C.3       18 UNK         0.1400 
    101 CB        -7.2223  -24.8768  -49.1128 C.3       18 UNK        -0.1800 
    102 C         -7.8951  -23.0771  -50.7566 C.2       18 UNK         0.5000 
    103 O         -8.5706  -22.3339  -50.0440 O.2       18 UNK        -0.5000 
    104 N         -8.1336  -23.2575  -52.0622 N.am      19 UNK        -0.5000 
    105 CA        -9.0681  -22.4637  -52.8599 C.3       19 UNK         0.1400 
    106 CB        -9.2393  -23.1275  -54.2347 C.3       19 UNK        -0.1800 
    107 C         -8.6266  -20.9931  -53.0196 C.2       19 UNK         0.5000 
    108 O         -9.4850  -20.1268  -53.1877 O.2       19 UNK        -0.5000 
    109 N         -7.3120  -20.7336  -52.9581 N.am      20 UNK        -0.5000 
    110 CA        -6.7294  -19.3931  -52.9259 C.3       20 UNK         0.1400 
    111 CB        -5.2459  -19.5019  -53.3146 C.3       20 UNK        -0.1800 
    112 C         -6.8947  -18.7843  -51.5126 C.2       20 UNK         0.5000 
    113 O         -6.6165  -19.4899  -50.5431 O.2       20 UNK        -0.5000 
    114 N         -7.3171  -17.5220  -51.3233 N.am      21 UNK        -0.5000 
    115 CA        -7.6708  -16.4550  -52.2713 C.3       21 UNK         0.1400 
    116 CB        -9.0052  -16.7377  -52.9929 C.3       21 UNK        -0.1800 
    117 C         -6.5106  -16.0648  -53.2056 C.2       21 UNK         0.5000 
    118 O         -6.6853  -15.9824  -54.4220 O.2       21 UNK        -0.5000 
    119 N         -5.3320  -15.8815  -52.6016 N.am      22 UNK        -0.5000 
    120 CA        -4.0748  -15.5057  -53.2634 C.3       22 UNK         0.1400 
    121 C         -4.1266  -14.0924  -53.9083 C.2       22 UNK         0.5000 
    122 N         -3.4864  -13.9022  -55.0540 N.am      22 UNK        -0.7600 
    123 O         -4.7047  -13.1574  -53.3583 O.2       22 UNK        -0.5000 
    124 C124       -2.8759  -15.6074  -52.2866 C.3       23 UNK        -0.0398 
    125 S125       -2.7228  -17.2677  -51.5406 S.3       23 UNK        -0.2404 
    126 C126       -1.3897  -18.0158  -52.5279 C.3       23 UNK        -0.0205 
    127 H127        5.7387  -11.3992  -48.2634 H         1 UNK         0.0600 
    128 H128        6.9697  -11.6128  -49.5114 H         1 UNK         0.0600 
    129 H129        7.3966  -11.7996  -47.8068 H         1 UNK         0.0600 
    130 H130        4.3723  -13.1471  -48.1076 H         1 UNK         0.3000 
    131 H131        4.9276  -15.7135  -49.2504 H         1 UNK         0.0600 
    132 H132        2.6828  -16.3417  -48.3674 H         1 UNK         0.0800 
    133 H133        2.6440  -14.9314  -47.3625 H         1 UNK         0.0800 
    134 H134        2.3572  -14.6399  -52.0155 H         1 UNK         0.0800 
    135 H135        3.7135  -15.3926  -51.2276 H         1 UNK         0.0800 
    136 H136        0.2071  -15.8037  -52.2648 H         1 UNK         0.1150 
    137 H137        0.0166  -19.9653  -51.2422 H         1 UNK         0.1150 
    138 H138        3.4842  -17.6636  -50.2335 H         1 UNK         0.1150 
    139 H139        1.7985  -21.0285  -50.0811 H         1 UNK         0.0800 
    140 H140        3.3736  -20.4025  -50.4895 H         1 UNK         0.0800 
    141 H141        1.3508  -18.6090  -46.8019 H         1 UNK         0.0800 
    142 H142        0.5779  -18.8487  -48.3291 H         1 UNK         0.0800 
    143 H143        1.0880  -21.1714  -46.3978 H         1 UNK         0.0600 
    144 H144       -0.8677  -19.1169  -46.0025 H         1 UNK         0.3000 
    145 H145       -3.1520  -21.0089  -44.0793 H         1 UNK         0.0600 
    146 H146       -2.6525  -19.2348  -42.4144 H         1 UNK         0.0600 
    147 H147       -1.3824  -20.4484  -42.4307 H         1 UNK         0.0600 
    148 H148       -1.1142  -18.8946  -43.2076 H         1 UNK         0.0600 
    149 H149       -2.8325  -18.2302  -44.8761 H         1 UNK         0.3000 
    150 H150       -4.7002  -18.5573  -47.9174 H         1 UNK         0.0600 
    151 H151       -6.5096  -18.4798  -46.1940 H         1 UNK         0.0600 
    152 H152       -6.1976  -16.8882  -46.8673 H         1 UNK         0.0600 
    153 H153       -5.5879  -17.3034  -45.2642 H         1 UNK         0.0600 
    154 H154       -3.7479  -16.2551  -46.5587 H         1 UNK         0.3000 
    155 H155       -0.3477  -16.3797  -47.3929 H         1 UNK         0.0600 
    156 H156       -0.7630  -14.2543  -48.6555 H         1 UNK         0.0600 
    157 H157       -2.4371  -14.7445  -48.9235 H         1 UNK         0.0600 
    158 H158       -1.1125  -15.6767  -49.6166 H         1 UNK         0.0600 
    159 H159       -1.8755  -14.2014  -46.4766 H         1 UNK         0.3000 
    160 H160       -1.2826  -13.6436  -44.2088 H         1 UNK         0.0600 
    161 H161       -3.9836  -15.0400  -43.8066 H         1 UNK         0.0600 
    162 H162       -3.6375  -13.6872  -44.8682 H         1 UNK         0.0600 
    163 H163       -3.5673  -13.4661  -43.1294 H         1 UNK         0.0600 
    164 H164       -0.5174  -14.4552  -42.3352 H         1 UNK         0.3000 
    165 H165       -1.5644  -15.7115  -39.6849 H         1 UNK         0.0600 
    166 H166       -0.2906  -18.1498  -41.0355 H         1 UNK         0.0600 
    167 H167       -0.3191  -17.8308  -39.3040 H         1 UNK         0.0600 
    168 H168       -1.8188  -18.1502  -40.1580 H         1 UNK         0.0600 
    169 H169        0.9034  -15.9292  -41.3614 H         1 UNK         0.3000 
    170 H170        2.1757  -12.9204  -40.0867 H         1 UNK         0.0600 
    171 H171        3.0003  -14.3893  -38.2369 H         1 UNK         0.0600 
    172 H172        3.3371  -15.6731  -39.3920 H         1 UNK         0.0600 
    173 H173        4.2363  -14.1565  -39.4623 H         1 UNK         0.0600 
    174 H174        3.3831  -14.8971  -41.7405 H         1 UNK         0.3000 
    175 H175        1.5821  -14.3789  -44.7114 H         1 UNK         0.0600 
    176 H176        4.3957  -13.2975  -44.1804 H         1 UNK         0.0600 
    177 H177        3.6146  -13.5144  -45.7449 H         1 UNK         0.0600 
    178 H178        3.0302  -12.2889  -44.6435 H         1 UNK         0.0600 
    179 H179        3.9829  -15.7283  -44.5211 H         1 UNK         0.3000 
    180 H180        3.9296  -18.1817  -42.8481 H         1 UNK         0.0600 
    181 H181        1.6169  -19.2388  -44.5471 H         1 UNK         0.0600 
    182 H182        1.8294  -19.4323  -42.8164 H         1 UNK         0.0600 
    183 H183        2.9232  -20.2452  -43.9247 H         1 UNK         0.0600 
    184 H184        3.6542  -17.8143  -45.8001 H         1 UNK         0.3000 
    185 H185        7.0966  -17.6790  -46.1447 H         1 UNK         0.0600 
    186 H186        6.9854  -19.4180  -47.9207 H         1 UNK         0.0600 
    187 H187        7.0310  -20.1462  -46.3243 H         1 UNK         0.0600 
    188 H188        5.5140  -20.0761  -47.2047 H         1 UNK         0.0600 
    189 H189        5.2026  -17.7453  -48.2011 H         1 UNK         0.3000 
    190 H190       -1.7194  -20.0354  -48.3308 H         1 UNK         0.3000 
    191 H191       -1.6214  -21.9279  -50.4017 H         1 UNK         0.0600 
    192 H192       -3.0482  -19.9131  -50.4518 H         1 UNK         0.0600 
    193 H193       -4.0459  -20.5382  -49.1437 H         1 UNK         0.0600 
    194 H194       -4.0324  -21.3445  -50.6986 H         1 UNK         0.0600 
    195 H195       -3.3123  -22.1532  -47.2222 H         1 UNK         0.3000 
    196 H196       -4.4056  -24.7298  -47.5876 H         1 UNK         0.0600 
    197 H197       -3.5652  -23.3249  -45.0001 H         1 UNK         0.0600 
    198 H198       -4.6203  -24.7281  -45.1041 H         1 UNK         0.0600 
    199 H199       -5.1345  -23.1948  -45.7910 H         1 UNK         0.0600 
    200 H200       -1.2414  -23.7704  -46.1569 H         1 UNK         0.3000 
    201 H201       -0.3200  -26.3910  -45.5715 H         1 UNK         0.0600 
    202 H202        0.6671  -24.3475  -44.5782 H         1 UNK         0.0600 
    203 H203        1.2533  -23.8262  -46.1556 H         1 UNK         0.0600 
    204 H204        1.9087  -25.2763  -45.4054 H         1 UNK         0.0600 
    205 H205       -0.0443  -24.4151  -48.5261 H         1 UNK         0.3000 
    206 H206        1.5794  -26.2811  -50.0054 H         1 UNK         0.0600 
    207 H207        1.5360  -23.8299  -50.4587 H         1 UNK         0.0600 
    208 H208        1.0729  -24.7331  -51.8919 H         1 UNK         0.0600 
    209 H209       -0.1603  -23.9312  -50.9278 H         1 UNK         0.0600 
    210 H210       -1.6707  -26.4700  -49.1120 H         1 UNK         0.3000 
    211 H211       -3.4415  -27.6580  -49.6419 H         1 UNK         0.0600 
    212 H212       -1.6880  -29.3652  -51.4838 H         1 UNK         0.0600 
    213 H213       -3.2533  -29.8025  -50.8174 H         1 UNK         0.0600 
    214 H214       -1.8743  -29.6112  -49.7476 H         1 UNK         0.0600 
    215 H215       -3.0361  -25.2436  -50.9263 H         1 UNK         0.3000 
    216 H216       -4.5879  -25.5199  -53.4658 H         1 UNK         0.0600 
    217 H217       -3.3652  -23.5075  -54.2566 H         1 UNK         0.0600 
    218 H218       -2.2166  -24.7892  -53.9031 H         1 UNK         0.0600 
    219 H219       -2.4226  -23.4553  -52.7695 H         1 UNK         0.0600 
    220 H220       -5.6327  -25.5049  -50.8601 H         1 UNK         0.3000 
    221 H221       -6.1078  -23.1074  -49.5962 H         1 UNK         0.0600 
    222 H222       -7.8484  -25.6313  -49.5907 H         1 UNK         0.0600 
    223 H223       -6.4014  -25.3921  -48.6156 H         1 UNK         0.0600 
    224 H224       -7.8201  -24.3986  -48.3357 H         1 UNK         0.0600 
    225 H225       -7.5249  -23.8835  -52.5677 H         1 UNK         0.3000 
    226 H226      -10.0358  -22.4665  -52.3540 H         1 UNK         0.0600 
    227 H227       -9.6173  -24.1454  -54.1376 H         1 UNK         0.0600 
    228 H228       -9.9512  -22.5745  -54.8489 H         1 UNK         0.0600 
    229 H229       -8.2963  -23.1687  -54.7814 H         1 UNK         0.0600 
    230 H230       -6.6706  -21.4987  -52.7708 H         1 UNK         0.3000 
    231 H231       -7.2228  -18.7899  -53.6826 H         1 UNK         0.0600 
    232 H232       -5.1257  -19.9913  -54.2811 H         1 UNK         0.0600 
    233 H233       -4.6757  -20.0716  -52.5817 H         1 UNK         0.0600 
    234 H234       -4.7844  -18.5194  -53.3929 H         1 UNK         0.0600 
    235 H235       -7.3882  -17.2319  -50.3592 H         1 UNK         0.3000 
    236 H236       -7.8435  -15.5740  -51.6511 H         1 UNK         0.0600 
    237 H237       -9.7789  -17.0383  -52.2865 H         1 UNK         0.0600 
    238 H238       -9.3620  -15.8382  -53.4958 H         1 UNK         0.0600 
    239 H239       -8.9326  -17.5114  -53.7537 H         1 UNK         0.0600 
    240 H240       -5.2801  -15.9923  -51.5999 H         1 UNK         0.3000 
    241 H241       -3.9135  -16.2281  -54.0660 H         1 UNK         0.0600 
    242 H242       -3.0015  -14.6516  -55.5233 H         1 UNK         0.3800 
    243 H243       -3.5004  -12.9860  -55.4751 H         1 UNK         0.3800 
    244 H244       -1.9480  -15.3490  -52.7966 H         1 UNK         0.0800 
    245 H245       -2.9845  -14.8842  -51.4767 H         1 UNK         0.0800 
    246 H246       -1.3494  -17.5637  -53.5196 H         1 UNK         0.0800 
    247 H247       -1.6390  -19.0656  -52.6898 H         1 UNK         0.0800 
@<TRIPOS>BOND
     1    1    2 1    
     2    1  127 1    
     3    1  128 1    
     4    1  129 1    
     5    2    3 2    
     6    2    4 am   BACKBONE|DICT|INTERRES
     7    4    5 1    
     8    4  130 1    
     9    5    6 1    
    10    5   65 1    
    11    5  131 1    
    12    6    7 1    
    13    6  132 1    
    14    6  133 1    
    15    7    8 1    
    16    8    9 1    
    17    8  134 1    
    18    8  135 1    
    19    9   10 ar   
    20    9   14 ar   
    21   10   11 ar   
    22   10  136 1    
    23   11   12 ar   
    24   11  126 1    
    25   12   13 ar   
    26   12  137 1    
    27   13   14 ar   
    28   13   15 1    
    29   14  138 1    
    30   15   16 1    
    31   15  139 1    
    32   15  140 1    
    33   16   17 1    
    34   17   18 1    
    35   17  141 1    
    36   17  142 1    
    37   18   19 1    
    38   18   67 1    
    39   18  143 1    
    40   19   20 am   BACKBONE|DICT|INTERRES
    41   19  144 1    
    42   20   21 2    
    43   20   22 1    
    44   22   23 1    
    45   22   24 1    
    46   22  145 1    
    47   23  146 1    
    48   23  147 1    
    49   23  148 1    
    50   24   25 am   BACKBONE|DICT|INTERRES
    51   24  149 1    
    52   25   26 2    
    53   25   27 1    
    54   27   28 1    
    55   27   29 1    
    56   27  150 1    
    57   28  151 1    
    58   28  152 1    
    59   28  153 1    
    60   29   30 am   BACKBONE|DICT|INTERRES
    61   29  154 1    
    62   30   31 2    
    63   30   32 1    
    64   32   33 1    
    65   32   34 1    
    66   32  155 1    
    67   33  156 1    
    68   33  157 1    
    69   33  158 1    
    70   34   35 am   BACKBONE|DICT|INTERRES
    71   34  159 1    
    72   35   36 2    
    73   35   37 1    
    74   37   38 1    
    75   37   39 1    
    76   37  160 1    
    77   38  161 1    
    78   38  162 1    
    79   38  163 1    
    80   39   40 am   BACKBONE|DICT|INTERRES
    81   39  164 1    
    82   40   41 2    
    83   40   42 1    
    84   42   43 1    
    85   42   44 1    
    86   42  165 1    
    87   43  166 1    
    88   43  167 1    
    89   43  168 1    
    90   44   45 am   BACKBONE|DICT|INTERRES
    91   44  169 1    
    92   45   46 2    
    93   45   47 1    
    94   47   48 1    
    95   47   49 1    
    96   47  170 1    
    97   48  171 1    
    98   48  172 1    
    99   48  173 1    
   100   49   50 am   BACKBONE|DICT|INTERRES
   101   49  174 1    
   102   50   51 2    
   103   50   52 1    
   104   52   53 1    
   105   52   54 1    
   106   52  175 1    
   107   53  176 1    
   108   53  177 1    
   109   53  178 1    
   110   54   55 am   BACKBONE|DICT|INTERRES
   111   54  179 1    
   112   55   56 2    
   113   55   57 1    
   114   57   58 1    
   115   57   59 1    
   116   57  180 1    
   117   58  181 1    
   118   58  182 1    
   119   58  183 1    
   120   59   60 am   BACKBONE|DICT|INTERRES
   121   59  184 1    
   122   60   61 2    
   123   60   62 1    
   124   62   63 1    
   125   62   64 1    
   126   62  185 1    
   127   63  186 1    
   128   63  187 1    
   129   63  188 1    
   130   64   65 am   BACKBONE|DICT|INTERRES
   131   64  189 1    
   132   65   66 2    
   133   67   68 2    
   134   67   69 am   BACKBONE|DICT|INTERRES
   135   69   70 1    
   136   69  190 1    
   137   70   71 1    
   138   70   72 1    
   139   70  191 1    
   140   71  192 1    
   141   71  193 1    
   142   71  194 1    
   143   72   73 2    
   144   72   74 am   BACKBONE|DICT|INTERRES
   145   74   75 1    
   146   74  195 1    
   147   75   76 1    
   148   75   77 1    
   149   75  196 1    
   150   76  197 1    
   151   76  198 1    
   152   76  199 1    
   153   77   78 2    
   154   77   79 am   BACKBONE|DICT|INTERRES
   155   79   80 1    
   156   79  200 1    
   157   80   81 1    
   158   80   82 1    
   159   80  201 1    
   160   81  202 1    
   161   81  203 1    
   162   81  204 1    
   163   82   83 2    
   164   82   84 am   BACKBONE|DICT|INTERRES
   165   84   85 1    
   166   84  205 1    
   167   85   86 1    
   168   85   87 1    
   169   85  206 1    
   170   86  207 1    
   171   86  208 1    
   172   86  209 1    
   173   87   88 2    
   174   87   89 am   BACKBONE|DICT|INTERRES
   175   89   90 1    
   176   89  210 1    
   177   90   91 1    
   178   90   92 1    
   179   90  211 1    
   180   91  212 1    
   181   91  213 1    
   182   91  214 1    
   183   92   93 2    
   184   92   94 am   BACKBONE|DICT|INTERRES
   185   94   95 1    
   186   94  215 1    
   187   95   96 1    
   188   95   97 1    
   189   95  216 1    
   190   96  217 1    
   191   96  218 1    
   192   96  219 1    
   193   97   98 2    
   194   97   99 am   BACKBONE|DICT|INTERRES
   195   99  100 1    
   196   99  220 1    
   197  100  101 1    
   198  100  102 1    
   199  100  221 1    
   200  101  222 1    
   201  101  223 1    
   202  101  224 1    
   203  102  103 2    
   204  102  104 am   BACKBONE|DICT|INTERRES
   205  104  105 1    
   206  104  225 1    
   207  105  106 1    
   208  105  107 1    
   209  105  226 1    
   210  106  227 1    
   211  106  228 1    
   212  106  229 1    
   213  107  108 2    
   214  107  109 am   BACKBONE|DICT|INTERRES
   215  109  110 1    
   216  109  230 1    
   217  110  111 1    
   218  110  112 1    
   219  110  231 1    
   220  111  232 1    
   221  111  233 1    
   222  111  234 1    
   223  112  113 2    
   224  112  114 am   BACKBONE|DICT|INTERRES
   225  114  115 1    
   226  114  235 1    
   227  115  116 1    
   228  115  117 1    
   229  115  236 1    
   230  116  237 1    
   231  116  238 1    
   232  116  239 1    
   233  117  118 2    
   234  117  119 am   BACKBONE|DICT|INTERRES
   235  119  120 1    
   236  119  240 1    
   237  120  121 1    
   238  120  124 1    
   239  120  241 1    
   240  121  122 am   BACKBONE|DICT|INTERRES
   241  121  123 2    
   242  122  242 1    
   243  122  243 1    
   244  124  125 1    
   245  124  244 1    
   246  124  245 1    
   247  125  126 1    
   248  126  246 1    
   249  126  247 1    
@<TRIPOS>SUBSTRUCTURE
     1 UNK         1 GROUP             0       ****    0 ROOT    
