@<TRIPOS>MOLECULE
3R540
247   249    1
SMALL
USER_CHARGES


@<TRIPOS>ATOM
      1 CA          5.7387  -12.8220  -47.9549 C.3       0 UNK        -0.1800 
      2 C           4.6798  -13.7218  -47.3349 C.2       0 UNK         0.5000 
      3 O           4.6738  -13.9068  -46.1193 O.2       0 UNK        -0.5000 
      4 N           3.7970  -14.2848  -48.1670 N.am      1 UNK        -0.5000 
      5 CA          2.6945  -15.1653  -47.7616 C.3       1 UNK         0.1400 
      6 C6          2.7049  -16.4872  -48.5757 C.3       23 UNK        -0.0398 
      7 S7          2.4834  -16.2599  -50.3822 S.3       23 UNK        -0.2404 
      8 C8          1.1001  -17.3823  -50.7785 C.3       23 UNK        -0.0205 
      9 C9         -0.2053  -16.9820  -50.1045 C.ar      23 UNK        -0.0193 
     10 C10        -0.9731  -15.9260  -50.6048 C.ar      23 UNK        -0.1150 
     11 C11        -2.1726  -15.5641  -49.9817 C.ar      23 UNK        -0.0193 
     12 C12        -2.5923  -16.2529  -48.8396 C.ar      23 UNK        -0.1150 
     13 C13        -1.8475  -17.3263  -48.3496 C.ar      23 UNK        -0.0193 
     14 C14        -0.6636  -17.6917  -48.9924 C.ar      23 UNK        -0.1150 
     15 C15        -2.3127  -18.0942  -47.1267 C.3       23 UNK        -0.0205 
     16 S16        -3.4766  -19.4052  -47.5884 S.3       23 UNK        -0.2404 
     17 C17        -3.2063  -20.6219  -46.2590 C.3       23 UNK        -0.0398 
     18 CA         -2.1863  -21.7073  -46.6891 C.3       11 UNK         0.1400 
     19 N          -0.7875  -21.3045  -46.4906 N.am      11 UNK        -0.5000 
     20 C           0.2383  -21.8927  -47.1243 C.2       10 UNK         0.5000 
     21 O           0.1002  -22.8239  -47.9177 O.2       10 UNK        -0.5000 
     22 CA          1.6570  -21.4014  -46.7908 C.3       10 UNK         0.1400 
     23 CB          1.9449  -20.0428  -47.4427 C.3       10 UNK        -0.1800 
     24 N           1.9335  -21.3162  -45.3588 N.am      10 UNK        -0.5000 
     25 C           1.9373  -22.3546  -44.5124 C.2       9 UNK         0.5000 
     26 O           1.5916  -23.4930  -44.8246 O.2       9 UNK        -0.5000 
     27 CA          2.3985  -22.0699  -43.0756 C.3       9 UNK         0.1400 
     28 CB          3.9258  -21.9108  -43.0153 C.3       9 UNK        -0.1800 
     29 N           1.7644  -20.8595  -42.5631 N.am      9 UNK        -0.5000 
     30 C           0.6130  -20.8436  -41.8798 C.2       8 UNK         0.5000 
     31 O           0.0129  -21.8576  -41.5244 O.2       8 UNK        -0.5000 
     32 CA          0.0166  -19.4630  -41.5450 C.3       8 UNK         0.1400 
     33 CB          0.4580  -19.0118  -40.1446 C.3       8 UNK        -0.1800 
     34 N           0.3602  -18.4173  -42.5099 N.am      8 UNK        -0.5000 
     35 C           0.0137  -18.4187  -43.8044 C.2       7 UNK         0.5000 
     36 O          -0.6125  -19.3262  -44.3521 O.2       7 UNK        -0.5000 
     37 CA          0.4866  -17.2123  -44.6345 C.3       7 UNK         0.1400 
     38 CB         -0.4741  -16.0393  -44.3965 C.3       7 UNK        -0.1800 
     39 N           1.8637  -16.7824  -44.3598 N.am      7 UNK        -0.5000 
     40 C           2.9487  -17.5735  -44.3045 C.2       6 UNK         0.5000 
     41 O           2.9099  -18.7932  -44.4714 O.2       6 UNK        -0.5000 
     42 CA          4.3098  -16.9182  -43.9990 C.3       6 UNK         0.1400 
     43 CB          5.2548  -17.0451  -45.2038 C.3       6 UNK        -0.1800 
     44 N           4.2193  -15.5146  -43.5871 N.am      6 UNK        -0.5000 
     45 C           3.7757  -15.1083  -42.3881 C.2       5 UNK         0.5000 
     46 O           3.3717  -15.8816  -41.5179 O.2       5 UNK        -0.5000 
     47 CA          3.7586  -13.5927  -42.1004 C.3       5 UNK         0.1400 
     48 CB          4.8165  -12.7900  -42.8854 C.3       5 UNK        -0.1800 
     49 N           2.4321  -12.9899  -42.2689 N.am      5 UNK        -0.5000 
     50 C           1.6473  -13.0407  -43.3539 C.2       4 UNK         0.5000 
     51 O           1.9090  -13.6855  -44.3741 O.2       4 UNK        -0.5000 
     52 CA          0.3517  -12.2179  -43.2881 C.3       4 UNK         0.1400 
     53 CB          0.6472  -10.7066  -43.3221 C.3       4 UNK        -0.1800 
     54 N          -0.4745  -12.5827  -44.4294 N.am      4 UNK        -0.5000 
     55 C          -1.7932  -12.4127  -44.5576 C.2       3 UNK         0.5000 
     56 O          -2.4981  -11.8908  -43.6921 O.2       3 UNK        -0.5000 
     57 CA         -2.4293  -12.9397  -45.8639 C.3       3 UNK         0.1400 
     58 CB         -3.6883  -12.1514  -46.2796 C.3       3 UNK        -0.1800 
     59 N          -1.4866  -13.0421  -46.9849 N.am      3 UNK        -0.5000 
     60 C          -0.8132  -12.0565  -47.5933 C.2       2 UNK         0.5000 
     61 O          -0.8794  -10.8711  -47.2634 O.2       2 UNK        -0.5000 
     62 CA          0.0884  -12.4849  -48.7715 C.3       2 UNK         0.1400 
     63 CB          0.5201  -11.2938  -49.6452 C.3       2 UNK        -0.1800 
     64 N           1.2882  -13.2252  -48.3739 N.am      2 UNK        -0.5000 
     65 C           1.3254  -14.4608  -47.8526 C.2       1 UNK         0.5000 
     66 O           0.3247  -15.0700  -47.4846 O.2       1 UNK        -0.5000 
     67 C          -2.4956  -23.0632  -46.0278 C.2       11 UNK         0.5000 
     68 O          -3.3779  -23.7664  -46.5184 O.2       11 UNK        -0.5000 
     69 N          -1.7603  -23.4317  -44.9688 N.am      12 UNK        -0.5000 
     70 CA         -1.8580  -24.7464  -44.3340 C.3       12 UNK         0.1400 
     71 CB         -1.1775  -24.7196  -42.9577 C.3       12 UNK        -0.1800 
     72 C          -1.2714  -25.8542  -45.2269 C.2       12 UNK         0.5000 
     73 O          -1.9088  -26.8930  -45.3989 O.2       12 UNK        -0.5000 
     74 N          -0.0925  -25.5954  -45.8108 N.am      13 UNK        -0.5000 
     75 CA          0.5951  -26.4890  -46.7442 C.3       13 UNK         0.1400 
     76 CB          2.0142  -25.9608  -47.0043 C.3       13 UNK        -0.1800 
     77 C          -0.1686  -26.6709  -48.0682 C.2       13 UNK         0.5000 
     78 O          -0.2699  -27.7942  -48.5627 O.2       13 UNK        -0.5000 
     79 N          -0.7108  -25.5690  -48.6042 N.am      14 UNK        -0.5000 
     80 CA         -1.5271  -25.5538  -49.8202 C.3       14 UNK         0.1400 
     81 CB         -1.5695  -24.1185  -50.3607 C.3       14 UNK        -0.1800 
     82 C          -2.9612  -26.0792  -49.6067 C.2       14 UNK         0.5000 
     83 O          -3.6365  -26.3855  -50.5892 O.2       14 UNK        -0.5000 
     84 N          -3.4027  -26.1464  -48.3418 N.am      15 UNK        -0.5000 
     85 CA         -4.7447  -26.5113  -47.8771 C.3       15 UNK         0.1400 
     86 CB         -5.0419  -27.9967  -48.1703 C.3       15 UNK        -0.1800 
     87 C          -5.8318  -25.5501  -48.4060 C.2       15 UNK         0.5000 
     88 O          -6.8954  -25.9985  -48.8379 O.2       15 UNK        -0.5000 
     89 N          -5.5242  -24.2430  -48.3589 N.am      16 UNK        -0.5000 
     90 CA         -6.3328  -23.1075  -48.8211 C.3       16 UNK         0.1400 
     91 CB         -7.5160  -22.8707  -47.8614 C.3       16 UNK        -0.1800 
     92 C          -6.7685  -23.2590  -50.2948 C.2       16 UNK         0.5000 
     93 O          -7.9633  -23.3220  -50.5907 O.2       16 UNK        -0.5000 
     94 N          -5.7687  -23.3679  -51.1808 N.am      17 UNK        -0.5000 
     95 CA         -5.9145  -23.7110  -52.5984 C.3       17 UNK         0.1400 
     96 CB         -4.5159  -23.8117  -53.2297 C.3       17 UNK        -0.1800 
     97 C          -6.7964  -22.7594  -53.4304 C.2       17 UNK         0.5000 
     98 O          -7.4279  -23.2175  -54.3835 O.2       17 UNK        -0.5000 
     99 N          -6.7966  -21.4651  -53.0771 N.am      18 UNK        -0.5000 
    100 CA        -7.4065  -20.3505  -53.8140 C.3       18 UNK         0.1400 
    101 CB        -8.9450  -20.4626  -53.8301 C.3       18 UNK        -0.1800 
    102 C         -6.7812  -20.1897  -55.2163 C.2       18 UNK         0.5000 
    103 O         -7.4921  -20.0171  -56.2084 O.2       18 UNK        -0.5000 
    104 N         -5.4480  -20.2833  -55.2607 N.am      19 UNK        -0.5000 
    105 CA        -4.6296  -20.2809  -56.4666 C.3       19 UNK         0.1400 
    106 CB        -4.6814  -21.6674  -57.1447 C.3       19 UNK        -0.1800 
    107 C         -3.2149  -19.8279  -56.0784 C.2       19 UNK         0.5000 
    108 O         -2.9855  -18.6252  -55.9479 O.2       19 UNK        -0.5000 
    109 N         -2.3008  -20.7882  -55.8714 N.am      20 UNK        -0.5000 
    110 CA        -0.9147  -20.5602  -55.4417 C.3       20 UNK         0.1400 
    111 CB        -0.1401  -21.8842  -55.5279 C.3       20 UNK        -0.1800 
    112 C         -0.8049  -19.9634  -54.0239 C.2       20 UNK         0.5000 
    113 O          0.1400  -19.2269  -53.7410 O.2       20 UNK        -0.5000 
    114 N         -1.7942  -20.2741  -53.1823 N.am      21 UNK        -0.5000 
    115 CA        -2.0790  -19.6284  -51.9101 C.3       21 UNK         0.1400 
    116 CB        -1.7860  -20.6163  -50.7734 C.3       21 UNK        -0.1800 
    117 C         -3.5650  -19.2481  -51.9451 C.2       21 UNK         0.5000 
    118 O         -4.3499  -19.9708  -52.5676 O.2       21 UNK        -0.5000 
    119 N         -3.9298  -18.1310  -51.3074 N.am      22 UNK        -0.5000 
    120 CA        -5.2841  -17.5504  -51.3803 C.3       22 UNK         0.1400 
    121 C         -6.3902  -18.3401  -50.6206 C.2       22 UNK         0.5000 
    122 N         -6.0601  -19.2687  -49.7332 N.am      22 UNK        -0.7600 
    123 O         -7.5734  -18.1101  -50.8518 O.2       22 UNK        -0.5000 
    124 C124       -5.3192  -16.0522  -50.9775 C.3       23 UNK        -0.0398 
    125 S125       -4.1138  -15.0183  -51.8839 S.3       23 UNK        -0.2404 
    126 C126       -3.0200  -14.4358  -50.5474 C.3       23 UNK        -0.0205 
    127 H127        5.6304  -12.7527  -49.0376 H         1 UNK         0.0600 
    128 H128        6.7335  -13.2099  -47.7363 H         1 UNK         0.0600 
    129 H129        5.6648  -11.8169  -47.5398 H         1 UNK         0.0600 
    130 H130        3.8779  -14.1288  -49.1624 H         1 UNK         0.3000 
    131 H131        2.8065  -15.4346  -46.7106 H         1 UNK         0.0600 
    132 H132        1.9461  -17.1666  -48.1893 H         1 UNK         0.0800 
    133 H133        3.6538  -17.0012  -48.4185 H         1 UNK         0.0800 
    134 H134        0.9551  -17.3855  -51.8596 H         1 UNK         0.0800 
    135 H135        1.3761  -18.4032  -50.5103 H         1 UNK         0.0800 
    136 H136       -0.6373  -15.3883  -51.4803 H         1 UNK         0.1150 
    137 H137       -3.5060  -15.9689  -48.3377 H         1 UNK         0.1150 
    138 H138       -0.0954  -18.5282  -48.6194 H         1 UNK         0.1150 
    139 H139       -1.4491  -18.5346  -46.6344 H         1 UNK         0.0800 
    140 H140       -2.7807  -17.4238  -46.4051 H         1 UNK         0.0800 
    141 H141       -2.9065  -20.1275  -45.3347 H         1 UNK         0.0800 
    142 H142       -4.1857  -21.0595  -46.0550 H         1 UNK         0.0800 
    143 H143       -2.3255  -21.8806  -47.7587 H         1 UNK         0.0600 
    144 H144       -0.6102  -20.5804  -45.7990 H         1 UNK         0.3000 
    145 H145        2.3554  -22.1268  -47.2133 H         1 UNK         0.0600 
    146 H146        2.9921  -19.7640  -47.3233 H         1 UNK         0.0600 
    147 H147        1.7351  -20.0669  -48.5127 H         1 UNK         0.0600 
    148 H148        1.3411  -19.2547  -46.9953 H         1 UNK         0.0600 
    149 H149        2.2410  -20.4092  -45.0159 H         1 UNK         0.3000 
    150 H150        2.1269  -22.9279  -42.4568 H         1 UNK         0.0600 
    151 H151        4.4254  -22.8041  -43.3924 H         1 UNK         0.0600 
    152 H152        4.2637  -21.7577  -41.9903 H         1 UNK         0.0600 
    153 H153        4.2719  -21.0649  -43.6105 H         1 UNK         0.0600 
    154 H154        2.1609  -19.9789  -42.8670 H         1 UNK         0.3000 
    155 H155       -1.0702  -19.5692  -41.5451 H         1 UNK         0.0600 
    156 H156       -0.0311  -18.0809  -39.8571 H         1 UNK         0.0600 
    157 H157        1.5363  -18.8545  -40.0946 H         1 UNK         0.0600 
    158 H158        0.1993  -19.7590  -39.3930 H         1 UNK         0.0600 
    159 H159        0.9026  -17.6398  -42.1611 H         1 UNK         0.3000 
    160 H160        0.4408  -17.4854  -45.6891 H         1 UNK         0.0600 
    161 H161       -0.4207  -15.6729  -43.3707 H         1 UNK         0.0600 
    162 H162       -1.5077  -16.3267  -44.5909 H         1 UNK         0.0600 
    163 H163       -0.2449  -15.2084  -45.0563 H         1 UNK         0.0600 
    164 H164        2.0032  -15.7848  -44.2383 H         1 UNK         0.3000 
    165 H165        4.7519  -17.4811  -43.1744 H         1 UNK         0.0600 
    166 H166        4.8429  -16.5745  -46.0951 H         1 UNK         0.0600 
    167 H167        6.2225  -16.5872  -44.9987 H         1 UNK         0.0600 
    168 H168        5.4366  -18.0928  -45.4468 H         1 UNK         0.0600 
    169 H169        4.4490  -14.8188  -44.2921 H         1 UNK         0.3000 
    170 H170        4.0078  -13.4937  -41.0428 H         1 UNK         0.0600 
    171 H171        5.7913  -13.2786  -42.8585 H         1 UNK         0.0600 
    172 H172        4.5378  -12.6533  -43.9286 H         1 UNK         0.0600 
    173 H173        4.9433  -11.7970  -42.4543 H         1 UNK         0.0600 
    174 H174        2.1023  -12.4632  -41.4722 H         1 UNK         0.3000 
    175 H175       -0.1735  -12.4754  -42.3662 H         1 UNK         0.0600 
    176 H176       -0.2709  -10.1212  -43.2718 H         1 UNK         0.0600 
    177 H177        1.2675  -10.4036  -42.4781 H         1 UNK         0.0600 
    178 H178        1.1723  -10.4240  -44.2356 H         1 UNK         0.0600 
    179 H179        0.0366  -13.0566  -45.1644 H         1 UNK         0.3000 
    180 H180       -2.7423  -13.9621  -45.6477 H         1 UNK         0.0600 
    181 H181       -4.1225  -12.5566  -47.1937 H         1 UNK         0.0600 
    182 H182       -4.4564  -12.2031  -45.5072 H         1 UNK         0.0600 
    183 H183       -3.4678  -11.0974  -46.4504 H         1 UNK         0.0600 
    184 H184       -1.2396  -13.9880  -47.2677 H         1 UNK         0.3000 
    185 H185       -0.5086  -13.1460  -49.4011 H         1 UNK         0.0600 
    186 H186        1.0561  -11.6299  -50.5330 H         1 UNK         0.0600 
    187 H187       -0.3456  -10.7254  -49.9876 H         1 UNK         0.0600 
    188 H188        1.1698  -10.6082  -49.0997 H         1 UNK         0.0600 
    189 H189        2.1699  -12.7876  -48.5933 H         1 UNK         0.3000 
    190 H190       -1.0317  -22.8151  -44.6402 H         1 UNK         0.3000 
    191 H191       -2.9151  -24.9722  -44.1767 H         1 UNK         0.0600 
    192 H192       -1.2535  -25.6905  -42.4667 H         1 UNK         0.0600 
    193 H193       -1.6484  -23.9873  -42.3019 H         1 UNK         0.0600 
    194 H194       -0.1188  -24.4713  -43.0287 H         1 UNK         0.0600 
    195 H195        0.3930  -24.7331  -45.5750 H         1 UNK         0.3000 
    196 H196        0.6786  -27.4693  -46.2704 H         1 UNK         0.0600 
    197 H197        2.5548  -26.6115  -47.6928 H         1 UNK         0.0600 
    198 H198        2.5912  -25.9127  -46.0806 H         1 UNK         0.0600 
    199 H199        1.9978  -24.9605  -47.4391 H         1 UNK         0.0600 
    200 H200       -0.5207  -24.6675  -48.1746 H         1 UNK         0.3000 
    201 H201       -1.0498  -26.1882  -50.5699 H         1 UNK         0.0600 
    202 H202       -0.5661  -23.7360  -50.5491 H         1 UNK         0.0600 
    203 H203       -2.0561  -23.4483  -49.6522 H         1 UNK         0.0600 
    204 H204       -2.1173  -24.0642  -51.3011 H         1 UNK         0.0600 
    205 H205       -2.7698  -25.8420  -47.6147 H         1 UNK         0.3000 
    206 H206       -4.7324  -26.3880  -46.7931 H         1 UNK         0.0600 
    207 H207       -4.2590  -28.6402  -47.7688 H         1 UNK         0.0600 
    208 H208       -5.9818  -28.3043  -47.7108 H         1 UNK         0.0600 
    209 H209       -5.1218  -28.1924  -49.2399 H         1 UNK         0.0600 
    210 H210       -4.6444  -24.0042  -47.9084 H         1 UNK         0.3000 
    211 H211       -5.6899  -22.2272  -48.7733 H         1 UNK         0.0600 
    212 H212       -8.2023  -23.7181  -47.8468 H         1 UNK         0.0600 
    213 H213       -8.0881  -21.9904  -48.1562 H         1 UNK         0.0600 
    214 H214       -7.1671  -22.7052  -46.8421 H         1 UNK         0.0600 
    215 H215       -4.8230  -23.3296  -50.8333 H         1 UNK         0.3000 
    216 H216       -6.3784  -24.6985  -52.6434 H         1 UNK         0.0600 
    217 H217       -3.9582  -22.8803  -53.1244 H         1 UNK         0.0600 
    218 H218       -4.5802  -24.0377  -54.2950 H         1 UNK         0.0600 
    219 H219       -3.9346  -24.6101  -52.7694 H         1 UNK         0.0600 
    220 H220       -6.1843  -21.1899  -52.3193 H         1 UNK         0.3000 
    221 H221       -7.1524  -19.4432  -53.2675 H         1 UNK         0.0600 
    222 H222       -9.2877  -21.3157  -54.4159 H         1 UNK         0.0600 
    223 H223       -9.3401  -20.5679  -52.8196 H         1 UNK         0.0600 
    224 H224       -9.3947  -19.5683  -54.2627 H         1 UNK         0.0600 
    225 H225       -4.9498  -20.3357  -54.3761 H         1 UNK         0.3000 
    226 H226       -5.0205  -19.5380  -57.1650 H         1 UNK         0.0600 
    227 H227       -5.6820  -21.8781  -57.5228 H         1 UNK         0.0600 
    228 H228       -4.0019  -21.7160  -57.9966 H         1 UNK         0.0600 
    229 H229       -4.4190  -22.4714  -56.4562 H         1 UNK         0.0600 
    230 H230       -2.5734  -21.7495  -56.0156 H         1 UNK         0.3000 
    231 H231       -0.4598  -19.8492  -56.1345 H         1 UNK         0.0600 
    232 H232        0.9025  -21.7458  -55.2384 H         1 UNK         0.0600 
    233 H233       -0.1440  -22.2789  -56.5441 H         1 UNK         0.0600 
    234 H234       -0.5653  -22.6431  -54.8697 H         1 UNK         0.0600 
    235 H235       -2.5537  -20.8405  -53.5319 H         1 UNK         0.3000 
    236 H236       -1.4768  -18.7271  -51.7954 H         1 UNK         0.0600 
    237 H237       -0.7776  -21.0235  -50.8487 H         1 UNK         0.0600 
    238 H238       -1.8624  -20.1306  -49.8037 H         1 UNK         0.0600 
    239 H239       -2.4897  -21.4480  -50.7818 H         1 UNK         0.0600 
    240 H240       -3.2398  -17.5877  -50.8065 H         1 UNK         0.3000 
    241 H241       -5.5756  -17.5917  -52.4318 H         1 UNK         0.0600 
    242 H242       -5.0949  -19.4153  -49.4796 H         1 UNK         0.3800 
    243 H243       -6.7938  -19.7440  -49.2353 H         1 UNK         0.3800 
    244 H244       -6.3079  -15.6372  -51.1816 H         1 UNK         0.0800 
    245 H245       -5.1755  -15.9408  -49.9034 H         1 UNK         0.0800 
    246 H246       -3.6132  -13.9664  -49.7608 H         1 UNK         0.0800 
    247 H247       -2.3712  -13.6544  -50.9451 H         1 UNK         0.0800 
@<TRIPOS>BOND
     1    1    2 1    
     2    1  127 1    
     3    1  128 1    
     4    1  129 1    
     5    2    3 2    
     6    2    4 am   BACKBONE|DICT|INTERRES
     7    4    5 1    
     8    4  130 1    
     9    5    6 1    
    10    5   65 1    
    11    5  131 1    
    12    6    7 1    
    13    6  132 1    
    14    6  133 1    
    15    7    8 1    
    16    8    9 1    
    17    8  134 1    
    18    8  135 1    
    19    9   10 ar   
    20    9   14 ar   
    21   10   11 ar   
    22   10  136 1    
    23   11   12 ar   
    24   11  126 1    
    25   12   13 ar   
    26   12  137 1    
    27   13   14 ar   
    28   13   15 1    
    29   14  138 1    
    30   15   16 1    
    31   15  139 1    
    32   15  140 1    
    33   16   17 1    
    34   17   18 1    
    35   17  141 1    
    36   17  142 1    
    37   18   19 1    
    38   18   67 1    
    39   18  143 1    
    40   19   20 am   BACKBONE|DICT|INTERRES
    41   19  144 1    
    42   20   21 2    
    43   20   22 1    
    44   22   23 1    
    45   22   24 1    
    46   22  145 1    
    47   23  146 1    
    48   23  147 1    
    49   23  148 1    
    50   24   25 am   BACKBONE|DICT|INTERRES
    51   24  149 1    
    52   25   26 2    
    53   25   27 1    
    54   27   28 1    
    55   27   29 1    
    56   27  150 1    
    57   28  151 1    
    58   28  152 1    
    59   28  153 1    
    60   29   30 am   BACKBONE|DICT|INTERRES
    61   29  154 1    
    62   30   31 2    
    63   30   32 1    
    64   32   33 1    
    65   32   34 1    
    66   32  155 1    
    67   33  156 1    
    68   33  157 1    
    69   33  158 1    
    70   34   35 am   BACKBONE|DICT|INTERRES
    71   34  159 1    
    72   35   36 2    
    73   35   37 1    
    74   37   38 1    
    75   37   39 1    
    76   37  160 1    
    77   38  161 1    
    78   38  162 1    
    79   38  163 1    
    80   39   40 am   BACKBONE|DICT|INTERRES
    81   39  164 1    
    82   40   41 2    
    83   40   42 1    
    84   42   43 1    
    85   42   44 1    
    86   42  165 1    
    87   43  166 1    
    88   43  167 1    
    89   43  168 1    
    90   44   45 am   BACKBONE|DICT|INTERRES
    91   44  169 1    
    92   45   46 2    
    93   45   47 1    
    94   47   48 1    
    95   47   49 1    
    96   47  170 1    
    97   48  171 1    
    98   48  172 1    
    99   48  173 1    
   100   49   50 am   BACKBONE|DICT|INTERRES
   101   49  174 1    
   102   50   51 2    
   103   50   52 1    
   104   52   53 1    
   105   52   54 1    
   106   52  175 1    
   107   53  176 1    
   108   53  177 1    
   109   53  178 1    
   110   54   55 am   BACKBONE|DICT|INTERRES
   111   54  179 1    
   112   55   56 2    
   113   55   57 1    
   114   57   58 1    
   115   57   59 1    
   116   57  180 1    
   117   58  181 1    
   118   58  182 1    
   119   58  183 1    
   120   59   60 am   BACKBONE|DICT|INTERRES
   121   59  184 1    
   122   60   61 2    
   123   60   62 1    
   124   62   63 1    
   125   62   64 1    
   126   62  185 1    
   127   63  186 1    
   128   63  187 1    
   129   63  188 1    
   130   64   65 am   BACKBONE|DICT|INTERRES
   131   64  189 1    
   132   65   66 2    
   133   67   68 2    
   134   67   69 am   BACKBONE|DICT|INTERRES
   135   69   70 1    
   136   69  190 1    
   137   70   71 1    
   138   70   72 1    
   139   70  191 1    
   140   71  192 1    
   141   71  193 1    
   142   71  194 1    
   143   72   73 2    
   144   72   74 am   BACKBONE|DICT|INTERRES
   145   74   75 1    
   146   74  195 1    
   147   75   76 1    
   148   75   77 1    
   149   75  196 1    
   150   76  197 1    
   151   76  198 1    
   152   76  199 1    
   153   77   78 2    
   154   77   79 am   BACKBONE|DICT|INTERRES
   155   79   80 1    
   156   79  200 1    
   157   80   81 1    
   158   80   82 1    
   159   80  201 1    
   160   81  202 1    
   161   81  203 1    
   162   81  204 1    
   163   82   83 2    
   164   82   84 am   BACKBONE|DICT|INTERRES
   165   84   85 1    
   166   84  205 1    
   167   85   86 1    
   168   85   87 1    
   169   85  206 1    
   170   86  207 1    
   171   86  208 1    
   172   86  209 1    
   173   87   88 2    
   174   87   89 am   BACKBONE|DICT|INTERRES
   175   89   90 1    
   176   89  210 1    
   177   90   91 1    
   178   90   92 1    
   179   90  211 1    
   180   91  212 1    
   181   91  213 1    
   182   91  214 1    
   183   92   93 2    
   184   92   94 am   BACKBONE|DICT|INTERRES
   185   94   95 1    
   186   94  215 1    
   187   95   96 1    
   188   95   97 1    
   189   95  216 1    
   190   96  217 1    
   191   96  218 1    
   192   96  219 1    
   193   97   98 2    
   194   97   99 am   BACKBONE|DICT|INTERRES
   195   99  100 1    
   196   99  220 1    
   197  100  101 1    
   198  100  102 1    
   199  100  221 1    
   200  101  222 1    
   201  101  223 1    
   202  101  224 1    
   203  102  103 2    
   204  102  104 am   BACKBONE|DICT|INTERRES
   205  104  105 1    
   206  104  225 1    
   207  105  106 1    
   208  105  107 1    
   209  105  226 1    
   210  106  227 1    
   211  106  228 1    
   212  106  229 1    
   213  107  108 2    
   214  107  109 am   BACKBONE|DICT|INTERRES
   215  109  110 1    
   216  109  230 1    
   217  110  111 1    
   218  110  112 1    
   219  110  231 1    
   220  111  232 1    
   221  111  233 1    
   222  111  234 1    
   223  112  113 2    
   224  112  114 am   BACKBONE|DICT|INTERRES
   225  114  115 1    
   226  114  235 1    
   227  115  116 1    
   228  115  117 1    
   229  115  236 1    
   230  116  237 1    
   231  116  238 1    
   232  116  239 1    
   233  117  118 2    
   234  117  119 am   BACKBONE|DICT|INTERRES
   235  119  120 1    
   236  119  240 1    
   237  120  121 1    
   238  120  124 1    
   239  120  241 1    
   240  121  122 am   BACKBONE|DICT|INTERRES
   241  121  123 2    
   242  122  242 1    
   243  122  243 1    
   244  124  125 1    
   245  124  244 1    
   246  124  245 1    
   247  125  126 1    
   248  126  246 1    
   249  126  247 1    
@<TRIPOS>SUBSTRUCTURE
     1 UNK         1 GROUP             0       ****    0 ROOT    
