@<TRIPOS>MOLECULE
3R540
247   249    1
SMALL
USER_CHARGES


@<TRIPOS>ATOM
      1 CA          3.8973  -10.0052  -47.3627 C.3       0 UNK        -0.1800 
      2 C           2.4994  -10.6021  -47.5213 C.2       0 UNK         0.5000 
      3 O           1.5366  -10.0111  -47.0363 O.2       0 UNK        -0.5000 
      4 N           2.3236  -11.7473  -48.1962 N.am      1 UNK        -0.5000 
      5 CA          3.3534  -12.6195  -48.7769 C.3       1 UNK         0.1400 
      6 C6          2.7224  -13.7268  -49.6581 C.3       23 UNK        -0.0398 
      7 S7          1.8966  -13.0590  -51.1473 S.3       23 UNK        -0.2404 
      8 C8          0.1217  -13.2335  -50.7652 C.3       23 UNK        -0.0205 
      9 C9         -0.3375  -14.6846  -50.7911 C.ar      23 UNK        -0.0193 
     10 C10        -0.7062  -15.2974  -51.9942 C.ar      23 UNK        -0.1150 
     11 C11        -1.1246  -16.6335  -52.0154 C.ar      23 UNK        -0.0193 
     12 C12        -1.1340  -17.3616  -50.8217 C.ar      23 UNK        -0.1150 
     13 C13        -0.8091  -16.7493  -49.6111 C.ar      23 UNK        -0.0193 
     14 C14        -0.4176  -15.4103  -49.6013 C.ar      23 UNK        -0.1150 
     15 C15        -0.9250  -17.5219  -48.3116 C.3       23 UNK        -0.0205 
     16 S16         0.6934  -18.1202  -47.7431 S.3       23 UNK        -0.2404 
     17 C17         0.2218  -18.8053  -46.1216 C.3       23 UNK        -0.0398 
     18 CA          0.0306  -20.3390  -46.1133 C.3       11 UNK         0.1400 
     19 N          -0.1038  -20.8382  -44.7451 N.am      11 UNK        -0.5000 
     20 C          -0.1830  -22.1285  -44.3932 C.2       10 UNK         0.5000 
     21 O          -0.0906  -23.0659  -45.1837 O.2       10 UNK        -0.5000 
     22 CA         -0.4693  -22.4130  -42.9105 C.3       10 UNK         0.1400 
     23 CB          0.8194  -22.3188  -42.0817 C.3       10 UNK        -0.1800 
     24 N          -1.4756  -21.4989  -42.3684 N.am      10 UNK        -0.5000 
     25 C          -2.7652  -21.4928  -42.7365 C.2       9 UNK         0.5000 
     26 O          -3.2504  -22.2770  -43.5520 O.2       9 UNK        -0.5000 
     27 CA         -3.6476  -20.3922  -42.1216 C.3       9 UNK         0.1400 
     28 CB         -4.0802  -20.7717  -40.6975 C.3       9 UNK        -0.1800 
     29 N          -2.9827  -19.0877  -42.0994 N.am      9 UNK        -0.5000 
     30 C          -2.6503  -18.3934  -43.1966 C.2       8 UNK         0.5000 
     31 O          -2.8737  -18.7778  -44.3437 O.2       8 UNK        -0.5000 
     32 CA         -1.9029  -17.0663  -42.9804 C.3       8 UNK         0.1400 
     33 CB         -2.8904  -15.9163  -42.7383 C.3       8 UNK        -0.1800 
     34 N          -0.9287  -17.1112  -41.8857 N.am      8 UNK        -0.5000 
     35 C           0.1431  -17.9132  -41.8395 C.2       7 UNK         0.5000 
     36 O           0.4311  -18.7198  -42.7262 O.2       7 UNK        -0.5000 
     37 CA          1.0204  -17.8108  -40.5847 C.3       7 UNK         0.1400 
     38 CB          1.2459  -19.1929  -39.9421 C.3       7 UNK        -0.1800 
     39 N           2.2978  -17.1876  -40.9205 N.am      7 UNK        -0.5000 
     40 C           3.1223  -16.6211  -40.0279 C.2       6 UNK         0.5000 
     41 O           2.8849  -16.5616  -38.8206 O.2       6 UNK        -0.5000 
     42 CA          4.4188  -15.9935  -40.5671 C.3       6 UNK         0.1400 
     43 CB          5.4070  -17.0684  -41.0499 C.3       6 UNK        -0.1800 
     44 N           4.1267  -15.0578  -41.6507 N.am      6 UNK        -0.5000 
     45 C           3.8680  -13.7528  -41.4751 C.2       5 UNK         0.5000 
     46 O           3.9516  -13.1810  -40.3874 O.2       5 UNK        -0.5000 
     47 CA          3.4322  -12.9411  -42.7148 C.3       5 UNK         0.1400 
     48 CB          4.6382  -12.2273  -43.3451 C.3       5 UNK        -0.1800 
     49 N           2.7809  -13.7491  -43.7440 N.am      5 UNK        -0.5000 
     50 C           1.6351  -14.4264  -43.5894 C.2       4 UNK         0.5000 
     51 O           0.9246  -14.3628  -42.5866 O.2       4 UNK        -0.5000 
     52 CA          1.2536  -15.3820  -44.7320 C.3       4 UNK         0.1400 
     53 CB          0.3502  -14.6698  -45.7450 C.3       4 UNK        -0.1800 
     54 N           2.4150  -15.9531  -45.4194 N.am      4 UNK        -0.5000 
     55 C           3.3168  -16.7642  -44.8442 C.2       3 UNK         0.5000 
     56 O           3.2315  -17.1558  -43.6812 O.2       3 UNK        -0.5000 
     57 CA          4.5625  -17.1038  -45.6713 C.3       3 UNK         0.1400 
     58 CB          4.2673  -18.1589  -46.7502 C.3       3 UNK        -0.1800 
     59 N           5.0609  -15.8693  -46.2638 N.am      3 UNK        -0.5000 
     60 C           6.2810  -15.6208  -46.7374 C.2       2 UNK         0.5000 
     61 O           7.1709  -16.4699  -46.8094 O.2       2 UNK        -0.5000 
     62 CA          6.5362  -14.1628  -47.1929 C.3       2 UNK         0.1400 
     63 CB          7.8901  -13.9959  -47.9061 C.3       2 UNK        -0.1800 
     64 N           5.4830  -13.6039  -48.0537 N.am      2 UNK        -0.5000 
     65 C           4.2448  -13.2488  -47.6832 C.2       1 UNK         0.5000 
     66 O           3.7982  -13.4238  -46.5445 O.2       1 UNK        -0.5000 
     67 C          -1.1477  -20.7927  -47.0023 C.2       11 UNK         0.5000 
     68 O          -0.9142  -21.3575  -48.0701 O.2       11 UNK        -0.5000 
     69 N          -2.3861  -20.5796  -46.5335 N.am      12 UNK        -0.5000 
     70 CA         -3.6098  -20.9772  -47.2324 C.3       12 UNK         0.1400 
     71 CB         -4.8331  -20.4170  -46.4932 C.3       12 UNK        -0.1800 
     72 C          -3.7308  -22.5008  -47.4144 C.2       12 UNK         0.5000 
     73 O          -4.1417  -22.9502  -48.4849 O.2       12 UNK        -0.5000 
     74 N          -3.3366  -23.2669  -46.3868 N.am      13 UNK        -0.5000 
     75 CA         -3.2783  -24.7286  -46.4202 C.3       13 UNK         0.1400 
     76 CB         -3.0293  -25.2677  -45.0037 C.3       13 UNK        -0.1800 
     77 C          -2.2197  -25.2640  -47.4028 C.2       13 UNK         0.5000 
     78 O          -2.4846  -26.2469  -48.0949 O.2       13 UNK        -0.5000 
     79 N          -1.0532  -24.6055  -47.4591 N.am      14 UNK        -0.5000 
     80 CA          0.0289  -24.9132  -48.3951 C.3       14 UNK         0.1400 
     81 CB          1.3125  -24.1902  -47.9588 C.3       14 UNK        -0.1800 
     82 C          -0.3307  -24.5621  -49.8504 C.2       14 UNK         0.5000 
     83 O           0.0051  -25.3273  -50.7552 O.2       14 UNK        -0.5000 
     84 N          -1.0145  -23.4254  -50.0466 N.am      15 UNK        -0.5000 
     85 CA         -1.5484  -22.9778  -51.3335 C.3       15 UNK         0.1400 
     86 CB         -2.0718  -21.5392  -51.1949 C.3       15 UNK        -0.1800 
     87 C          -2.6427  -23.9231  -51.8632 C.2       15 UNK         0.5000 
     88 O          -2.5757  -24.3416  -53.0201 O.2       15 UNK        -0.5000 
     89 N          -3.5894  -24.2733  -50.9791 N.am      16 UNK        -0.5000 
     90 CA         -4.6881  -25.2243  -51.1621 C.3       16 UNK         0.1400 
     91 CB         -4.1302  -26.6401  -51.4250 C.3       16 UNK        -0.1800 
     92 C          -5.7119  -24.7999  -52.2355 C.2       16 UNK         0.5000 
     93 O          -5.5945  -23.7332  -52.8455 O.2       16 UNK        -0.5000 
     94 N          -6.7199  -25.6568  -52.4513 N.am      17 UNK        -0.5000 
     95 CA         -7.8119  -25.4642  -53.4120 C.3       17 UNK         0.1400 
     96 CB         -8.8146  -26.6186  -53.2708 C.3       17 UNK        -0.1800 
     97 C          -7.3473  -25.3291  -54.8758 C.2       17 UNK         0.5000 
     98 O          -8.0329  -24.6825  -55.6673 O.2       17 UNK        -0.5000 
     99 N          -6.1673  -25.8803  -55.1946 N.am      18 UNK        -0.5000 
    100 CA        -5.4798  -25.7357  -56.4806 C.3       18 UNK         0.1400 
    101 CB        -4.2256  -26.6228  -56.4738 C.3       18 UNK        -0.1800 
    102 C         -5.1045  -24.2778  -56.8225 C.2       18 UNK         0.5000 
    103 O         -5.0363  -23.9349  -58.0032 O.2       18 UNK        -0.5000 
    104 N         -4.8985  -23.4481  -55.7912 N.am      19 UNK        -0.5000 
    105 CA        -4.6524  -22.0091  -55.8908 C.3       19 UNK         0.1400 
    106 CB        -3.3524  -21.6880  -55.1379 C.3       19 UNK        -0.1800 
    107 C         -5.8415  -21.1993  -55.3322 C.2       19 UNK         0.5000 
    108 O         -5.6820  -20.0156  -55.0330 O.2       19 UNK        -0.5000 
    109 N         -7.0053  -21.8517  -55.1758 N.am      20 UNK        -0.5000 
    110 CA        -8.2593  -21.3302  -54.6184 C.3       20 UNK         0.1400 
    111 CB        -8.8543  -20.2464  -55.5417 C.3       20 UNK        -0.1800 
    112 C         -8.1503  -20.8667  -53.1478 C.2       20 UNK         0.5000 
    113 O         -8.9505  -20.0365  -52.7134 O.2       20 UNK        -0.5000 
    114 N         -7.1739  -21.4197  -52.4100 N.am      21 UNK        -0.5000 
    115 CA        -6.8234  -21.1259  -51.0174 C.3       21 UNK         0.1400 
    116 CB        -7.8820  -21.7117  -50.0617 C.3       21 UNK        -0.1800 
    117 C         -6.5396  -19.6279  -50.7783 C.2       21 UNK         0.5000 
    118 O         -7.1043  -19.0273  -49.8613 O.2       21 UNK        -0.5000 
    119 N         -5.6889  -19.0520  -51.6391 N.am      22 UNK        -0.5000 
    120 CA        -5.2080  -17.6627  -51.5696 C.3       22 UNK         0.1400 
    121 C         -4.4957  -17.2883  -50.2354 C.2       22 UNK         0.5000 
    122 N         -4.3867  -16.0016  -49.9298 N.am      22 UNK        -0.7600 
    123 O         -4.0353  -18.1408  -49.4803 O.2       22 UNK        -0.5000 
    124 C124       -4.3671  -17.2824  -52.8225 C.3       23 UNK        -0.0398 
    125 S125       -2.9761  -18.4138  -53.1881 S.3       23 UNK        -0.2404 
    126 C126       -1.5462  -17.2817  -53.3314 C.3       23 UNK        -0.0205 
    127 H127        4.4414  -10.5130  -46.5665 H         1 UNK         0.0600 
    128 H128        3.8293   -8.9499  -47.0980 H         1 UNK         0.0600 
    129 H129        4.4749  -10.0721  -48.2837 H         1 UNK         0.0600 
    130 H130        1.3828  -12.1001  -48.2740 H         1 UNK         0.3000 
    131 H131        3.9923  -12.0067  -49.4151 H         1 UNK         0.0600 
    132 H132        3.4894  -14.4172  -50.0142 H         1 UNK         0.0800 
    133 H133        2.0308  -14.3326  -49.0744 H         1 UNK         0.0800 
    134 H134       -0.0934  -12.7786  -49.7975 H         1 UNK         0.0800 
    135 H135       -0.4496  -12.6622  -51.4982 H         1 UNK         0.0800 
    136 H136       -0.6672  -14.7306  -52.9139 H         1 UNK         0.1150 
    137 H137       -1.4422  -18.3973  -50.8230 H         1 UNK         0.1150 
    138 H138       -0.1714  -14.9322  -48.6662 H         1 UNK         0.1150 
    139 H139       -1.3874  -16.8905  -47.5528 H         1 UNK         0.0800 
    140 H140       -1.5960  -18.3705  -48.4449 H         1 UNK         0.0800 
    141 H141        1.0187  -18.5443  -45.4254 H         1 UNK         0.0800 
    142 H142       -0.6678  -18.2976  -45.7502 H         1 UNK         0.0800 
    143 H143        0.9372  -20.7901  -46.5226 H         1 UNK         0.0600 
    144 H144       -0.1399  -20.1367  -44.0120 H         1 UNK         0.3000 
    145 H145       -0.8558  -23.4311  -42.8283 H         1 UNK         0.0600 
    146 H146        0.6270  -22.4962  -41.0234 H         1 UNK         0.0600 
    147 H147        1.5456  -23.0631  -42.4105 H         1 UNK         0.0600 
    148 H148        1.2894  -21.3407  -42.1821 H         1 UNK         0.0600 
    149 H149       -1.1513  -20.7934  -41.7249 H         1 UNK         0.3000 
    150 H150       -4.5448  -20.3039  -42.7381 H         1 UNK         0.0600 
    151 H151       -4.5898  -21.7362  -40.6892 H         1 UNK         0.0600 
    152 H152       -4.7727  -20.0365  -40.2873 H         1 UNK         0.0600 
    153 H153       -3.2280  -20.8447  -40.0207 H         1 UNK         0.0600 
    154 H154       -2.7611  -18.6996  -41.1945 H         1 UNK         0.3000 
    155 H155       -1.3687  -16.8515  -43.9050 H         1 UNK         0.0600 
    156 H156       -2.3724  -14.9581  -42.6899 H         1 UNK         0.0600 
    157 H157       -3.4437  -16.0477  -41.8076 H         1 UNK         0.0600 
    158 H158       -3.6188  -15.8498  -43.5476 H         1 UNK         0.0600 
    159 H159       -1.0807  -16.4601  -41.1287 H         1 UNK         0.3000 
    160 H160        0.5011  -17.1796  -39.8602 H         1 UNK         0.0600 
    161 H161        1.9074  -19.8111  -40.5487 H         1 UNK         0.0600 
    162 H162        0.3057  -19.7316  -39.8182 H         1 UNK         0.0600 
    163 H163        1.6965  -19.1007  -38.9540 H         1 UNK         0.0600 
    164 H164        2.5555  -17.2079  -41.9055 H         1 UNK         0.3000 
    165 H165        4.8997  -15.4594  -39.7447 H         1 UNK         0.0600 
    166 H166        4.9973  -17.6774  -41.8551 H         1 UNK         0.0600 
    167 H167        6.3321  -16.6179  -41.4097 H         1 UNK         0.0600 
    168 H168        5.6705  -17.7438  -40.2351 H         1 UNK         0.0600 
    169 H169        3.9790  -15.4660  -42.5638 H         1 UNK         0.3000 
    170 H170        2.7185  -12.1854  -42.3807 H         1 UNK         0.0600 
    171 H171        4.3294  -11.5904  -44.1743 H         1 UNK         0.0600 
    172 H172        5.1421  -11.5910  -42.6165 H         1 UNK         0.0600 
    173 H173        5.3722  -12.9388  -43.7258 H         1 UNK         0.0600 
    174 H174        3.2439  -13.7907  -44.6451 H         1 UNK         0.3000 
    175 H175        0.7016  -16.2103  -44.2918 H         1 UNK         0.0600 
    176 H176       -0.0347  -15.3759  -46.4751 H         1 UNK         0.0600 
    177 H177       -0.5105  -14.2148  -45.2529 H         1 UNK         0.0600 
    178 H178        0.8826  -13.8812  -46.2784 H         1 UNK         0.0600 
    179 H179        2.5406  -15.6842  -46.3835 H         1 UNK         0.3000 
    180 H180        5.3170  -17.4974  -44.9870 H         1 UNK         0.0600 
    181 H181        3.6283  -17.7599  -47.5377 H         1 UNK         0.0600 
    182 H182        3.7667  -19.0294  -46.3241 H         1 UNK         0.0600 
    183 H183        5.1871  -18.5096  -47.2181 H         1 UNK         0.0600 
    184 H184        4.4305  -15.0721  -46.2278 H         1 UNK         0.3000 
    185 H185        6.5720  -13.5607  -46.2825 H         1 UNK         0.0600 
    186 H186        8.0788  -12.9516  -48.1559 H         1 UNK         0.0600 
    187 H187        8.7134  -14.3266  -47.2715 H         1 UNK         0.0600 
    188 H188        7.9317  -14.5756  -48.8290 H         1 UNK         0.0600 
    189 H189        5.7535  -13.4604  -49.0163 H         1 UNK         0.3000 
    190 H190       -2.5093  -20.0781  -45.6573 H         1 UNK         0.3000 
    191 H191       -3.5821  -20.5291  -48.2275 H         1 UNK         0.0600 
    192 H192       -5.7573  -20.6910  -47.0037 H         1 UNK         0.0600 
    193 H193       -4.7981  -19.3281  -46.4498 H         1 UNK         0.0600 
    194 H194       -4.8931  -20.7923  -45.4709 H         1 UNK         0.0600 
    195 H195       -3.0573  -22.8201  -45.5195 H         1 UNK         0.3000 
    196 H196       -4.2521  -25.0932  -46.7537 H         1 UNK         0.0600 
    197 H197       -2.9995  -26.3580  -44.9999 H         1 UNK         0.0600 
    198 H198       -3.8221  -24.9616  -44.3210 H         1 UNK         0.0600 
    199 H199       -2.0825  -24.9113  -44.5974 H         1 UNK         0.0600 
    200 H200       -0.8861  -23.8441  -46.8079 H         1 UNK         0.3000 
    201 H201        0.2172  -25.9879  -48.3503 H         1 UNK         0.0600 
    202 H202        1.6173  -24.4991  -46.9588 H         1 UNK         0.0600 
    203 H203        1.1830  -23.1077  -47.9484 H         1 UNK         0.0600 
    204 H204        2.1377  -24.4164  -48.6351 H         1 UNK         0.0600 
    205 H205       -1.1739  -22.8123  -49.2509 H         1 UNK         0.3000 
    206 H206       -0.7287  -22.9733  -52.0547 H         1 UNK         0.0600 
    207 H207       -1.2845  -20.8647  -50.8585 H         1 UNK         0.0600 
    208 H208       -2.4325  -21.1616  -52.1499 H         1 UNK         0.0600 
    209 H209       -2.8950  -21.4697  -50.4836 H         1 UNK         0.0600 
    210 H210       -3.5774  -23.8183  -50.0696 H         1 UNK         0.3000 
    211 H211       -5.2219  -25.2415  -50.2110 H         1 UNK         0.0600 
    212 H212       -3.6879  -26.7251  -52.4182 H         1 UNK         0.0600 
    213 H213       -4.9086  -27.3993  -51.3469 H         1 UNK         0.0600 
    214 H214       -3.3611  -26.8993  -50.6971 H         1 UNK         0.0600 
    215 H215       -6.7543  -26.5085  -51.9099 H         1 UNK         0.3000 
    216 H216       -8.3208  -24.5348  -53.1477 H         1 UNK         0.0600 
    217 H217       -8.3532  -27.5817  -53.4926 H         1 UNK         0.0600 
    218 H218       -9.2236  -26.6655  -52.2613 H         1 UNK         0.0600 
    219 H219       -9.6556  -26.4922  -53.9541 H         1 UNK         0.0600 
    220 H220       -5.6723  -26.3864  -54.4755 H         1 UNK         0.3000 
    221 H221       -6.1530  -26.0945  -57.2618 H         1 UNK         0.0600 
    222 H222       -4.4827  -27.6700  -56.3136 H         1 UNK         0.0600 
    223 H223       -3.6977  -26.5610  -57.4264 H         1 UNK         0.0600 
    224 H224       -3.5270  -26.3235  -55.6910 H         1 UNK         0.0600 
    225 H225       -4.9801  -23.8081  -54.8457 H         1 UNK         0.3000 
    226 H226       -4.5252  -21.7105  -56.9329 H         1 UNK         0.0600 
    227 H227       -3.4651  -21.8718  -54.0702 H         1 UNK         0.0600 
    228 H228       -2.5234  -22.2976  -55.4974 H         1 UNK         0.0600 
    229 H229       -3.0683  -20.6436  -55.2682 H         1 UNK         0.0600 
    230 H230       -7.0411  -22.8224  -55.4634 H         1 UNK         0.3000 
    231 H231       -8.9549  -22.1703  -54.6124 H         1 UNK         0.0600 
    232 H232       -9.8602  -19.9691  -55.2244 H         1 UNK         0.0600 
    233 H233       -8.9277  -20.6013  -56.5696 H         1 UNK         0.0600 
    234 H234       -8.2506  -19.3385  -55.5418 H         1 UNK         0.0600 
    235 H235       -6.5835  -22.1206  -52.8505 H         1 UNK         0.3000 
    236 H236       -5.8845  -21.6468  -50.8208 H         1 UNK         0.0600 
    237 H237       -8.0167  -22.7798  -50.2332 H         1 UNK         0.0600 
    238 H238       -7.5791  -21.5864  -49.0215 H         1 UNK         0.0600 
    239 H239       -8.8508  -21.2265  -50.1840 H         1 UNK         0.0600 
    240 H240       -5.2936  -19.6095  -52.3831 H         1 UNK         0.3000 
    241 H241       -6.1094  -17.0477  -51.5969 H         1 UNK         0.0600 
    242 H242       -3.9167  -15.7488  -49.0763 H         1 UNK         0.3800 
    243 H243       -4.7553  -15.2774  -50.5252 H         1 UNK         0.3800 
    244 H244       -5.0175  -17.2881  -53.6982 H         1 UNK         0.0800 
    245 H245       -3.9982  -16.2585  -52.7449 H         1 UNK         0.0800 
    246 H246       -1.7788  -16.5202  -54.0773 H         1 UNK         0.0800 
    247 H247       -0.6977  -17.8456  -53.7204 H         1 UNK         0.0800 
@<TRIPOS>BOND
     1    1    2 1    
     2    1  127 1    
     3    1  128 1    
     4    1  129 1    
     5    2    3 2    
     6    2    4 am   BACKBONE|DICT|INTERRES
     7    4    5 1    
     8    4  130 1    
     9    5    6 1    
    10    5   65 1    
    11    5  131 1    
    12    6    7 1    
    13    6  132 1    
    14    6  133 1    
    15    7    8 1    
    16    8    9 1    
    17    8  134 1    
    18    8  135 1    
    19    9   10 ar   
    20    9   14 ar   
    21   10   11 ar   
    22   10  136 1    
    23   11   12 ar   
    24   11  126 1    
    25   12   13 ar   
    26   12  137 1    
    27   13   14 ar   
    28   13   15 1    
    29   14  138 1    
    30   15   16 1    
    31   15  139 1    
    32   15  140 1    
    33   16   17 1    
    34   17   18 1    
    35   17  141 1    
    36   17  142 1    
    37   18   19 1    
    38   18   67 1    
    39   18  143 1    
    40   19   20 am   BACKBONE|DICT|INTERRES
    41   19  144 1    
    42   20   21 2    
    43   20   22 1    
    44   22   23 1    
    45   22   24 1    
    46   22  145 1    
    47   23  146 1    
    48   23  147 1    
    49   23  148 1    
    50   24   25 am   BACKBONE|DICT|INTERRES
    51   24  149 1    
    52   25   26 2    
    53   25   27 1    
    54   27   28 1    
    55   27   29 1    
    56   27  150 1    
    57   28  151 1    
    58   28  152 1    
    59   28  153 1    
    60   29   30 am   BACKBONE|DICT|INTERRES
    61   29  154 1    
    62   30   31 2    
    63   30   32 1    
    64   32   33 1    
    65   32   34 1    
    66   32  155 1    
    67   33  156 1    
    68   33  157 1    
    69   33  158 1    
    70   34   35 am   BACKBONE|DICT|INTERRES
    71   34  159 1    
    72   35   36 2    
    73   35   37 1    
    74   37   38 1    
    75   37   39 1    
    76   37  160 1    
    77   38  161 1    
    78   38  162 1    
    79   38  163 1    
    80   39   40 am   BACKBONE|DICT|INTERRES
    81   39  164 1    
    82   40   41 2    
    83   40   42 1    
    84   42   43 1    
    85   42   44 1    
    86   42  165 1    
    87   43  166 1    
    88   43  167 1    
    89   43  168 1    
    90   44   45 am   BACKBONE|DICT|INTERRES
    91   44  169 1    
    92   45   46 2    
    93   45   47 1    
    94   47   48 1    
    95   47   49 1    
    96   47  170 1    
    97   48  171 1    
    98   48  172 1    
    99   48  173 1    
   100   49   50 am   BACKBONE|DICT|INTERRES
   101   49  174 1    
   102   50   51 2    
   103   50   52 1    
   104   52   53 1    
   105   52   54 1    
   106   52  175 1    
   107   53  176 1    
   108   53  177 1    
   109   53  178 1    
   110   54   55 am   BACKBONE|DICT|INTERRES
   111   54  179 1    
   112   55   56 2    
   113   55   57 1    
   114   57   58 1    
   115   57   59 1    
   116   57  180 1    
   117   58  181 1    
   118   58  182 1    
   119   58  183 1    
   120   59   60 am   BACKBONE|DICT|INTERRES
   121   59  184 1    
   122   60   61 2    
   123   60   62 1    
   124   62   63 1    
   125   62   64 1    
   126   62  185 1    
   127   63  186 1    
   128   63  187 1    
   129   63  188 1    
   130   64   65 am   BACKBONE|DICT|INTERRES
   131   64  189 1    
   132   65   66 2    
   133   67   68 2    
   134   67   69 am   BACKBONE|DICT|INTERRES
   135   69   70 1    
   136   69  190 1    
   137   70   71 1    
   138   70   72 1    
   139   70  191 1    
   140   71  192 1    
   141   71  193 1    
   142   71  194 1    
   143   72   73 2    
   144   72   74 am   BACKBONE|DICT|INTERRES
   145   74   75 1    
   146   74  195 1    
   147   75   76 1    
   148   75   77 1    
   149   75  196 1    
   150   76  197 1    
   151   76  198 1    
   152   76  199 1    
   153   77   78 2    
   154   77   79 am   BACKBONE|DICT|INTERRES
   155   79   80 1    
   156   79  200 1    
   157   80   81 1    
   158   80   82 1    
   159   80  201 1    
   160   81  202 1    
   161   81  203 1    
   162   81  204 1    
   163   82   83 2    
   164   82   84 am   BACKBONE|DICT|INTERRES
   165   84   85 1    
   166   84  205 1    
   167   85   86 1    
   168   85   87 1    
   169   85  206 1    
   170   86  207 1    
   171   86  208 1    
   172   86  209 1    
   173   87   88 2    
   174   87   89 am   BACKBONE|DICT|INTERRES
   175   89   90 1    
   176   89  210 1    
   177   90   91 1    
   178   90   92 1    
   179   90  211 1    
   180   91  212 1    
   181   91  213 1    
   182   91  214 1    
   183   92   93 2    
   184   92   94 am   BACKBONE|DICT|INTERRES
   185   94   95 1    
   186   94  215 1    
   187   95   96 1    
   188   95   97 1    
   189   95  216 1    
   190   96  217 1    
   191   96  218 1    
   192   96  219 1    
   193   97   98 2    
   194   97   99 am   BACKBONE|DICT|INTERRES
   195   99  100 1    
   196   99  220 1    
   197  100  101 1    
   198  100  102 1    
   199  100  221 1    
   200  101  222 1    
   201  101  223 1    
   202  101  224 1    
   203  102  103 2    
   204  102  104 am   BACKBONE|DICT|INTERRES
   205  104  105 1    
   206  104  225 1    
   207  105  106 1    
   208  105  107 1    
   209  105  226 1    
   210  106  227 1    
   211  106  228 1    
   212  106  229 1    
   213  107  108 2    
   214  107  109 am   BACKBONE|DICT|INTERRES
   215  109  110 1    
   216  109  230 1    
   217  110  111 1    
   218  110  112 1    
   219  110  231 1    
   220  111  232 1    
   221  111  233 1    
   222  111  234 1    
   223  112  113 2    
   224  112  114 am   BACKBONE|DICT|INTERRES
   225  114  115 1    
   226  114  235 1    
   227  115  116 1    
   228  115  117 1    
   229  115  236 1    
   230  116  237 1    
   231  116  238 1    
   232  116  239 1    
   233  117  118 2    
   234  117  119 am   BACKBONE|DICT|INTERRES
   235  119  120 1    
   236  119  240 1    
   237  120  121 1    
   238  120  124 1    
   239  120  241 1    
   240  121  122 am   BACKBONE|DICT|INTERRES
   241  121  123 2    
   242  122  242 1    
   243  122  243 1    
   244  124  125 1    
   245  124  244 1    
   246  124  245 1    
   247  125  126 1    
   248  126  246 1    
   249  126  247 1    
@<TRIPOS>SUBSTRUCTURE
     1 UNK         1 GROUP             0       ****    0 ROOT    
