@<TRIPOS>MOLECULE
3R540
247   249    1
SMALL
USER_CHARGES


@<TRIPOS>ATOM
      1 CA          1.0259  -14.3183  -50.5330 C.3       0 UNK        -0.1800 
      2 C          -0.0346  -14.3548  -49.4413 C.2       0 UNK         0.5000 
      3 O          -1.0768  -13.7149  -49.5840 O.2       0 UNK        -0.5000 
      4 N           0.2366  -15.1042  -48.3632 N.am      1 UNK        -0.5000 
      5 CA         -0.5986  -15.2567  -47.1596 C.3       1 UNK         0.1400 
      6 C6         -2.0146  -15.8470  -47.4429 C.3       23 UNK        -0.0398 
      7 S7         -1.9765  -17.3153  -48.5273 S.3       23 UNK        -0.2404 
      8 C8         -1.8666  -18.6794  -47.3317 C.3       23 UNK        -0.0205 
      9 C9         -3.2253  -19.2835  -47.0167 C.ar      23 UNK        -0.0193 
     10 C10        -3.9670  -19.8982  -48.0297 C.ar      23 UNK        -0.1150 
     11 C11        -5.2024  -20.4870  -47.7496 C.ar      23 UNK        -0.0193 
     12 C12        -5.6837  -20.4794  -46.4381 C.ar      23 UNK        -0.1150 
     13 C13        -4.9415  -19.8877  -45.4107 C.ar      23 UNK        -0.0193 
     14 C14        -3.7219  -19.2725  -45.7101 C.ar      23 UNK        -0.1150 
     15 C15        -5.4543  -19.9316  -43.9782 C.3       23 UNK        -0.0205 
     16 S16        -5.5174  -21.6358  -43.3318 S.3       23 UNK        -0.2404 
     17 C17        -3.7766  -21.9610  -42.8724 C.3       23 UNK        -0.0398 
     18 CA         -2.8359  -22.3547  -44.0394 C.3       11 UNK         0.1400 
     19 N          -1.4706  -22.5828  -43.5701 N.am      11 UNK        -0.5000 
     20 C          -0.4022  -22.8110  -44.3459 C.2       10 UNK         0.5000 
     21 O          -0.4631  -22.8949  -45.5746 O.2       10 UNK        -0.5000 
     22 CA          0.9530  -22.9506  -43.6166 C.3       10 UNK         0.1400 
     23 CB          2.1419  -23.0678  -44.5854 C.3       10 UNK        -0.1800 
     24 N           1.1978  -21.8255  -42.7116 N.am      10 UNK        -0.5000 
     25 C           0.6775  -21.6817  -41.4858 C.2       9 UNK         0.5000 
     26 O          -0.0256  -22.5341  -40.9416 O.2       9 UNK        -0.5000 
     27 CA          0.9265  -20.3363  -40.7812 C.3       9 UNK         0.1400 
     28 CB          2.3158  -20.3130  -40.1264 C.3       9 UNK        -0.1800 
     29 N           0.7912  -19.1994  -41.6933 N.am      9 UNK        -0.5000 
     30 C          -0.3548  -18.8207  -42.2795 C.2       8 UNK         0.5000 
     31 O          -1.4470  -19.3376  -42.0467 O.2       8 UNK        -0.5000 
     32 CA         -0.2646  -17.6899  -43.3220 C.3       8 UNK         0.1400 
     33 CB         -0.2934  -16.3155  -42.6395 C.3       8 UNK        -0.1800 
     34 N           0.9238  -17.7893  -44.1699 N.am      8 UNK        -0.5000 
     35 C           1.1765  -18.8019  -45.0115 C.2       7 UNK         0.5000 
     36 O           0.4101  -19.7425  -45.1983 O.2       7 UNK        -0.5000 
     37 CA          2.5232  -18.7729  -45.7492 C.3       7 UNK         0.1400 
     38 CB          2.4390  -17.8993  -47.0094 C.3       7 UNK        -0.1800 
     39 N           3.6036  -18.3025  -44.8853 N.am      7 UNK        -0.5000 
     40 C           4.1241  -19.0206  -43.8804 C.2       6 UNK         0.5000 
     41 O           3.7766  -20.1701  -43.6079 O.2       6 UNK        -0.5000 
     42 CA          5.1788  -18.3146  -43.0087 C.3       6 UNK         0.1400 
     43 CB          6.5579  -18.3531  -43.6839 C.3       6 UNK        -0.1800 
     44 N           4.8214  -16.9263  -42.7085 N.am      6 UNK        -0.5000 
     45 C           3.7708  -16.5669  -41.9581 C.2       5 UNK         0.5000 
     46 O           3.0090  -17.3706  -41.4235 O.2       5 UNK        -0.5000 
     47 CA          3.4994  -15.0599  -41.8064 C.3       5 UNK         0.1400 
     48 CB          4.2998  -14.4858  -40.6283 C.3       5 UNK        -0.1800 
     49 N           3.7705  -14.2640  -43.0056 N.am      5 UNK        -0.5000 
     50 C           3.2298  -14.4573  -44.2155 C.2       4 UNK         0.5000 
     51 O           2.5109  -15.4155  -44.5060 O.2       4 UNK        -0.5000 
     52 CA          3.4938  -13.3505  -45.2502 C.3       4 UNK         0.1400 
     53 CB          3.4325  -13.8733  -46.6951 C.3       4 UNK        -0.1800 
     54 N           2.4978  -12.2972  -45.0692 N.am      4 UNK        -0.5000 
     55 C           2.5520  -11.3595  -44.1115 C.2       3 UNK         0.5000 
     56 O           3.5321  -11.1893  -43.3843 O.2       3 UNK        -0.5000 
     57 CA          1.3024  -10.4805  -43.9047 C.3       3 UNK         0.1400 
     58 CB          1.4472   -9.1521  -44.6623 C.3       3 UNK        -0.1800 
     59 N           0.0559  -11.1288  -44.3151 N.am      3 UNK        -0.5000 
     60 C          -0.4899  -12.2084  -43.7370 C.2       2 UNK         0.5000 
     61 O          -0.0265  -12.7581  -42.7376 O.2       2 UNK        -0.5000 
     62 CA         -1.7642  -12.7819  -44.3945 C.3       2 UNK         0.1400 
     63 CB         -2.6049  -11.7172  -45.1336 C.3       2 UNK        -0.1800 
     64 N          -1.4915  -13.9176  -45.2858 N.am      2 UNK        -0.5000 
     65 C          -0.6484  -13.9465  -46.3309 C.2       1 UNK         0.5000 
     66 O           0.0826  -12.9984  -46.6321 O.2       1 UNK        -0.5000 
     67 C          -3.3460  -23.5544  -44.8629 C.2       11 UNK         0.5000 
     68 O          -3.3004  -24.6900  -44.3843 O.2       11 UNK        -0.5000 
     69 N          -3.7798  -23.2610  -46.0967 N.am      12 UNK        -0.5000 
     70 CA         -4.2261  -24.1991  -47.1294 C.3       12 UNK         0.1400 
     71 CB         -5.4935  -24.9558  -46.6815 C.3       12 UNK        -0.1800 
     72 C          -3.1131  -25.1358  -47.6511 C.2       12 UNK         0.5000 
     73 O          -3.4270  -26.1727  -48.2377 O.2       12 UNK        -0.5000 
     74 N          -1.8414  -24.7552  -47.4602 N.am      13 UNK        -0.5000 
     75 CA         -0.6705  -25.5393  -47.8545 C.3       13 UNK         0.1400 
     76 CB         -0.1728  -26.3341  -46.6326 C.3       13 UNK        -0.1800 
     77 C           0.4509  -24.6785  -48.4692 C.2       13 UNK         0.5000 
     78 O           1.5387  -25.2066  -48.7075 O.2       13 UNK        -0.5000 
     79 N           0.1974  -23.3879  -48.7244 N.am      14 UNK        -0.5000 
     80 CA          1.1794  -22.4426  -49.2488 C.3       14 UNK         0.1400 
     81 CB          2.0256  -21.8889  -48.0888 C.3       14 UNK        -0.1800 
     82 C           0.4893  -21.2964  -49.9982 C.2       14 UNK         0.5000 
     83 O          -0.7065  -21.0604  -49.8022 O.2       14 UNK        -0.5000 
     84 N           1.2876  -20.5923  -50.8151 N.am      15 UNK        -0.5000 
     85 CA          0.9754  -19.3601  -51.5446 C.3       15 UNK         0.1400 
     86 CB          1.0429  -18.1559  -50.5843 C.3       15 UNK        -0.1800 
     87 C          -0.3353  -19.4540  -52.3485 C.2       15 UNK         0.5000 
     88 O          -0.3776  -20.1943  -53.3334 O.2       15 UNK        -0.5000 
     89 N          -1.3837  -18.7414  -51.9094 N.am      16 UNK        -0.5000 
     90 CA         -2.7035  -18.6932  -52.5433 C.3       16 UNK         0.1400 
     91 CB         -3.6133  -17.7271  -51.7721 C.3       16 UNK        -0.1800 
     92 C          -3.3872  -20.0640  -52.6776 C.2       16 UNK         0.5000 
     93 O          -4.1704  -20.2467  -53.6093 O.2       16 UNK        -0.5000 
     94 N          -3.0569  -21.0127  -51.7886 N.am      17 UNK        -0.5000 
     95 CA         -3.5401  -22.3937  -51.8346 C.3       17 UNK         0.1400 
     96 CB         -3.0835  -23.1288  -50.5678 C.3       17 UNK        -0.1800 
     97 C          -3.0640  -23.1617  -53.0813 C.2       17 UNK         0.5000 
     98 O          -3.7796  -24.0439  -53.5538 O.2       17 UNK        -0.5000 
     99 N          -1.8774  -22.8076  -53.5894 N.am      18 UNK        -0.5000 
    100 CA        -1.2914  -23.3781  -54.7981 C.3       18 UNK         0.1400 
    101 CB         0.2167  -23.5771  -54.5768 C.3       18 UNK        -0.1800 
    102 C         -1.5449  -22.4710  -56.0117 C.2       18 UNK         0.5000 
    103 O         -1.8910  -22.9713  -57.0820 O.2       18 UNK        -0.5000 
    104 N         -1.3585  -21.1567  -55.8283 N.am      19 UNK        -0.5000 
    105 CA        -1.3959  -20.1610  -56.8982 C.3       19 UNK         0.1400 
    106 CB        -0.7072  -18.8774  -56.4090 C.3       19 UNK        -0.1800 
    107 C         -2.8090  -19.8428  -57.4177 C.2       19 UNK         0.5000 
    108 O         -2.9494  -19.5282  -58.6005 O.2       19 UNK        -0.5000 
    109 N         -3.8174  -19.8990  -56.5379 N.am      20 UNK        -0.5000 
    110 CA        -5.1844  -19.4576  -56.8285 C.3       20 UNK         0.1400 
    111 CB        -5.3800  -18.0555  -56.2213 C.3       20 UNK        -0.1800 
    112 C         -6.2554  -20.4357  -56.3150 C.2       20 UNK         0.5000 
    113 O         -7.4392  -20.0976  -56.3612 O.2       20 UNK        -0.5000 
    114 N         -5.8424  -21.6009  -55.7900 N.am      21 UNK        -0.5000 
    115 CA        -6.6821  -22.6064  -55.1184 C.3       21 UNK         0.1400 
    116 CB        -7.5948  -23.3177  -56.1387 C.3       21 UNK        -0.1800 
    117 C         -7.4641  -22.0352  -53.9103 C.2       21 UNK         0.5000 
    118 O         -8.5755  -22.4806  -53.6202 O.2       21 UNK        -0.5000 
    119 N         -6.8697  -21.0337  -53.2487 N.am      22 UNK        -0.5000 
    120 CA        -7.4613  -20.1871  -52.2025 C.3       22 UNK         0.1400 
    121 C         -8.5706  -19.2048  -52.6977 C.2       22 UNK         0.5000 
    122 N         -8.7706  -19.0127  -53.9966 N.am      22 UNK        -0.7600 
    123 O         -9.2514  -18.5762  -51.8922 O.2       22 UNK        -0.5000 
    124 C124       -7.8722  -20.9886  -50.9323 C.3       23 UNK        -0.0398 
    125 S125       -7.3952  -20.1241  -49.3963 S.3       23 UNK        -0.2404 
    126 C126       -6.0006  -21.1544  -48.8571 C.3       23 UNK        -0.0205 
    127 H127        1.3828  -13.2980  -50.6735 H         1 UNK         0.0600 
    128 H128        0.6056  -14.6667  -51.4765 H         1 UNK         0.0600 
    129 H129        1.8828  -14.9469  -50.2890 H         1 UNK         0.0600 
    130 H130        1.1243  -15.5806  -48.3250 H         1 UNK         0.3000 
    131 H131       -0.0695  -15.9744  -46.5312 H         1 UNK         0.0600 
    132 H132       -2.6489  -15.1010  -47.9243 H         1 UNK         0.0800 
    133 H133       -2.5228  -16.1191  -46.5171 H         1 UNK         0.0800 
    134 H134       -1.2205  -19.4588  -47.7371 H         1 UNK         0.0800 
    135 H135       -1.3809  -18.3232  -46.4250 H         1 UNK         0.0800 
    136 H136       -3.5765  -19.9143  -49.0375 H         1 UNK         0.1150 
    137 H137       -6.6311  -20.9493  -46.2129 H         1 UNK         0.1150 
    138 H138       -3.1435  -18.8173  -44.9188 H         1 UNK         0.1150 
    139 H139       -4.8460  -19.3094  -43.3196 H         1 UNK         0.0800 
    140 H140       -6.4603  -19.5105  -43.9541 H         1 UNK         0.0800 
    141 H141       -3.7815  -22.7545  -42.1233 H         1 UNK         0.0800 
    142 H142       -3.3881  -21.0788  -42.3637 H         1 UNK         0.0800 
    143 H143       -2.7600  -21.4987  -44.7068 H         1 UNK         0.0600 
    144 H144       -1.3214  -22.5490  -42.5689 H         1 UNK         0.3000 
    145 H145        0.9088  -23.8736  -43.0351 H         1 UNK         0.0600 
    146 H146        3.0723  -23.2470  -44.0464 H         1 UNK         0.0600 
    147 H147        2.2673  -22.1552  -45.1676 H         1 UNK         0.0600 
    148 H148        2.0059  -23.8935  -45.2849 H         1 UNK         0.0600 
    149 H149        1.7511  -21.0670  -43.0906 H         1 UNK         0.3000 
    150 H150        0.1776  -20.2281  -39.9939 H         1 UNK         0.0600 
    151 H151        2.4411  -21.1541  -39.4434 H         1 UNK         0.0600 
    152 H152        2.4623  -19.4006  -39.5482 H         1 UNK         0.0600 
    153 H153        3.1127  -20.3691  -40.8688 H         1 UNK         0.0600 
    154 H154        1.6338  -18.6614  -41.8738 H         1 UNK         0.3000 
    155 H155       -1.1381  -17.7635  -43.9719 H         1 UNK         0.0600 
    156 H156       -1.2427  -16.1544  -42.1276 H         1 UNK         0.0600 
    157 H157       -0.1681  -15.5095  -43.3613 H         1 UNK         0.0600 
    158 H158        0.4973  -16.2200  -41.8964 H         1 UNK         0.0600 
    159 H159        1.5915  -17.0241  -44.1176 H         1 UNK         0.3000 
    160 H160        2.7535  -19.7932  -46.0612 H         1 UNK         0.0600 
    161 H161        1.6128  -18.2195  -47.6445 H         1 UNK         0.0600 
    162 H162        3.3522  -17.9713  -47.6002 H         1 UNK         0.0600 
    163 H163        2.2798  -16.8500  -46.7643 H         1 UNK         0.0600 
    164 H164        3.8892  -17.3403  -44.9960 H         1 UNK         0.3000 
    165 H165        5.2464  -18.8588  -42.0641 H         1 UNK         0.0600 
    166 H166        7.3251  -17.9270  -43.0372 H         1 UNK         0.0600 
    167 H167        6.8545  -19.3792  -43.9057 H         1 UNK         0.0600 
    168 H168        6.5643  -17.7990  -44.6233 H         1 UNK         0.0600 
    169 H169        5.3957  -16.2024  -43.1146 H         1 UNK         0.3000 
    170 H170        2.4387  -14.9405  -41.5799 H         1 UNK         0.0600 
    171 H171        5.3740  -14.5293  -40.8121 H         1 UNK         0.0600 
    172 H172        4.0329  -13.4456  -40.4399 H         1 UNK         0.0600 
    173 H173        4.0999  -15.0421  -39.7114 H         1 UNK         0.0600 
    174 H174        4.2976  -13.4132  -42.8606 H         1 UNK         0.3000 
    175 H175        4.4943  -12.9452  -45.0848 H         1 UNK         0.0600 
    176 H176        2.4552  -14.2883  -46.9335 H         1 UNK         0.0600 
    177 H177        3.6392  -13.0777  -47.4108 H         1 UNK         0.0600 
    178 H178        4.1707  -14.6596  -46.8568 H         1 UNK         0.0600 
    179 H179        1.6378  -12.3994  -45.6015 H         1 UNK         0.3000 
    180 H180        1.2300  -10.2608  -42.8375 H         1 UNK         0.0600 
    181 H181        0.6063   -8.4884  -44.4602 H         1 UNK         0.0600 
    182 H182        1.5016   -9.3084  -45.7404 H         1 UNK         0.0600 
    183 H183        2.3543   -8.6268  -44.3602 H         1 UNK         0.0600 
    184 H184       -0.3733  -10.7803  -45.1600 H         1 UNK         0.3000 
    185 H185       -2.3764  -13.1692  -43.5785 H         1 UNK         0.0600 
    186 H186       -2.8140  -10.8631  -44.4879 H         1 UNK         0.0600 
    187 H187       -2.1089  -11.3434  -46.0299 H         1 UNK         0.0600 
    188 H188       -3.5662  -12.1288  -45.4411 H         1 UNK         0.0600 
    189 H189       -2.0203  -14.7504  -45.0734 H         1 UNK         0.3000 
    190 H190       -3.7750  -22.2893  -46.3768 H         1 UNK         0.3000 
    191 H191       -4.5120  -23.5838  -47.9806 H         1 UNK         0.0600 
    192 H192       -5.2814  -25.6682  -45.8840 H         1 UNK         0.0600 
    193 H193       -5.9288  -25.5155  -47.5101 H         1 UNK         0.0600 
    194 H194       -6.2572  -24.2659  -46.3219 H         1 UNK         0.0600 
    195 H195       -1.6416  -23.9230  -46.9133 H         1 UNK         0.3000 
    196 H196       -0.9471  -26.2522  -48.6337 H         1 UNK         0.0600 
    197 H197       -0.9562  -26.9816  -46.2385 H         1 UNK         0.0600 
    198 H198        0.1472  -25.6706  -45.8288 H         1 UNK         0.0600 
    199 H199        0.6731  -26.9720  -46.8909 H         1 UNK         0.0600 
    200 H200       -0.7197  -22.9986  -48.5550 H         1 UNK         0.3000 
    201 H201        1.8303  -22.9551  -49.9604 H         1 UNK         0.0600 
    202 H202        2.5878  -22.6824  -47.5971 H         1 UNK         0.0600 
    203 H203        1.3944  -21.4101  -47.3388 H         1 UNK         0.0600 
    204 H204        2.7479  -21.1485  -48.4344 H         1 UNK         0.0600 
    205 H205        2.2399  -20.9107  -50.9233 H         1 UNK         0.3000 
    206 H206        1.7647  -19.2285  -52.2862 H         1 UNK         0.0600 
    207 H207        2.0553  -18.0218  -50.2035 H         1 UNK         0.0600 
    208 H208        0.7645  -17.2281  -51.0846 H         1 UNK         0.0600 
    209 H209        0.3880  -18.2897  -49.7258 H         1 UNK         0.0600 
    210 H210       -1.2767  -18.2067  -51.0587 H         1 UNK         0.3000 
    211 H211       -2.5673  -18.2982  -53.5513 H         1 UNK         0.0600 
    212 H212       -3.1606  -16.7393  -51.6832 H         1 UNK         0.0600 
    213 H213       -3.8276  -18.0912  -50.7668 H         1 UNK         0.0600 
    214 H214       -4.5693  -17.6015  -52.2825 H         1 UNK         0.0600 
    215 H215       -2.3609  -20.7994  -51.0810 H         1 UNK         0.3000 
    216 H216       -4.6314  -22.3674  -51.8486 H         1 UNK         0.0600 
    217 H217       -3.2805  -22.5431  -49.6712 H         1 UNK         0.0600 
    218 H218       -2.0148  -23.3428  -50.5920 H         1 UNK         0.0600 
    219 H219       -3.6037  -24.0819  -50.4682 H         1 UNK         0.0600 
    220 H220       -1.3762  -22.0359  -53.1656 H         1 UNK         0.3000 
    221 H221       -1.7306  -24.3555  -55.0092 H         1 UNK         0.0600 
    222 H222        0.7223  -22.6369  -54.3522 H         1 UNK         0.0600 
    223 H223        0.4044  -24.2619  -53.7497 H         1 UNK         0.0600 
    224 H224        0.6889  -24.0012  -55.4639 H         1 UNK         0.0600 
    225 H225       -1.0438  -20.8271  -54.9187 H         1 UNK         0.3000 
    226 H226       -0.8184  -20.5491  -57.7401 H         1 UNK         0.0600 
    227 H227        0.3210  -19.0731  -56.1042 H         1 UNK         0.0600 
    228 H228       -0.6747  -18.1251  -57.1982 H         1 UNK         0.0600 
    229 H229       -1.2297  -18.4387  -55.5589 H         1 UNK         0.0600 
    230 H230       -3.6277  -20.1457  -55.5726 H         1 UNK         0.3000 
    231 H231       -5.3427  -19.3889  -57.9064 H         1 UNK         0.0600 
    232 H232       -6.3685  -17.6565  -56.4522 H         1 UNK         0.0600 
    233 H233       -4.6488  -17.3497  -56.6156 H         1 UNK         0.0600 
    234 H234       -5.2773  -18.0724  -55.1354 H         1 UNK         0.0600 
    235 H235       -4.8508  -21.7892  -55.7910 H         1 UNK         0.3000 
    236 H236       -6.0040  -23.3555  -54.7119 H         1 UNK         0.0600 
    237 H237       -8.3511  -22.6453  -56.5446 H         1 UNK         0.0600 
    238 H238       -7.0173  -23.7160  -56.9728 H         1 UNK         0.0600 
    239 H239       -8.1173  -24.1569  -55.6781 H         1 UNK         0.0600 
    240 H240       -5.9435  -20.7464  -53.5563 H         1 UNK         0.3000 
    241 H241       -6.6348  -19.5297  -51.9301 H         1 UNK         0.0600 
    242 H242       -8.2379  -19.5116  -54.7025 H         1 UNK         0.3800 
    243 H243       -9.4863  -18.3667  -54.2885 H         1 UNK         0.3800 
    244 H244       -7.4057  -21.9745  -50.9313 H         1 UNK         0.0800 
    245 H245       -8.9457  -21.1841  -50.9152 H         1 UNK         0.0800 
    246 H246       -5.3571  -21.3526  -49.7136 H         1 UNK         0.0800 
    247 H247       -6.3779  -22.1191  -48.5152 H         1 UNK         0.0800 
@<TRIPOS>BOND
     1    1    2 1    
     2    1  127 1    
     3    1  128 1    
     4    1  129 1    
     5    2    3 2    
     6    2    4 am   BACKBONE|DICT|INTERRES
     7    4    5 1    
     8    4  130 1    
     9    5    6 1    
    10    5   65 1    
    11    5  131 1    
    12    6    7 1    
    13    6  132 1    
    14    6  133 1    
    15    7    8 1    
    16    8    9 1    
    17    8  134 1    
    18    8  135 1    
    19    9   10 ar   
    20    9   14 ar   
    21   10   11 ar   
    22   10  136 1    
    23   11   12 ar   
    24   11  126 1    
    25   12   13 ar   
    26   12  137 1    
    27   13   14 ar   
    28   13   15 1    
    29   14  138 1    
    30   15   16 1    
    31   15  139 1    
    32   15  140 1    
    33   16   17 1    
    34   17   18 1    
    35   17  141 1    
    36   17  142 1    
    37   18   19 1    
    38   18   67 1    
    39   18  143 1    
    40   19   20 am   BACKBONE|DICT|INTERRES
    41   19  144 1    
    42   20   21 2    
    43   20   22 1    
    44   22   23 1    
    45   22   24 1    
    46   22  145 1    
    47   23  146 1    
    48   23  147 1    
    49   23  148 1    
    50   24   25 am   BACKBONE|DICT|INTERRES
    51   24  149 1    
    52   25   26 2    
    53   25   27 1    
    54   27   28 1    
    55   27   29 1    
    56   27  150 1    
    57   28  151 1    
    58   28  152 1    
    59   28  153 1    
    60   29   30 am   BACKBONE|DICT|INTERRES
    61   29  154 1    
    62   30   31 2    
    63   30   32 1    
    64   32   33 1    
    65   32   34 1    
    66   32  155 1    
    67   33  156 1    
    68   33  157 1    
    69   33  158 1    
    70   34   35 am   BACKBONE|DICT|INTERRES
    71   34  159 1    
    72   35   36 2    
    73   35   37 1    
    74   37   38 1    
    75   37   39 1    
    76   37  160 1    
    77   38  161 1    
    78   38  162 1    
    79   38  163 1    
    80   39   40 am   BACKBONE|DICT|INTERRES
    81   39  164 1    
    82   40   41 2    
    83   40   42 1    
    84   42   43 1    
    85   42   44 1    
    86   42  165 1    
    87   43  166 1    
    88   43  167 1    
    89   43  168 1    
    90   44   45 am   BACKBONE|DICT|INTERRES
    91   44  169 1    
    92   45   46 2    
    93   45   47 1    
    94   47   48 1    
    95   47   49 1    
    96   47  170 1    
    97   48  171 1    
    98   48  172 1    
    99   48  173 1    
   100   49   50 am   BACKBONE|DICT|INTERRES
   101   49  174 1    
   102   50   51 2    
   103   50   52 1    
   104   52   53 1    
   105   52   54 1    
   106   52  175 1    
   107   53  176 1    
   108   53  177 1    
   109   53  178 1    
   110   54   55 am   BACKBONE|DICT|INTERRES
   111   54  179 1    
   112   55   56 2    
   113   55   57 1    
   114   57   58 1    
   115   57   59 1    
   116   57  180 1    
   117   58  181 1    
   118   58  182 1    
   119   58  183 1    
   120   59   60 am   BACKBONE|DICT|INTERRES
   121   59  184 1    
   122   60   61 2    
   123   60   62 1    
   124   62   63 1    
   125   62   64 1    
   126   62  185 1    
   127   63  186 1    
   128   63  187 1    
   129   63  188 1    
   130   64   65 am   BACKBONE|DICT|INTERRES
   131   64  189 1    
   132   65   66 2    
   133   67   68 2    
   134   67   69 am   BACKBONE|DICT|INTERRES
   135   69   70 1    
   136   69  190 1    
   137   70   71 1    
   138   70   72 1    
   139   70  191 1    
   140   71  192 1    
   141   71  193 1    
   142   71  194 1    
   143   72   73 2    
   144   72   74 am   BACKBONE|DICT|INTERRES
   145   74   75 1    
   146   74  195 1    
   147   75   76 1    
   148   75   77 1    
   149   75  196 1    
   150   76  197 1    
   151   76  198 1    
   152   76  199 1    
   153   77   78 2    
   154   77   79 am   BACKBONE|DICT|INTERRES
   155   79   80 1    
   156   79  200 1    
   157   80   81 1    
   158   80   82 1    
   159   80  201 1    
   160   81  202 1    
   161   81  203 1    
   162   81  204 1    
   163   82   83 2    
   164   82   84 am   BACKBONE|DICT|INTERRES
   165   84   85 1    
   166   84  205 1    
   167   85   86 1    
   168   85   87 1    
   169   85  206 1    
   170   86  207 1    
   171   86  208 1    
   172   86  209 1    
   173   87   88 2    
   174   87   89 am   BACKBONE|DICT|INTERRES
   175   89   90 1    
   176   89  210 1    
   177   90   91 1    
   178   90   92 1    
   179   90  211 1    
   180   91  212 1    
   181   91  213 1    
   182   91  214 1    
   183   92   93 2    
   184   92   94 am   BACKBONE|DICT|INTERRES
   185   94   95 1    
   186   94  215 1    
   187   95   96 1    
   188   95   97 1    
   189   95  216 1    
   190   96  217 1    
   191   96  218 1    
   192   96  219 1    
   193   97   98 2    
   194   97   99 am   BACKBONE|DICT|INTERRES
   195   99  100 1    
   196   99  220 1    
   197  100  101 1    
   198  100  102 1    
   199  100  221 1    
   200  101  222 1    
   201  101  223 1    
   202  101  224 1    
   203  102  103 2    
   204  102  104 am   BACKBONE|DICT|INTERRES
   205  104  105 1    
   206  104  225 1    
   207  105  106 1    
   208  105  107 1    
   209  105  226 1    
   210  106  227 1    
   211  106  228 1    
   212  106  229 1    
   213  107  108 2    
   214  107  109 am   BACKBONE|DICT|INTERRES
   215  109  110 1    
   216  109  230 1    
   217  110  111 1    
   218  110  112 1    
   219  110  231 1    
   220  111  232 1    
   221  111  233 1    
   222  111  234 1    
   223  112  113 2    
   224  112  114 am   BACKBONE|DICT|INTERRES
   225  114  115 1    
   226  114  235 1    
   227  115  116 1    
   228  115  117 1    
   229  115  236 1    
   230  116  237 1    
   231  116  238 1    
   232  116  239 1    
   233  117  118 2    
   234  117  119 am   BACKBONE|DICT|INTERRES
   235  119  120 1    
   236  119  240 1    
   237  120  121 1    
   238  120  124 1    
   239  120  241 1    
   240  121  122 am   BACKBONE|DICT|INTERRES
   241  121  123 2    
   242  122  242 1    
   243  122  243 1    
   244  124  125 1    
   245  124  244 1    
   246  124  245 1    
   247  125  126 1    
   248  126  246 1    
   249  126  247 1    
@<TRIPOS>SUBSTRUCTURE
     1 UNK         1 GROUP             0       ****    0 ROOT    
