@<TRIPOS>MOLECULE
3R540
247   249    1
SMALL
USER_CHARGES


@<TRIPOS>ATOM
      1 CA         -1.1737  -12.5849  -47.3208 C.3       0 UNK        -0.1800 
      2 C           0.2268  -12.3295  -47.8535 C.2       0 UNK         0.5000 
      3 O           0.3827  -11.6184  -48.8474 O.2       0 UNK        -0.5000 
      4 N           1.2511  -12.8918  -47.1988 N.am      1 UNK        -0.5000 
      5 CA          2.6663  -12.7170  -47.5462 C.3       1 UNK         0.1400 
      6 C6          3.5498  -13.9113  -47.0958 C.3       23 UNK        -0.0398 
      7 S7          2.8522  -15.5390  -47.5159 S.3       23 UNK        -0.2404 
      8 C8          3.4381  -15.7965  -49.2109 C.3       23 UNK        -0.0205 
      9 C9          2.8333  -17.0761  -49.7600 C.ar      23 UNK        -0.0193 
     10 C10         1.6331  -17.0376  -50.4761 C.ar      23 UNK        -0.1150 
     11 C11         1.0435  -18.2202  -50.9304 C.ar      23 UNK        -0.0193 
     12 C12         1.6719  -19.4429  -50.6808 C.ar      23 UNK        -0.1150 
     13 C13         2.8591  -19.4951  -49.9442 C.ar      23 UNK        -0.0193 
     14 C14         3.4423  -18.3066  -49.4978 C.ar      23 UNK        -0.1150 
     15 C15         3.4906  -20.8353  -49.5958 C.3       23 UNK        -0.0205 
     16 S16         2.8890  -21.4643  -47.9923 S.3       23 UNK        -0.2404 
     17 C17         1.1356  -21.7681  -48.3842 C.3       23 UNK        -0.0398 
     18 CA          0.4625  -22.7883  -47.4385 C.3       11 UNK         0.1400 
     19 N           0.2439  -22.2581  -46.0861 N.am      11 UNK        -0.5000 
     20 C          -0.2569  -22.9709  -45.0650 C.2       10 UNK         0.5000 
     21 O          -0.5438  -24.1649  -45.1394 O.2       10 UNK        -0.5000 
     22 CA         -0.5415  -22.2229  -43.7521 C.3       10 UNK         0.1400 
     23 CB          0.7536  -21.9765  -42.9639 C.3       10 UNK        -0.1800 
     24 N          -1.2542  -20.9636  -43.9641 N.am      10 UNK        -0.5000 
     25 C          -2.4833  -20.8657  -44.4923 C.2       9 UNK         0.5000 
     26 O          -3.1648  -21.8357  -44.8220 O.2       9 UNK        -0.5000 
     27 CA         -3.0302  -19.4470  -44.7355 C.3       9 UNK         0.1400 
     28 CB         -3.6036  -18.8500  -43.4423 C.3       9 UNK        -0.1800 
     29 N          -2.0272  -18.5412  -45.2939 N.am      9 UNK        -0.5000 
     30 C          -1.4161  -18.7202  -46.4746 C.2       8 UNK         0.5000 
     31 O          -1.6655  -19.6502  -47.2418 O.2       8 UNK        -0.5000 
     32 CA         -0.3059  -17.7159  -46.8265 C.3       8 UNK         0.1400 
     33 CB         -0.9068  -16.3905  -47.3166 C.3       8 UNK        -0.1800 
     34 N           0.5727  -17.4597  -45.6852 N.am      8 UNK        -0.5000 
     35 C           1.3624  -18.3812  -45.1169 C.2       7 UNK         0.5000 
     36 O           1.4573  -19.5432  -45.5119 O.2       7 UNK        -0.5000 
     37 CA          2.1169  -17.9459  -43.8482 C.3       7 UNK         0.1400 
     38 CB          3.3756  -17.1357  -44.1912 C.3       7 UNK        -0.1800 
     39 N           1.2672  -17.1722  -42.9416 N.am      7 UNK        -0.5000 
     40 C           0.2310  -17.6864  -42.2632 C.2       6 UNK         0.5000 
     41 O          -0.0968  -18.8702  -42.3161 O.2       6 UNK        -0.5000 
     42 CA         -0.5988  -16.7172  -41.4015 C.3       6 UNK         0.1400 
     43 CB         -0.0179  -16.6291  -39.9826 C.3       6 UNK        -0.1800 
     44 N          -0.6930  -15.3714  -41.9663 N.am      6 UNK        -0.5000 
     45 C          -1.2788  -15.0637  -43.1323 C.2       5 UNK         0.5000 
     46 O          -1.8150  -15.8925  -43.8686 O.2       5 UNK        -0.5000 
     47 CA         -1.2124  -13.5851  -43.5622 C.3       5 UNK         0.1400 
     48 CB         -2.4453  -12.8165  -43.0671 C.3       5 UNK        -0.1800 
     49 N           0.0020  -12.9086  -43.0967 N.am      5 UNK        -0.5000 
     50 C           1.2398  -13.2165  -43.5017 C.2       4 UNK         0.5000 
     51 O           1.4733  -14.0373  -44.3910 O.2       4 UNK        -0.5000 
     52 CA          2.3873  -12.4904  -42.7776 C.3       4 UNK         0.1400 
     53 CB          3.7489  -13.1826  -42.9593 C.3       4 UNK        -0.1800 
     54 N           2.4867  -11.0969  -43.2076 N.am      4 UNK        -0.5000 
     55 C           1.7721  -10.0893  -42.6861 C.2       3 UNK         0.5000 
     56 O           0.9178  -10.2510  -41.8128 O.2       3 UNK        -0.5000 
     57 CA          2.0570   -8.6644  -43.2035 C.3       3 UNK         0.1400 
     58 CB          3.0172   -7.9337  -42.2524 C.3       3 UNK        -0.1800 
     59 N           2.6191   -8.6381  -44.5542 N.am      3 UNK        -0.5000 
     60 C           1.9136   -8.8656  -45.6683 C.2       2 UNK         0.5000 
     61 O           0.6989   -9.0731  -45.6737 O.2       2 UNK        -0.5000 
     62 CA          2.6830   -8.9100  -47.0046 C.3       2 UNK         0.1400 
     63 CB          4.1249   -8.3552  -46.9424 C.3       2 UNK        -0.1800 
     64 N           2.6534  -10.2724  -47.5399 N.am      2 UNK        -0.5000 
     65 C           3.1493  -11.3743  -46.9588 C.2       1 UNK         0.5000 
     66 O           3.8691  -11.3532  -45.9582 O.2       1 UNK        -0.5000 
     67 C          -0.8484  -23.2942  -48.0721 C.2       11 UNK         0.5000 
     68 O          -0.8839  -24.4212  -48.5703 O.2       11 UNK        -0.5000 
     69 N          -1.9000  -22.4638  -48.0139 N.am      12 UNK        -0.5000 
     70 CA         -3.2374  -22.7715  -48.5171 C.3       12 UNK         0.1400 
     71 CB         -4.1464  -21.5476  -48.3328 C.3       12 UNK        -0.1800 
     72 C          -3.8535  -24.0177  -47.8592 C.2       12 UNK         0.5000 
     73 O          -4.3772  -24.8752  -48.5683 O.2       12 UNK        -0.5000 
     74 N          -3.7491  -24.1121  -46.5271 N.am      13 UNK        -0.5000 
     75 CA         -4.2296  -25.2461  -45.7403 C.3       13 UNK         0.1400 
     76 CB         -4.2001  -24.8831  -44.2477 C.3       13 UNK        -0.1800 
     77 C          -3.4380  -26.5409  -45.9972 C.2       13 UNK         0.5000 
     78 O          -4.0481  -27.6033  -46.1220 O.2       13 UNK        -0.5000 
     79 N          -2.1030  -26.4365  -46.0589 N.am      14 UNK        -0.5000 
     80 CA         -1.1970  -27.5731  -46.2212 C.3       14 UNK         0.1400 
     81 CB          0.2428  -27.1427  -45.9001 C.3       14 UNK        -0.1800 
     82 C          -1.2687  -28.2099  -47.6178 C.2       14 UNK         0.5000 
     83 O          -1.3706  -29.4335  -47.7194 O.2       14 UNK        -0.5000 
     84 N          -1.1963  -27.3788  -48.6655 N.am      15 UNK        -0.5000 
     85 CA         -1.1551  -27.8399  -50.0542 C.3       15 UNK         0.1400 
     86 CB         -0.3718  -26.8233  -50.8936 C.3       15 UNK        -0.1800 
     87 C          -2.5496  -28.0796  -50.6582 C.2       15 UNK         0.5000 
     88 O          -2.6498  -28.8062  -51.6479 O.2       15 UNK        -0.5000 
     89 N          -3.5885  -27.4555  -50.0818 N.am      16 UNK        -0.5000 
     90 CA         -5.0051  -27.4665  -50.4744 C.3       16 UNK         0.1400 
     91 CB         -5.5956  -28.8896  -50.4531 C.3       16 UNK        -0.1800 
     92 C          -5.2809  -26.7554  -51.8135 C.2       16 UNK         0.5000 
     93 O          -6.0858  -25.8256  -51.8568 O.2       16 UNK        -0.5000 
     94 N          -4.5915  -27.1797  -52.8792 N.am      17 UNK        -0.5000 
     95 CA         -4.6897  -26.6273  -54.2321 C.3       17 UNK         0.1400 
     96 CB         -3.9742  -27.5738  -55.2074 C.3       17 UNK        -0.1800 
     97 C          -4.1209  -25.2004  -54.3520 C.2       17 UNK         0.5000 
     98 O          -4.5461  -24.4480  -55.2293 O.2       17 UNK        -0.5000 
     99 N          -3.1874  -24.8441  -53.4578 N.am      18 UNK        -0.5000 
    100 CA        -2.5467  -23.5288  -53.3935 C.3       18 UNK         0.1400 
    101 CB        -1.3047  -23.6111  -52.4932 C.3       18 UNK        -0.1800 
    102 C         -3.4746  -22.4045  -52.8980 C.2       18 UNK         0.5000 
    103 O         -3.1034  -21.2415  -53.0282 O.2       18 UNK        -0.5000 
    104 N         -4.6424  -22.7538  -52.3351 N.am      19 UNK        -0.5000 
    105 CA        -5.6261  -21.8270  -51.7681 C.3       19 UNK         0.1400 
    106 CB        -6.7280  -22.6367  -51.0698 C.3       19 UNK        -0.1800 
    107 C         -6.2401  -20.8355  -52.7769 C.2       19 UNK         0.5000 
    108 O         -6.7343  -19.7869  -52.3598 O.2       19 UNK        -0.5000 
    109 N         -6.1946  -21.1676  -54.0750 N.am      20 UNK        -0.5000 
    110 CA        -6.5980  -20.2992  -55.1798 C.3       20 UNK         0.1400 
    111 CB        -6.5268  -21.0943  -56.4935 C.3       20 UNK        -0.1800 
    112 C         -5.7173  -19.0349  -55.2368 C.2       20 UNK         0.5000 
    113 O         -4.5270  -19.1380  -55.5389 O.2       20 UNK        -0.5000 
    114 N         -6.3198  -17.8818  -54.9105 N.am      21 UNK        -0.5000 
    115 CA        -5.6841  -16.5669  -54.7507 C.3       21 UNK         0.1400 
    116 CB        -5.1337  -16.0472  -56.0961 C.3       21 UNK        -0.1800 
    117 C         -4.6390  -16.5413  -53.6114 C.2       21 UNK         0.5000 
    118 O         -3.5903  -15.9069  -53.7418 O.2       21 UNK        -0.5000 
    119 N         -4.9500  -17.2350  -52.5115 N.am      22 UNK        -0.5000 
    120 CA        -4.1162  -17.3666  -51.3116 C.3       22 UNK         0.1400 
    121 C         -4.9971  -17.4427  -50.0279 C.2       22 UNK         0.5000 
    122 N         -4.4510  -17.8753  -48.8996 N.am      22 UNK        -0.7600 
    123 O         -6.1730  -17.0833  -50.0316 O.2       22 UNK        -0.5000 
    124 C124       -3.1121  -18.5397  -51.4696 C.3       23 UNK        -0.0398 
    125 S125       -1.6333  -18.4004  -50.4162 S.3       23 UNK        -0.2404 
    126 C126       -0.3024  -18.1903  -51.6343 C.3       23 UNK        -0.0205 
    127 H127       -1.9102  -12.4834  -48.1180 H         1 UNK         0.0600 
    128 H128       -1.4151  -11.8663  -46.5375 H         1 UNK         0.0600 
    129 H129       -1.2609  -13.5897  -46.9150 H         1 UNK         0.0600 
    130 H130        1.0892  -13.4426  -46.3627 H         1 UNK         0.3000 
    131 H131        2.7546  -12.6507  -48.6327 H         1 UNK         0.0600 
    132 H132        3.6728  -13.9150  -46.0141 H         1 UNK         0.0800 
    133 H133        4.5536  -13.8266  -47.5146 H         1 UNK         0.0800 
    134 H134        3.1573  -14.9453  -49.8328 H         1 UNK         0.0800 
    135 H135        4.5275  -15.8542  -49.2223 H         1 UNK         0.0800 
    136 H136        1.1402  -16.0911  -50.6486 H         1 UNK         0.1150 
    137 H137        1.2084  -20.3573  -51.0222 H         1 UNK         0.1150 
    138 H138        4.3521  -18.3409  -48.9151 H         1 UNK         0.1150 
    139 H139        3.2899  -21.5673  -50.3797 H         1 UNK         0.0800 
    140 H140        4.5755  -20.7310  -49.5489 H         1 UNK         0.0800 
    141 H141        1.0918  -22.1275  -49.4141 H         1 UNK         0.0800 
    142 H142        0.6017  -20.8160  -48.3657 H         1 UNK         0.0800 
    143 H143        1.1221  -23.6537  -47.3446 H         1 UNK         0.0600 
    144 H144        0.4880  -21.2836  -45.9352 H         1 UNK         0.3000 
    145 H145       -1.1841  -22.8629  -43.1439 H         1 UNK         0.0600 
    146 H146        0.5424  -21.5443  -41.9858 H         1 UNK         0.0600 
    147 H147        1.2917  -22.9103  -42.7964 H         1 UNK         0.0600 
    148 H148        1.4266  -21.3001  -43.4902 H         1 UNK         0.0600 
    149 H149       -0.7776  -20.1184  -43.6652 H         1 UNK         0.3000 
    150 H150       -3.8421  -19.5243  -45.4612 H         1 UNK         0.0600 
    151 H151       -4.3958  -19.4824  -43.0398 H         1 UNK         0.0600 
    152 H152       -4.0315  -17.8629  -43.6186 H         1 UNK         0.0600 
    153 H153       -2.8400  -18.7510  -42.6714 H         1 UNK         0.0600 
    154 H154       -1.7874  -17.7255  -44.7396 H         1 UNK         0.3000 
    155 H155        0.2953  -18.1423  -47.6331 H         1 UNK         0.0600 
    156 H156       -1.5843  -16.5487  -48.1549 H         1 UNK         0.0600 
    157 H157       -0.1295  -15.7073  -47.6566 H         1 UNK         0.0600 
    158 H158       -1.4765  -15.8946  -46.5313 H         1 UNK         0.0600 
    159 H159        0.5504  -16.5313  -45.2889 H         1 UNK         0.3000 
    160 H160        2.4341  -18.8523  -43.3279 H         1 UNK         0.0600 
    161 H161        3.1267  -16.1683  -44.6261 H         1 UNK         0.0600 
    162 H162        4.0007  -17.6678  -44.9097 H         1 UNK         0.0600 
    163 H163        3.9808  -16.9548  -43.3030 H         1 UNK         0.0600 
    164 H164        1.4481  -16.1812  -42.8805 H         1 UNK         0.3000 
    165 H165       -1.6108  -17.1203  -41.3311 H         1 UNK         0.0600 
    166 H166       -0.6440  -16.0128  -39.3371 H         1 UNK         0.0600 
    167 H167        0.0444  -17.6173  -39.5247 H         1 UNK         0.0600 
    168 H168        0.9865  -16.2038  -39.9834 H         1 UNK         0.0600 
    169 H169       -0.2822  -14.6240  -41.4271 H         1 UNK         0.3000 
    170 H170       -1.2135  -13.5658  -44.6506 H         1 UNK         0.0600 
    171 H171       -3.3650  -13.2869  -43.4176 H         1 UNK         0.0600 
    172 H172       -2.4879  -12.7810  -41.9779 H         1 UNK         0.0600 
    173 H173       -2.4441  -11.7910  -43.4373 H         1 UNK         0.0600 
    174 H174       -0.1097  -12.1782  -42.4039 H         1 UNK         0.3000 
    175 H175        2.1621  -12.5236  -41.7094 H         1 UNK         0.0600 
    176 H176        4.1144  -13.1060  -43.9809 H         1 UNK         0.0600 
    177 H177        4.5011  -12.7371  -42.3084 H         1 UNK         0.0600 
    178 H178        3.6897  -14.2422  -42.7076 H         1 UNK         0.0600 
    179 H179        3.1164  -10.9105  -43.9799 H         1 UNK         0.3000 
    180 H180        1.1092   -8.1216  -43.2100 H         1 UNK         0.0600 
    181 H181        3.9911   -8.4230  -42.2090 H         1 UNK         0.0600 
    182 H182        2.6176   -7.9075  -41.2377 H         1 UNK         0.0600 
    183 H183        3.1730   -6.9011  -42.5653 H         1 UNK         0.0600 
    184 H184        3.6165   -8.5005  -44.6319 H         1 UNK         0.3000 
    185 H185        2.1213   -8.2886  -47.7035 H         1 UNK         0.0600 
    186 H186        4.1288   -7.3188  -46.6026 H         1 UNK         0.0600 
    187 H187        4.7700   -8.9246  -46.2734 H         1 UNK         0.0600 
    188 H188        4.5861   -8.3687  -47.9299 H         1 UNK         0.0600 
    189 H189        1.9884  -10.4243  -48.2914 H         1 UNK         0.3000 
    190 H190       -1.7778  -21.5421  -47.6010 H         1 UNK         0.3000 
    191 H191       -3.1511  -22.9724  -49.5867 H         1 UNK         0.0600 
    192 H192       -3.7866  -20.7034  -48.9203 H         1 UNK         0.0600 
    193 H193       -5.1672  -21.7597  -48.6503 H         1 UNK         0.0600 
    194 H194       -4.1911  -21.2321  -47.2907 H         1 UNK         0.0600 
    195 H195       -3.3349  -23.3418  -46.0084 H         1 UNK         0.3000 
    196 H196       -5.2684  -25.4319  -46.0212 H         1 UNK         0.0600 
    197 H197       -4.5597  -25.7109  -43.6353 H         1 UNK         0.0600 
    198 H198       -4.8372  -24.0234  -44.0394 H         1 UNK         0.0600 
    199 H199       -3.1908  -24.6390  -43.9135 H         1 UNK         0.0600 
    200 H200       -1.6682  -25.5294  -45.9099 H         1 UNK         0.3000 
    201 H201       -1.4843  -28.3368  -45.4952 H         1 UNK         0.0600 
    202 H202        0.3284  -26.7944  -44.8707 H         1 UNK         0.0600 
    203 H203        0.5782  -26.3371  -46.5547 H         1 UNK         0.0600 
    204 H204        0.9373  -27.9752  -46.0193 H         1 UNK         0.0600 
    205 H205       -1.1133  -26.3772  -48.5093 H         1 UNK         0.3000 
    206 H206       -0.6160  -28.7885  -50.1034 H         1 UNK         0.0600 
    207 H207        0.6535  -26.7244  -50.5370 H         1 UNK         0.0600 
    208 H208       -0.3266  -27.1224  -51.9416 H         1 UNK         0.0600 
    209 H209       -0.8355  -25.8413  -50.8473 H         1 UNK         0.0600 
    210 H210       -3.3854  -26.8455  -49.2998 H         1 UNK         0.3000 
    211 H211       -5.5314  -26.8988  -49.7065 H         1 UNK         0.0600 
    212 H212       -5.1506  -29.5351  -51.2104 H         1 UNK         0.0600 
    213 H213       -6.6697  -28.8648  -50.6403 H         1 UNK         0.0600 
    214 H214       -5.4461  -29.3610  -49.4816 H         1 UNK         0.0600 
    215 H215       -3.9203  -27.9290  -52.7295 H         1 UNK         0.3000 
    216 H216       -5.7459  -26.5847  -54.5059 H         1 UNK         0.0600 
    217 H217       -4.0438  -27.2064  -56.2322 H         1 UNK         0.0600 
    218 H218       -4.4193  -28.5688  -55.1888 H         1 UNK         0.0600 
    219 H219       -2.9155  -27.6754  -54.9648 H         1 UNK         0.0600 
    220 H220       -2.9049  -25.5246  -52.7689 H         1 UNK         0.3000 
    221 H221       -2.2203  -23.2621  -54.4009 H         1 UNK         0.0600 
    222 H222       -1.5772  -23.7946  -51.4536 H         1 UNK         0.0600 
    223 H223       -0.6269  -24.3998  -52.8195 H         1 UNK         0.0600 
    224 H224       -0.7442  -22.6755  -52.5172 H         1 UNK         0.0600 
    225 H225       -4.8751  -23.7365  -52.2816 H         1 UNK         0.3000 
    226 H226       -5.1148  -21.2312  -51.0125 H         1 UNK         0.0600 
    227 H227       -6.3128  -23.2993  -50.3097 H         1 UNK         0.0600 
    228 H228       -7.4422  -21.9790  -50.5728 H         1 UNK         0.0600 
    229 H229       -7.2840  -23.2505  -51.7795 H         1 UNK         0.0600 
    230 H230       -5.7410  -22.0343  -54.3267 H         1 UNK         0.3000 
    231 H231       -7.6371  -20.0050  -55.0186 H         1 UNK         0.0600 
    232 H232       -7.2007  -21.9510  -56.4728 H         1 UNK         0.0600 
    233 H233       -5.5196  -21.4666  -56.6862 H         1 UNK         0.0600 
    234 H234       -6.8160  -20.4726  -57.3417 H         1 UNK         0.0600 
    235 H235       -7.2966  -17.9183  -54.6532 H         1 UNK         0.3000 
    236 H236       -6.4768  -15.8843  -54.4413 H         1 UNK         0.0600 
    237 H237       -4.7976  -15.0136  -56.0064 H         1 UNK         0.0600 
    238 H238       -4.2845  -16.6358  -56.4439 H         1 UNK         0.0600 
    239 H239       -5.8994  -16.0718  -56.8715 H         1 UNK         0.0600 
    240 H240       -5.8324  -17.7322  -52.4680 H         1 UNK         0.3000 
    241 H241       -3.5501  -16.4394  -51.2059 H         1 UNK         0.0600 
    242 H242       -3.4887  -18.1813  -48.8763 H         1 UNK         0.3800 
    243 H243       -5.0141  -17.9117  -48.0655 H         1 UNK         0.3800 
    244 H244       -2.7835  -18.6168  -52.5071 H         1 UNK         0.0800 
    245 H245       -3.6025  -19.4849  -51.2442 H         1 UNK         0.0800 
    246 H246       -0.3538  -18.9878  -52.3775 H         1 UNK         0.0800 
    247 H247       -0.4382  -17.2489  -52.1691 H         1 UNK         0.0800 
@<TRIPOS>BOND
     1    1    2 1    
     2    1  127 1    
     3    1  128 1    
     4    1  129 1    
     5    2    3 2    
     6    2    4 am   BACKBONE|DICT|INTERRES
     7    4    5 1    
     8    4  130 1    
     9    5    6 1    
    10    5   65 1    
    11    5  131 1    
    12    6    7 1    
    13    6  132 1    
    14    6  133 1    
    15    7    8 1    
    16    8    9 1    
    17    8  134 1    
    18    8  135 1    
    19    9   10 ar   
    20    9   14 ar   
    21   10   11 ar   
    22   10  136 1    
    23   11   12 ar   
    24   11  126 1    
    25   12   13 ar   
    26   12  137 1    
    27   13   14 ar   
    28   13   15 1    
    29   14  138 1    
    30   15   16 1    
    31   15  139 1    
    32   15  140 1    
    33   16   17 1    
    34   17   18 1    
    35   17  141 1    
    36   17  142 1    
    37   18   19 1    
    38   18   67 1    
    39   18  143 1    
    40   19   20 am   BACKBONE|DICT|INTERRES
    41   19  144 1    
    42   20   21 2    
    43   20   22 1    
    44   22   23 1    
    45   22   24 1    
    46   22  145 1    
    47   23  146 1    
    48   23  147 1    
    49   23  148 1    
    50   24   25 am   BACKBONE|DICT|INTERRES
    51   24  149 1    
    52   25   26 2    
    53   25   27 1    
    54   27   28 1    
    55   27   29 1    
    56   27  150 1    
    57   28  151 1    
    58   28  152 1    
    59   28  153 1    
    60   29   30 am   BACKBONE|DICT|INTERRES
    61   29  154 1    
    62   30   31 2    
    63   30   32 1    
    64   32   33 1    
    65   32   34 1    
    66   32  155 1    
    67   33  156 1    
    68   33  157 1    
    69   33  158 1    
    70   34   35 am   BACKBONE|DICT|INTERRES
    71   34  159 1    
    72   35   36 2    
    73   35   37 1    
    74   37   38 1    
    75   37   39 1    
    76   37  160 1    
    77   38  161 1    
    78   38  162 1    
    79   38  163 1    
    80   39   40 am   BACKBONE|DICT|INTERRES
    81   39  164 1    
    82   40   41 2    
    83   40   42 1    
    84   42   43 1    
    85   42   44 1    
    86   42  165 1    
    87   43  166 1    
    88   43  167 1    
    89   43  168 1    
    90   44   45 am   BACKBONE|DICT|INTERRES
    91   44  169 1    
    92   45   46 2    
    93   45   47 1    
    94   47   48 1    
    95   47   49 1    
    96   47  170 1    
    97   48  171 1    
    98   48  172 1    
    99   48  173 1    
   100   49   50 am   BACKBONE|DICT|INTERRES
   101   49  174 1    
   102   50   51 2    
   103   50   52 1    
   104   52   53 1    
   105   52   54 1    
   106   52  175 1    
   107   53  176 1    
   108   53  177 1    
   109   53  178 1    
   110   54   55 am   BACKBONE|DICT|INTERRES
   111   54  179 1    
   112   55   56 2    
   113   55   57 1    
   114   57   58 1    
   115   57   59 1    
   116   57  180 1    
   117   58  181 1    
   118   58  182 1    
   119   58  183 1    
   120   59   60 am   BACKBONE|DICT|INTERRES
   121   59  184 1    
   122   60   61 2    
   123   60   62 1    
   124   62   63 1    
   125   62   64 1    
   126   62  185 1    
   127   63  186 1    
   128   63  187 1    
   129   63  188 1    
   130   64   65 am   BACKBONE|DICT|INTERRES
   131   64  189 1    
   132   65   66 2    
   133   67   68 2    
   134   67   69 am   BACKBONE|DICT|INTERRES
   135   69   70 1    
   136   69  190 1    
   137   70   71 1    
   138   70   72 1    
   139   70  191 1    
   140   71  192 1    
   141   71  193 1    
   142   71  194 1    
   143   72   73 2    
   144   72   74 am   BACKBONE|DICT|INTERRES
   145   74   75 1    
   146   74  195 1    
   147   75   76 1    
   148   75   77 1    
   149   75  196 1    
   150   76  197 1    
   151   76  198 1    
   152   76  199 1    
   153   77   78 2    
   154   77   79 am   BACKBONE|DICT|INTERRES
   155   79   80 1    
   156   79  200 1    
   157   80   81 1    
   158   80   82 1    
   159   80  201 1    
   160   81  202 1    
   161   81  203 1    
   162   81  204 1    
   163   82   83 2    
   164   82   84 am   BACKBONE|DICT|INTERRES
   165   84   85 1    
   166   84  205 1    
   167   85   86 1    
   168   85   87 1    
   169   85  206 1    
   170   86  207 1    
   171   86  208 1    
   172   86  209 1    
   173   87   88 2    
   174   87   89 am   BACKBONE|DICT|INTERRES
   175   89   90 1    
   176   89  210 1    
   177   90   91 1    
   178   90   92 1    
   179   90  211 1    
   180   91  212 1    
   181   91  213 1    
   182   91  214 1    
   183   92   93 2    
   184   92   94 am   BACKBONE|DICT|INTERRES
   185   94   95 1    
   186   94  215 1    
   187   95   96 1    
   188   95   97 1    
   189   95  216 1    
   190   96  217 1    
   191   96  218 1    
   192   96  219 1    
   193   97   98 2    
   194   97   99 am   BACKBONE|DICT|INTERRES
   195   99  100 1    
   196   99  220 1    
   197  100  101 1    
   198  100  102 1    
   199  100  221 1    
   200  101  222 1    
   201  101  223 1    
   202  101  224 1    
   203  102  103 2    
   204  102  104 am   BACKBONE|DICT|INTERRES
   205  104  105 1    
   206  104  225 1    
   207  105  106 1    
   208  105  107 1    
   209  105  226 1    
   210  106  227 1    
   211  106  228 1    
   212  106  229 1    
   213  107  108 2    
   214  107  109 am   BACKBONE|DICT|INTERRES
   215  109  110 1    
   216  109  230 1    
   217  110  111 1    
   218  110  112 1    
   219  110  231 1    
   220  111  232 1    
   221  111  233 1    
   222  111  234 1    
   223  112  113 2    
   224  112  114 am   BACKBONE|DICT|INTERRES
   225  114  115 1    
   226  114  235 1    
   227  115  116 1    
   228  115  117 1    
   229  115  236 1    
   230  116  237 1    
   231  116  238 1    
   232  116  239 1    
   233  117  118 2    
   234  117  119 am   BACKBONE|DICT|INTERRES
   235  119  120 1    
   236  119  240 1    
   237  120  121 1    
   238  120  124 1    
   239  120  241 1    
   240  121  122 am   BACKBONE|DICT|INTERRES
   241  121  123 2    
   242  122  242 1    
   243  122  243 1    
   244  124  125 1    
   245  124  244 1    
   246  124  245 1    
   247  125  126 1    
   248  126  246 1    
   249  126  247 1    
@<TRIPOS>SUBSTRUCTURE
     1 UNK         1 GROUP             0       ****    0 ROOT    
