@<TRIPOS>MOLECULE
3R540
247   249    1
SMALL
USER_CHARGES


@<TRIPOS>ATOM
      1 CA          4.8796  -15.0909  -47.0605 C.3       0 UNK        -0.1800 
      2 C           3.4270  -15.0187  -47.5100 C.2       0 UNK         0.5000 
      3 O           2.7370  -16.0370  -47.5241 O.2       0 UNK        -0.5000 
      4 N           2.9641  -13.8196  -47.8751 N.am      1 UNK        -0.5000 
      5 CA          1.5989  -13.5281  -48.3023 C.3       1 UNK         0.1400 
      6 C6          1.2773  -14.1040  -49.7100 C.3       23 UNK        -0.0398 
      7 S7         -0.4908  -14.5099  -49.8885 S.3       23 UNK        -0.2404 
      8 C8         -0.4852  -16.2501  -49.3484 C.3       23 UNK        -0.0205 
      9 C9          0.1017  -17.2226  -50.3656 C.ar      23 UNK        -0.0193 
     10 C10        -0.1698  -17.1001  -51.7332 C.ar      23 UNK        -0.1150 
     11 C11         0.3386  -18.0259  -52.6473 C.ar      23 UNK        -0.0193 
     12 C12         1.1199  -19.0889  -52.1859 C.ar      23 UNK        -0.1150 
     13 C13         1.4053  -19.2206  -50.8230 C.ar      23 UNK        -0.0193 
     14 C14         0.8963  -18.2831  -49.9204 C.ar      23 UNK        -0.1150 
     15 C15         2.2778  -20.3658  -50.3305 C.3       23 UNK        -0.0205 
     16 S16         1.2871  -21.8070  -49.8244 S.3       23 UNK        -0.2404 
     17 C17         0.7567  -21.3316  -48.1424 C.3       23 UNK        -0.0398 
     18 CA          0.5020  -22.5592  -47.2331 C.3       11 UNK         0.1400 
     19 N           0.5184  -22.2096  -45.8107 N.am      11 UNK        -0.5000 
     20 C           0.4696  -23.0937  -44.8032 C.2       10 UNK         0.5000 
     21 O           0.4666  -24.3139  -44.9619 O.2       10 UNK        -0.5000 
     22 CA          0.3464  -22.5217  -43.3800 C.3       10 UNK         0.1400 
     23 CB          1.7160  -22.0753  -42.8485 C.3       10 UNK        -0.1800 
     24 N          -0.6088  -21.4149  -43.3017 N.am      10 UNK        -0.5000 
     25 C          -1.9203  -21.5323  -43.5568 C.2       9 UNK         0.5000 
     26 O          -2.4674  -22.5993  -43.8325 O.2       9 UNK        -0.5000 
     27 CA         -2.7569  -20.2410  -43.5466 C.3       9 UNK         0.1400 
     28 CB         -3.1268  -19.8406  -42.1109 C.3       9 UNK        -0.1800 
     29 N          -2.0857  -19.1254  -44.2129 N.am      9 UNK        -0.5000 
     30 C          -1.7583  -19.0956  -45.5130 C.2       8 UNK         0.5000 
     31 O          -2.0202  -19.9972  -46.3097 O.2       8 UNK        -0.5000 
     32 CA         -0.9468  -17.8770  -45.9884 C.3       8 UNK         0.1400 
     33 CB         -1.8483  -16.6430  -46.1504 C.3       8 UNK        -0.1800 
     34 N           0.1630  -17.5656  -45.0868 N.am      8 UNK        -0.5000 
     35 C           1.1817  -18.3978  -44.8249 C.2       7 UNK         0.5000 
     36 O           1.3303  -19.4899  -45.3719 O.2       7 UNK        -0.5000 
     37 CA          2.1605  -17.9732  -43.7176 C.3       7 UNK         0.1400 
     38 CB          3.2551  -17.0508  -44.2683 C.3       7 UNK        -0.1800 
     39 N           1.4711  -17.3209  -42.6045 N.am      7 UNK        -0.5000 
     40 C           0.6866  -17.9640  -41.7277 C.2       6 UNK         0.5000 
     41 O           0.4959  -19.1793  -41.7472 O.2       6 UNK        -0.5000 
     42 CA         -0.0387  -17.0998  -40.6798 C.3       6 UNK         0.1400 
     43 CB          0.8808  -16.8126  -39.4837 C.3       6 UNK        -0.1800 
     44 N          -0.5244  -15.8355  -41.2340 N.am      6 UNK        -0.5000 
     45 C          -1.4850  -15.7366  -42.1637 C.2       5 UNK         0.5000 
     46 O          -2.1015  -16.7028  -42.6108 O.2       5 UNK        -0.5000 
     47 CA         -1.7696  -14.3296  -42.7234 C.3       5 UNK         0.1400 
     48 CB         -2.8554  -13.6283  -41.8948 C.3       5 UNK        -0.1800 
     49 N          -0.5820  -13.4730  -42.7877 N.am      5 UNK        -0.5000 
     50 C           0.5212  -13.7338  -43.4996 C.2       4 UNK         0.5000 
     51 O           0.6538  -14.7396  -44.1990 O.2       4 UNK        -0.5000 
     52 CA          1.6484  -12.6855  -43.4148 C.3       4 UNK         0.1400 
     53 CB          2.9980  -13.2313  -43.9111 C.3       4 UNK        -0.1800 
     54 N           1.3167  -11.4873  -44.1830 N.am      4 UNK        -0.5000 
     55 C           0.4489  -10.5364  -43.8065 C.2       3 UNK         0.5000 
     56 O          -0.1633  -10.5500  -42.7378 O.2       3 UNK        -0.5000 
     57 CA          0.2071   -9.4048  -44.8128 C.3       3 UNK         0.1400 
     58 CB          1.3549   -8.3769  -44.7439 C.3       3 UNK        -0.1800 
     59 N           0.0737   -9.9798  -46.1511 N.am      3 UNK        -0.5000 
     60 C          -0.2513   -9.3365  -47.2765 C.2       2 UNK         0.5000 
     61 O          -0.5081   -8.1324  -47.3208 O.2       2 UNK        -0.5000 
     62 CA         -0.3409  -10.1798  -48.5692 C.3       2 UNK         0.1400 
     63 CB          0.3361   -9.4745  -49.7629 C.3       2 UNK        -0.1800 
     64 N           0.1318  -11.5705  -48.4564 N.am      2 UNK        -0.5000 
     65 C           1.3797  -12.0040  -48.2239 C.2       1 UNK         0.5000 
     66 O           2.3273  -11.2621  -47.9500 O.2       1 UNK        -0.5000 
     67 C          -0.7948  -23.3030  -47.6133 C.2       11 UNK         0.5000 
     68 O          -0.7183  -24.3777  -48.2077 O.2       11 UNK        -0.5000 
     69 N          -1.9510  -22.7564  -47.2061 N.am      12 UNK        -0.5000 
     70 CA         -3.2707  -23.3536  -47.4184 C.3       12 UNK         0.1400 
     71 CB         -4.3620  -22.3932  -46.9212 C.3       12 UNK        -0.1800 
     72 C          -3.4288  -24.7335  -46.7543 C.2       12 UNK         0.5000 
     73 O          -4.0320  -25.6239  -47.3517 O.2       12 UNK        -0.5000 
     74 N          -2.8748  -24.8997  -45.5468 N.am      13 UNK        -0.5000 
     75 CA         -2.8465  -26.1712  -44.8267 C.3       13 UNK         0.1400 
     76 CB         -2.4059  -25.9324  -43.3744 C.3       13 UNK        -0.1800 
     77 C          -1.9445  -27.2145  -45.5113 C.2       13 UNK         0.5000 
     78 O          -2.3539  -28.3670  -45.6542 O.2       13 UNK        -0.5000 
     79 N          -0.7427  -26.7927  -45.9277 N.am      14 UNK        -0.5000 
     80 CA          0.2600  -27.6431  -46.5685 C.3       14 UNK         0.1400 
     81 CB          1.6090  -26.9078  -46.6016 C.3       14 UNK        -0.1800 
     82 C          -0.1419  -28.0991  -47.9819 C.2       14 UNK         0.5000 
     83 O          -0.0019  -29.2808  -48.2999 O.2       14 UNK        -0.5000 
     84 N          -0.6243  -27.1595  -48.8048 N.am      15 UNK        -0.5000 
     85 CA         -0.9840  -27.3962  -50.2045 C.3       15 UNK         0.1400 
     86 CB         -0.7480  -26.1045  -51.0039 C.3       15 UNK        -0.1800 
     87 C          -2.4208  -27.9226  -50.3958 C.2       15 UNK         0.5000 
     88 O          -2.7577  -28.3146  -51.5140 O.2       15 UNK        -0.5000 
     89 N          -3.2241  -27.9409  -49.3192 N.am      16 UNK        -0.5000 
     90 CA         -4.6435  -28.3122  -49.2654 C.3       16 UNK         0.1400 
     91 CB         -4.8533  -29.7956  -49.6359 C.3       16 UNK        -0.1800 
     92 C          -5.4936  -27.3418  -50.1091 C.2       16 UNK         0.5000 
     93 O          -5.9813  -27.7017  -51.1825 O.2       16 UNK        -0.5000 
     94 N          -5.5977  -26.1074  -49.6006 N.am      17 UNK        -0.5000 
     95 CA         -6.0454  -24.8879  -50.2772 C.3       17 UNK         0.1400 
     96 CB         -7.4800  -25.0171  -50.8373 C.3       17 UNK        -0.1800 
     97 C          -4.9885  -24.4349  -51.3054 C.2       17 UNK         0.5000 
     98 O          -3.8005  -24.6529  -51.0680 O.2       17 UNK        -0.5000 
     99 N          -5.4175  -23.7885  -52.4002 N.am      18 UNK        -0.5000 
    100 CA        -4.5778  -23.2904  -53.5012 C.3       18 UNK         0.1400 
    101 CB        -3.9943  -24.4703  -54.3079 C.3       18 UNK        -0.1800 
    102 C         -3.4975  -22.2795  -53.0483 C.2       18 UNK         0.5000 
    103 O         -2.3800  -22.2881  -53.5671 O.2       18 UNK        -0.5000 
    104 N         -3.8643  -21.4263  -52.0867 N.am      19 UNK        -0.5000 
    105 CA        -3.0490  -20.3519  -51.5320 C.3       19 UNK         0.1400 
    106 CB        -2.5020  -20.7825  -50.1629 C.3       19 UNK        -0.1800 
    107 C         -3.9242  -19.0967  -51.4049 C.2       19 UNK         0.5000 
    108 O         -5.1542  -19.2008  -51.4334 O.2       19 UNK        -0.5000 
    109 N         -3.2745  -17.9337  -51.2727 N.am      20 UNK        -0.5000 
    110 CA        -3.8305  -16.5797  -51.1258 C.3       20 UNK         0.1400 
    111 CB        -4.7235  -16.4598  -49.8769 C.3       20 UNK        -0.1800 
    112 C         -4.5355  -16.0391  -52.3844 C.2       20 UNK         0.5000 
    113 O         -4.2450  -14.9167  -52.7989 O.2       20 UNK        -0.5000 
    114 N         -5.4010  -16.8499  -53.0071 N.am      21 UNK        -0.5000 
    115 CA        -6.1028  -16.5520  -54.2623 C.3       21 UNK         0.1400 
    116 CB        -7.0961  -17.6860  -54.5570 C.3       21 UNK        -0.1800 
    117 C         -5.1518  -16.3403  -55.4593 C.2       21 UNK         0.5000 
    118 O         -5.4799  -15.5960  -56.3836 O.2       21 UNK        -0.5000 
    119 N         -3.9798  -16.9791  -55.3917 N.am      22 UNK        -0.5000 
    120 CA        -2.8199  -16.7860  -56.2719 C.3       22 UNK         0.1400 
    121 C         -2.0452  -15.4501  -56.0551 C.2       22 UNK         0.5000 
    122 N         -2.3434  -14.6453  -55.0413 N.am      22 UNK        -0.7600 
    123 O         -1.1537  -15.1299  -56.8363 O.2       22 UNK        -0.5000 
    124 C124       -1.8713  -18.0176  -56.2265 C.3       23 UNK        -0.0398 
    125 S125       -1.5532  -18.6473  -54.5389 S.3       23 UNK        -0.2404 
    126 C126        0.0359  -17.8714  -54.1292 C.3       23 UNK        -0.0205 
    127 H127        5.4059  -14.1539  -47.2434 H         1 UNK         0.0600 
    128 H128        5.4004  -15.8829  -47.5985 H         1 UNK         0.0600 
    129 H129        4.9338  -15.3082  -45.9943 H         1 UNK         0.0600 
    130 H130        3.5505  -12.9950  -47.8199 H         1 UNK         0.3000 
    131 H131        0.9384  -13.9818  -47.5594 H         1 UNK         0.0600 
    132 H132        1.5683  -13.4122  -50.5026 H         1 UNK         0.0800 
    133 H133        1.8496  -15.0121  -49.9027 H         1 UNK         0.0800 
    134 H134       -1.5071  -16.5560  -49.1264 H         1 UNK         0.0800 
    135 H135        0.0687  -16.3095  -48.4108 H         1 UNK         0.0800 
    136 H136       -0.7798  -16.2839  -52.0943 H         1 UNK         0.1150 
    137 H137        1.5085  -19.8127  -52.8885 H         1 UNK         0.1150 
    138 H138        1.1187  -18.3829  -48.8670 H         1 UNK         0.1150 
    139 H139        2.9574  -20.6762  -51.1255 H         1 UNK         0.0800 
    140 H140        2.9130  -20.0343  -49.5078 H         1 UNK         0.0800 
    141 H141       -0.1205  -20.6863  -48.2012 H         1 UNK         0.0800 
    142 H142        1.5486  -20.7219  -47.7070 H         1 UNK         0.0800 
    143 H143        1.3288  -23.2580  -47.3794 H         1 UNK         0.0600 
    144 H144        0.5690  -21.2187  -45.5884 H         1 UNK         0.3000 
    145 H145       -0.0208  -23.3211  -42.7333 H         1 UNK         0.0600 
    146 H146        1.6461  -21.7340  -41.8156 H         1 UNK         0.0600 
    147 H147        2.4298  -22.8997  -42.8708 H         1 UNK         0.0600 
    148 H148        2.1348  -21.2636  -43.4426 H         1 UNK         0.0600 
    149 H149       -0.2397  -20.5124  -43.0192 H         1 UNK         0.3000 
    150 H150       -3.6819  -20.4422  -44.0906 H         1 UNK         0.0600 
    151 H151       -3.6452  -20.6528  -41.5998 H         1 UNK         0.0600 
    152 H152       -3.7894  -18.9750  -42.1022 H         1 UNK         0.0600 
    153 H153       -2.2442  -19.5909  -41.5215 H         1 UNK         0.0600 
    154 H154       -1.8749  -18.3153  -43.6366 H         1 UNK         0.3000 
    155 H155       -0.5207  -18.1247  -46.9619 H         1 UNK         0.0600 
    156 H156       -2.3643  -16.3929  -45.2245 H         1 UNK         0.0600 
    157 H157       -2.6132  -16.8189  -46.9073 H         1 UNK         0.0600 
    158 H158       -1.2762  -15.7669  -46.4563 H         1 UNK         0.0600 
    159 H159        0.1520  -16.6588  -44.6320 H         1 UNK         0.3000 
    160 H160        2.6459  -18.8740  -43.3367 H         1 UNK         0.0600 
    161 H161        3.9684  -16.7719  -43.4929 H         1 UNK         0.0600 
    162 H162        2.8356  -16.1372  -44.6870 H         1 UNK         0.0600 
    163 H163        3.8133  -17.5453  -45.0643 H         1 UNK         0.0600 
    164 H164        1.5238  -16.3139  -42.5666 H         1 UNK         0.3000 
    165 H165       -0.9004  -17.6661  -40.3201 H         1 UNK         0.0600 
    166 H166        0.3522  -16.2660  -38.7025 H         1 UNK         0.0600 
    167 H167        1.2443  -17.7407  -39.0402 H         1 UNK         0.0600 
    168 H168        1.7521  -16.2247  -39.7750 H         1 UNK         0.0600 
    169 H169       -0.0736  -14.9905  -40.9158 H         1 UNK         0.3000 
    170 H170       -2.1432  -14.4506  -43.7419 H         1 UNK         0.0600 
    171 H171       -3.7633  -14.2314  -41.8500 H         1 UNK         0.0600 
    172 H172       -2.5277  -13.4500  -40.8699 H         1 UNK         0.0600 
    173 H173       -3.1261  -12.6672  -42.3327 H         1 UNK         0.0600 
    174 H174       -0.6315  -12.5843  -42.3026 H         1 UNK         0.3000 
    175 H175        1.7693  -12.4102  -42.3649 H         1 UNK         0.0600 
    176 H176        2.9546  -13.5197  -44.9609 H         1 UNK         0.0600 
    177 H177        3.7884  -12.4887  -43.8013 H         1 UNK         0.0600 
    178 H178        3.2986  -14.1088  -43.3380 H         1 UNK         0.0600 
    179 H179        1.8086  -11.3717  -45.0571 H         1 UNK         0.3000 
    180 H180       -0.7317   -8.9129  -44.5506 H         1 UNK         0.0600 
    181 H181        2.2964   -8.8009  -45.0951 H         1 UNK         0.0600 
    182 H182        1.5102   -8.0332  -43.7203 H         1 UNK         0.0600 
    183 H183        1.1421   -7.4938  -45.3455 H         1 UNK         0.0600 
    184 H184        0.2015  -10.9792  -46.2102 H         1 UNK         0.3000 
    185 H185       -1.4055  -10.2498  -48.7971 H         1 UNK         0.0600 
    186 H186       -0.1191   -8.5023  -49.9553 H         1 UNK         0.0600 
    187 H187        1.3985   -9.3060  -49.5848 H         1 UNK         0.0600 
    188 H188        0.2374  -10.0619  -50.6758 H         1 UNK         0.0600 
    189 H189       -0.5691  -12.2707  -48.6636 H         1 UNK         0.3000 
    190 H190       -1.9311  -21.8561  -46.7336 H         1 UNK         0.3000 
    191 H191       -3.3969  -23.4885  -48.4945 H         1 UNK         0.0600 
    192 H192       -4.2952  -22.2325  -45.8451 H         1 UNK         0.0600 
    193 H193       -5.3557  -22.7902  -47.1321 H         1 UNK         0.0600 
    194 H194       -4.2916  -21.4192  -47.4039 H         1 UNK         0.0600 
    195 H195       -2.4601  -24.0975  -45.0815 H         1 UNK         0.3000 
    196 H196       -3.8627  -26.5708  -44.8078 H         1 UNK         0.0600 
    197 H197       -2.3927  -26.8663  -42.8113 H         1 UNK         0.0600 
    198 H198       -3.0887  -25.2534  -42.8632 H         1 UNK         0.0600 
    199 H199       -1.4059  -25.5015  -43.3207 H         1 UNK         0.0600 
    200 H200       -0.4685  -25.8314  -45.7436 H         1 UNK         0.3000 
    201 H201        0.3818  -28.5381  -45.9546 H         1 UNK         0.0600 
    202 H202        1.9528  -26.6718  -45.5944 H         1 UNK         0.0600 
    203 H203        1.5438  -25.9725  -47.1591 H         1 UNK         0.0600 
    204 H204        2.3786  -27.5203  -47.0729 H         1 UNK         0.0600 
    205 H205       -0.6969  -26.1967  -48.4780 H         1 UNK         0.3000 
    206 H206       -0.3166  -28.1560  -50.6166 H         1 UNK         0.0600 
    207 H207       -1.0104  -26.2339  -52.0546 H         1 UNK         0.0600 
    208 H208       -1.3445  -25.2790  -50.6179 H         1 UNK         0.0600 
    209 H209        0.2985  -25.8024  -50.9636 H         1 UNK         0.0600 
    210 H210       -2.8474  -27.5599  -48.4620 H         1 UNK         0.3000 
    211 H211       -4.9547  -28.1923  -48.2264 H         1 UNK         0.0600 
    212 H212       -4.5916  -30.0049  -50.6732 H         1 UNK         0.0600 
    213 H213       -5.8970  -30.0816  -49.5020 H         1 UNK         0.0600 
    214 H214       -4.2530  -30.4473  -49.0012 H         1 UNK         0.0600 
    215 H215       -5.0847  -25.9373  -48.7357 H         1 UNK         0.3000 
    216 H216       -6.0643  -24.1159  -49.5068 H         1 UNK         0.0600 
    217 H217       -7.8820  -24.0429  -51.1170 H         1 UNK         0.0600 
    218 H218       -8.1549  -25.4364  -50.0910 H         1 UNK         0.0600 
    219 H219       -7.5220  -25.6560  -51.7199 H         1 UNK         0.0600 
    220 H220       -6.4112  -23.6400  -52.5061 H         1 UNK         0.3000 
    221 H221       -5.2429  -22.7382  -54.1666 H         1 UNK         0.0600 
    222 H222       -3.2737  -25.0430  -53.7229 H         1 UNK         0.0600 
    223 H223       -4.7797  -25.1530  -54.6322 H         1 UNK         0.0600 
    224 H224       -3.4820  -24.1179  -55.2039 H         1 UNK         0.0600 
    225 H225       -4.8232  -21.4328  -51.7659 H         1 UNK         0.3000 
    226 H226       -2.2102  -20.1291  -52.1918 H         1 UNK         0.0600 
    227 H227       -1.8663  -20.0078  -49.7330 H         1 UNK         0.0600 
    228 H228       -3.3067  -20.9788  -49.4560 H         1 UNK         0.0600 
    229 H229       -1.9013  -21.6886  -50.2463 H         1 UNK         0.0600 
    230 H230       -2.2641  -17.9673  -51.3042 H         1 UNK         0.3000 
    231 H231       -2.9719  -15.9284  -50.9642 H         1 UNK         0.0600 
    232 H232       -4.1959  -16.7903  -48.9824 H         1 UNK         0.0600 
    233 H233       -5.6359  -17.0499  -49.9653 H         1 UNK         0.0600 
    234 H234       -5.0226  -15.4238  -49.7136 H         1 UNK         0.0600 
    235 H235       -5.5680  -17.7598  -52.5852 H         1 UNK         0.3000 
    236 H236       -6.6648  -15.6269  -54.1203 H         1 UNK         0.0600 
    237 H237       -7.6532  -17.4900  -55.4742 H         1 UNK         0.0600 
    238 H238       -6.5879  -18.6435  -54.6781 H         1 UNK         0.0600 
    239 H239       -7.8235  -17.7920  -53.7519 H         1 UNK         0.0600 
    240 H240       -3.8078  -17.5674  -54.5898 H         1 UNK         0.3000 
    241 H241       -3.2045  -16.7208  -57.2914 H         1 UNK         0.0600 
    242 H242       -3.0811  -14.8638  -54.3805 H         1 UNK         0.3800 
    243 H243       -1.8290  -13.7858  -54.9352 H         1 UNK         0.3800 
    244 H244       -0.9272  -17.8247  -56.7392 H         1 UNK         0.0800 
    245 H245       -2.3349  -18.8338  -56.7818 H         1 UNK         0.0800 
    246 H246        0.8270  -18.3209  -54.7313 H         1 UNK         0.0800 
    247 H247        0.0109  -16.8123  -54.3890 H         1 UNK         0.0800 
@<TRIPOS>BOND
     1    1    2 1    
     2    1  127 1    
     3    1  128 1    
     4    1  129 1    
     5    2    3 2    
     6    2    4 am   BACKBONE|DICT|INTERRES
     7    4    5 1    
     8    4  130 1    
     9    5    6 1    
    10    5   65 1    
    11    5  131 1    
    12    6    7 1    
    13    6  132 1    
    14    6  133 1    
    15    7    8 1    
    16    8    9 1    
    17    8  134 1    
    18    8  135 1    
    19    9   10 ar   
    20    9   14 ar   
    21   10   11 ar   
    22   10  136 1    
    23   11   12 ar   
    24   11  126 1    
    25   12   13 ar   
    26   12  137 1    
    27   13   14 ar   
    28   13   15 1    
    29   14  138 1    
    30   15   16 1    
    31   15  139 1    
    32   15  140 1    
    33   16   17 1    
    34   17   18 1    
    35   17  141 1    
    36   17  142 1    
    37   18   19 1    
    38   18   67 1    
    39   18  143 1    
    40   19   20 am   BACKBONE|DICT|INTERRES
    41   19  144 1    
    42   20   21 2    
    43   20   22 1    
    44   22   23 1    
    45   22   24 1    
    46   22  145 1    
    47   23  146 1    
    48   23  147 1    
    49   23  148 1    
    50   24   25 am   BACKBONE|DICT|INTERRES
    51   24  149 1    
    52   25   26 2    
    53   25   27 1    
    54   27   28 1    
    55   27   29 1    
    56   27  150 1    
    57   28  151 1    
    58   28  152 1    
    59   28  153 1    
    60   29   30 am   BACKBONE|DICT|INTERRES
    61   29  154 1    
    62   30   31 2    
    63   30   32 1    
    64   32   33 1    
    65   32   34 1    
    66   32  155 1    
    67   33  156 1    
    68   33  157 1    
    69   33  158 1    
    70   34   35 am   BACKBONE|DICT|INTERRES
    71   34  159 1    
    72   35   36 2    
    73   35   37 1    
    74   37   38 1    
    75   37   39 1    
    76   37  160 1    
    77   38  161 1    
    78   38  162 1    
    79   38  163 1    
    80   39   40 am   BACKBONE|DICT|INTERRES
    81   39  164 1    
    82   40   41 2    
    83   40   42 1    
    84   42   43 1    
    85   42   44 1    
    86   42  165 1    
    87   43  166 1    
    88   43  167 1    
    89   43  168 1    
    90   44   45 am   BACKBONE|DICT|INTERRES
    91   44  169 1    
    92   45   46 2    
    93   45   47 1    
    94   47   48 1    
    95   47   49 1    
    96   47  170 1    
    97   48  171 1    
    98   48  172 1    
    99   48  173 1    
   100   49   50 am   BACKBONE|DICT|INTERRES
   101   49  174 1    
   102   50   51 2    
   103   50   52 1    
   104   52   53 1    
   105   52   54 1    
   106   52  175 1    
   107   53  176 1    
   108   53  177 1    
   109   53  178 1    
   110   54   55 am   BACKBONE|DICT|INTERRES
   111   54  179 1    
   112   55   56 2    
   113   55   57 1    
   114   57   58 1    
   115   57   59 1    
   116   57  180 1    
   117   58  181 1    
   118   58  182 1    
   119   58  183 1    
   120   59   60 am   BACKBONE|DICT|INTERRES
   121   59  184 1    
   122   60   61 2    
   123   60   62 1    
   124   62   63 1    
   125   62   64 1    
   126   62  185 1    
   127   63  186 1    
   128   63  187 1    
   129   63  188 1    
   130   64   65 am   BACKBONE|DICT|INTERRES
   131   64  189 1    
   132   65   66 2    
   133   67   68 2    
   134   67   69 am   BACKBONE|DICT|INTERRES
   135   69   70 1    
   136   69  190 1    
   137   70   71 1    
   138   70   72 1    
   139   70  191 1    
   140   71  192 1    
   141   71  193 1    
   142   71  194 1    
   143   72   73 2    
   144   72   74 am   BACKBONE|DICT|INTERRES
   145   74   75 1    
   146   74  195 1    
   147   75   76 1    
   148   75   77 1    
   149   75  196 1    
   150   76  197 1    
   151   76  198 1    
   152   76  199 1    
   153   77   78 2    
   154   77   79 am   BACKBONE|DICT|INTERRES
   155   79   80 1    
   156   79  200 1    
   157   80   81 1    
   158   80   82 1    
   159   80  201 1    
   160   81  202 1    
   161   81  203 1    
   162   81  204 1    
   163   82   83 2    
   164   82   84 am   BACKBONE|DICT|INTERRES
   165   84   85 1    
   166   84  205 1    
   167   85   86 1    
   168   85   87 1    
   169   85  206 1    
   170   86  207 1    
   171   86  208 1    
   172   86  209 1    
   173   87   88 2    
   174   87   89 am   BACKBONE|DICT|INTERRES
   175   89   90 1    
   176   89  210 1    
   177   90   91 1    
   178   90   92 1    
   179   90  211 1    
   180   91  212 1    
   181   91  213 1    
   182   91  214 1    
   183   92   93 2    
   184   92   94 am   BACKBONE|DICT|INTERRES
   185   94   95 1    
   186   94  215 1    
   187   95   96 1    
   188   95   97 1    
   189   95  216 1    
   190   96  217 1    
   191   96  218 1    
   192   96  219 1    
   193   97   98 2    
   194   97   99 am   BACKBONE|DICT|INTERRES
   195   99  100 1    
   196   99  220 1    
   197  100  101 1    
   198  100  102 1    
   199  100  221 1    
   200  101  222 1    
   201  101  223 1    
   202  101  224 1    
   203  102  103 2    
   204  102  104 am   BACKBONE|DICT|INTERRES
   205  104  105 1    
   206  104  225 1    
   207  105  106 1    
   208  105  107 1    
   209  105  226 1    
   210  106  227 1    
   211  106  228 1    
   212  106  229 1    
   213  107  108 2    
   214  107  109 am   BACKBONE|DICT|INTERRES
   215  109  110 1    
   216  109  230 1    
   217  110  111 1    
   218  110  112 1    
   219  110  231 1    
   220  111  232 1    
   221  111  233 1    
   222  111  234 1    
   223  112  113 2    
   224  112  114 am   BACKBONE|DICT|INTERRES
   225  114  115 1    
   226  114  235 1    
   227  115  116 1    
   228  115  117 1    
   229  115  236 1    
   230  116  237 1    
   231  116  238 1    
   232  116  239 1    
   233  117  118 2    
   234  117  119 am   BACKBONE|DICT|INTERRES
   235  119  120 1    
   236  119  240 1    
   237  120  121 1    
   238  120  124 1    
   239  120  241 1    
   240  121  122 am   BACKBONE|DICT|INTERRES
   241  121  123 2    
   242  122  242 1    
   243  122  243 1    
   244  124  125 1    
   245  124  244 1    
   246  124  245 1    
   247  125  126 1    
   248  126  246 1    
   249  126  247 1    
@<TRIPOS>SUBSTRUCTURE
     1 UNK         1 GROUP             0       ****    0 ROOT    
