@<TRIPOS>MOLECULE
3R540
247   249    1
SMALL
USER_CHARGES


@<TRIPOS>ATOM
      1 CA          3.0879  -15.5401  -48.5460 C.3       0 UNK        -0.1800 
      2 C           2.0463  -15.1032  -47.5280 C.2       0 UNK         0.5000 
      3 O           2.4024  -14.6700  -46.4338 O.2       0 UNK        -0.5000 
      4 N           0.7584  -15.1804  -47.8875 N.am      1 UNK        -0.5000 
      5 CA         -0.3705  -14.7724  -47.0387 C.3       1 UNK         0.1400 
      6 C6         -1.7139  -15.3664  -47.5276 C.3       23 UNK        -0.0398 
      7 S7         -2.2196  -14.8224  -49.2009 S.3       23 UNK        -0.2404 
      8 C8         -2.3143  -16.3935  -50.1129 C.3       23 UNK        -0.0205 
      9 C9         -0.9844  -16.7680  -50.7479 C.ar      23 UNK        -0.0193 
     10 C10        -0.7171  -16.4109  -52.0726 C.ar      23 UNK        -0.1150 
     11 C11         0.4734  -16.8067  -52.6892 C.ar      23 UNK        -0.0193 
     12 C12         1.4101  -17.5459  -51.9626 C.ar      23 UNK        -0.1150 
     13 C13         1.1616  -17.8983  -50.6343 C.ar      23 UNK        -0.0193 
     14 C14        -0.0366  -17.5018  -50.0302 C.ar      23 UNK        -0.1150 
     15 C15         2.1847  -18.7223  -49.8643 C.3       23 UNK        -0.0205 
     16 S16         2.1272  -20.4803  -50.3378 S.3       23 UNK        -0.2404 
     17 C17         0.4416  -20.9211  -49.8030 C.3       23 UNK        -0.0398 
     18 CA          0.3714  -22.1228  -48.8375 C.3       11 UNK         0.1400 
     19 N           1.2894  -21.9780  -47.7050 N.am      11 UNK        -0.5000 
     20 C           1.5935  -22.9525  -46.8397 C.2       10 UNK         0.5000 
     21 O           1.1154  -24.0846  -46.8888 O.2       10 UNK        -0.5000 
     22 CA          2.5556  -22.5769  -45.6969 C.3       10 UNK         0.1400 
     23 CB          4.0138  -22.7511  -46.1465 C.3       10 UNK        -0.1800 
     24 N           2.3680  -21.2167  -45.1763 N.am      10 UNK        -0.5000 
     25 C           1.2171  -20.7358  -44.6875 C.2       9 UNK         0.5000 
     26 O           0.1524  -21.3570  -44.7177 O.2       9 UNK        -0.5000 
     27 CA          1.2518  -19.3106  -44.1052 C.3       9 UNK         0.1400 
     28 CB          0.9537  -18.2782  -45.2048 C.3       9 UNK        -0.1800 
     29 N           0.2847  -19.1564  -43.0158 N.am      9 UNK        -0.5000 
     30 C           0.3619  -19.8065  -41.8423 C.2       8 UNK         0.5000 
     31 O           1.3196  -20.5151  -41.5275 O.2       8 UNK        -0.5000 
     32 CA         -0.7959  -19.6419  -40.8365 C.3       8 UNK         0.1400 
     33 CB         -0.2941  -19.0151  -39.5247 C.3       8 UNK        -0.1800 
     34 N          -1.9027  -18.8406  -41.3619 N.am      8 UNK        -0.5000 
     35 C          -2.9117  -19.3312  -42.0964 C.2       7 UNK         0.5000 
     36 O          -3.0434  -20.5282  -42.3511 O.2       7 UNK        -0.5000 
     37 CA         -3.9521  -18.3319  -42.6465 C.3       7 UNK         0.1400 
     38 CB         -5.2570  -18.4165  -41.8400 C.3       7 UNK        -0.1800 
     39 N          -3.4980  -16.9400  -42.6614 N.am      7 UNK        -0.5000 
     40 C          -2.5192  -16.4534  -43.4353 C.2       6 UNK         0.5000 
     41 O          -1.8982  -17.1321  -44.2528 O.2       6 UNK        -0.5000 
     42 CA         -2.1271  -14.9747  -43.2338 C.3       6 UNK         0.1400 
     43 CB         -3.1736  -14.1426  -42.4597 C.3       6 UNK        -0.1800 
     44 N          -0.8071  -14.8430  -42.6066 N.am      6 UNK        -0.5000 
     45 C          -0.4182  -15.3925  -41.4433 C.2       5 UNK         0.5000 
     46 O          -1.1511  -16.0793  -40.7317 O.2       5 UNK        -0.5000 
     47 CA          1.0172  -15.1099  -40.9815 C.3       5 UNK         0.1400 
     48 CB          2.0264  -16.0017  -41.7247 C.3       5 UNK        -0.1800 
     49 N           1.3403  -13.7038  -41.1903 N.am      5 UNK        -0.5000 
     50 C           2.1106  -12.9384  -40.4153 C.2       4 UNK         0.5000 
     51 O           2.7025  -13.3537  -39.4171 O.2       4 UNK        -0.5000 
     52 CA          2.2399  -11.4599  -40.8522 C.3       4 UNK         0.1400 
     53 CB          3.0850  -10.6244  -39.8735 C.3       4 UNK        -0.1800 
     54 N           2.7996  -11.3088  -42.2000 N.am      4 UNK        -0.5000 
     55 C           2.1870  -11.6132  -43.3517 C.2       3 UNK         0.5000 
     56 O           1.0407  -12.0701  -43.4122 O.2       3 UNK        -0.5000 
     57 CA          3.0161  -11.4079  -44.6340 C.3       3 UNK         0.1400 
     58 CB          4.1780  -12.4135  -44.6974 C.3       3 UNK        -0.1800 
     59 N           2.1898  -11.5656  -45.8300 N.am      3 UNK        -0.5000 
     60 C           1.3541  -10.6301  -46.3053 C.2       2 UNK         0.5000 
     61 O           1.2816   -9.4884  -45.8476 O.2       2 UNK        -0.5000 
     62 CA          0.4483  -11.0208  -47.4923 C.3       2 UNK         0.1400 
     63 CB          1.0110  -10.4589  -48.8071 C.3       2 UNK        -0.1800 
     64 N           0.2782  -12.4665  -47.6348 N.am      2 UNK        -0.5000 
     65 C          -0.4544  -13.2415  -46.8219 C.2       1 UNK         0.5000 
     66 O          -1.1626  -12.7965  -45.9192 O.2       1 UNK        -0.5000 
     67 C          -1.0935  -22.3049  -48.3909 C.2       11 UNK         0.5000 
     68 O          -1.8594  -22.9877  -49.0731 O.2       11 UNK        -0.5000 
     69 N          -1.4528  -21.6593  -47.2721 N.am      12 UNK        -0.5000 
     70 CA         -2.7677  -21.7447  -46.6460 C.3       12 UNK         0.1400 
     71 CB         -3.0070  -20.5043  -45.7732 C.3       12 UNK        -0.1800 
     72 C          -2.9001  -23.0455  -45.8381 C.2       12 UNK         0.5000 
     73 O          -3.9339  -23.7084  -45.9198 O.2       12 UNK        -0.5000 
     74 N          -1.8280  -23.4146  -45.1219 N.am      13 UNK        -0.5000 
     75 CA         -1.7071  -24.6594  -44.3615 C.3       13 UNK         0.1400 
     76 CB         -0.3986  -24.6378  -43.5583 C.3       13 UNK        -0.1800 
     77 C          -1.7877  -25.9211  -45.2436 C.2       13 UNK         0.5000 
     78 O          -2.3612  -26.9235  -44.8150 O.2       13 UNK        -0.5000 
     79 N          -1.2658  -25.8401  -46.4761 N.am      14 UNK        -0.5000 
     80 CA         -1.3348  -26.8673  -47.5203 C.3       14 UNK         0.1400 
     81 CB         -0.2383  -26.5815  -48.5626 C.3       14 UNK        -0.1800 
     82 C          -2.7382  -26.9763  -48.1615 C.2       14 UNK         0.5000 
     83 O          -2.8722  -26.8795  -49.3835 O.2       14 UNK        -0.5000 
     84 N          -3.7691  -27.1410  -47.3185 N.am      15 UNK        -0.5000 
     85 CA         -5.1967  -27.2794  -47.6449 C.3       15 UNK         0.1400 
     86 CB         -5.4514  -28.6470  -48.3116 C.3       15 UNK        -0.1800 
     87 C          -5.7726  -26.1094  -48.4758 C.2       15 UNK         0.5000 
     88 O          -6.7541  -26.2924  -49.1975 O.2       15 UNK        -0.5000 
     89 N          -5.1233  -24.9398  -48.3838 N.am      16 UNK        -0.5000 
     90 CA         -5.3275  -23.7236  -49.1734 C.3       16 UNK         0.1400 
     91 CB         -6.6836  -23.0734  -48.8353 C.3       16 UNK        -0.1800 
     92 C          -5.1166  -23.8926  -50.6934 C.2       16 UNK         0.5000 
     93 O          -5.5022  -23.0005  -51.4476 O.2       16 UNK        -0.5000 
     94 N          -4.5015  -25.0002  -51.1341 N.am      17 UNK        -0.5000 
     95 CA         -4.3492  -25.3487  -52.5475 C.3       17 UNK         0.1400 
     96 CB         -3.8600  -26.7997  -52.6692 C.3       17 UNK        -0.1800 
     97 C          -3.4145  -24.3846  -53.2939 C.2       17 UNK         0.5000 
     98 O          -3.7745  -23.8773  -54.3567 O.2       17 UNK        -0.5000 
     99 N          -2.2470  -24.1143  -52.6974 N.am      18 UNK        -0.5000 
    100 CA        -1.2624  -23.1730  -53.2291 C.3       18 UNK         0.1400 
    101 CB         0.0944  -23.4269  -52.5595 C.3       18 UNK        -0.1800 
    102 C         -1.7057  -21.7065  -53.0749 C.2       18 UNK         0.5000 
    103 O         -1.3610  -20.8815  -53.9190 O.2       18 UNK        -0.5000 
    104 N         -2.4863  -21.4123  -52.0239 N.am      19 UNK        -0.5000 
    105 CA        -3.0912  -20.0989  -51.7993 C.3       19 UNK         0.1400 
    106 CB        -3.6565  -20.0226  -50.3724 C.3       19 UNK        -0.1800 
    107 C         -4.1719  -19.7798  -52.8491 C.2       19 UNK         0.5000 
    108 O         -4.1974  -18.6671  -53.3739 O.2       19 UNK        -0.5000 
    109 N         -5.0138  -20.7737  -53.1696 N.am      20 UNK        -0.5000 
    110 CA        -6.0333  -20.7001  -54.2168 C.3       20 UNK         0.1400 
    111 CB        -6.9593  -21.9218  -54.1240 C.3       20 UNK        -0.1800 
    112 C         -5.4330  -20.5822  -55.6288 C.2       20 UNK         0.5000 
    113 O         -5.9827  -19.8547  -56.4567 O.2       20 UNK        -0.5000 
    114 N         -4.2989  -21.2572  -55.8723 N.am      21 UNK        -0.5000 
    115 CA        -3.5492  -21.2076  -57.1329 C.3       21 UNK         0.1400 
    116 CB        -2.4009  -22.2269  -57.0903 C.3       21 UNK        -0.1800 
    117 C         -3.0188  -19.8028  -57.4904 C.2       21 UNK         0.5000 
    118 O         -2.8671  -19.5001  -58.6747 O.2       21 UNK        -0.5000 
    119 N         -2.7861  -18.9635  -56.4734 N.am      22 UNK        -0.5000 
    120 CA        -2.4860  -17.5302  -56.6168 C.3       22 UNK         0.1400 
    121 C         -3.7284  -16.6432  -56.9389 C.2       22 UNK         0.5000 
    122 N         -4.9515  -17.1600  -56.9675 N.am      22 UNK        -0.7600 
    123 O         -3.5772  -15.4503  -57.1886 O.2       22 UNK        -0.5000 
    124 C124       -1.7163  -16.9863  -55.3861 C.3       23 UNK        -0.0398 
    125 S125       -0.0175  -17.6426  -55.2833 S.3       23 UNK        -0.2404 
    126 C126        0.7501  -16.4489  -54.1412 C.3       23 UNK        -0.0205 
    127 H127        2.6523  -15.6800  -49.5351 H         1 UNK         0.0600 
    128 H128        3.5484  -16.4764  -48.2322 H         1 UNK         0.0600 
    129 H129        3.8705  -14.7859  -48.6280 H         1 UNK         0.0600 
    130 H130        0.5120  -15.5164  -48.8089 H         1 UNK         0.3000 
    131 H131       -0.1877  -15.1978  -46.0491 H         1 UNK         0.0600 
    132 H132       -2.5143  -15.1050  -46.8332 H         1 UNK         0.0800 
    133 H133       -1.6562  -16.4545  -47.4917 H         1 UNK         0.0800 
    134 H134       -3.0747  -16.2964  -50.8897 H         1 UNK         0.0800 
    135 H135       -2.6633  -17.1924  -49.4577 H         1 UNK         0.0800 
    136 H136       -1.4459  -15.8405  -52.6305 H         1 UNK         0.1150 
    137 H137        2.3292  -17.8627  -52.4355 H         1 UNK         0.1150 
    138 H138       -0.2411  -17.7792  -49.0059 H         1 UNK         0.1150 
    139 H139        3.1857  -18.3373  -50.0640 H         1 UNK         0.0800 
    140 H140        2.0291  -18.6269  -48.7886 H         1 UNK         0.0800 
    141 H141       -0.1402  -21.1147  -50.7014 H         1 UNK         0.0800 
    142 H142       -0.0250  -20.0586  -49.3312 H         1 UNK         0.0800 
    143 H143        0.6688  -23.0237  -49.3759 H         1 UNK         0.0600 
    144 H144        1.7455  -21.0841  -47.6026 H         1 UNK         0.3000 
    145 H145        2.3699  -23.2686  -44.8733 H         1 UNK         0.0600 
    146 H146        4.7046  -22.5891  -45.3189 H         1 UNK         0.0600 
    147 H147        4.1892  -23.7607  -46.5207 H         1 UNK         0.0600 
    148 H148        4.2754  -22.0552  -46.9448 H         1 UNK         0.0600 
    149 H149        3.1962  -20.6410  -45.1286 H         1 UNK         0.3000 
    150 H150        2.2482  -19.1161  -43.7030 H         1 UNK         0.0600 
    151 H151        1.7044  -18.3164  -45.9949 H         1 UNK         0.0600 
    152 H152        0.9563  -17.2633  -44.8064 H         1 UNK         0.0600 
    153 H153       -0.0182  -18.4529  -45.6685 H         1 UNK         0.0600 
    154 H154       -0.5459  -18.6175  -43.2248 H         1 UNK         0.3000 
    155 H155       -1.1623  -20.6436  -40.6025 H         1 UNK         0.0600 
    156 H156        0.2055  -18.0617  -39.6944 H         1 UNK         0.0600 
    157 H157        0.4235  -19.6712  -39.0306 H         1 UNK         0.0600 
    158 H158       -1.1134  -18.8471  -38.8256 H         1 UNK         0.0600 
    159 H159       -1.8532  -17.8405  -41.1871 H         1 UNK         0.3000 
    160 H160       -4.1682  -18.6231  -43.6761 H         1 UNK         0.0600 
    161 H161       -5.1073  -18.1177  -40.8017 H         1 UNK         0.0600 
    162 H162       -5.6492  -19.4344  -41.8355 H         1 UNK         0.0600 
    163 H163       -6.0281  -17.7753  -42.2675 H         1 UNK         0.0600 
    164 H164       -3.9253  -16.3208  -41.9881 H         1 UNK         0.3000 
    165 H165       -2.0465  -14.5498  -44.2330 H         1 UNK         0.0600 
    166 H166       -3.2797  -14.4652  -41.4235 H         1 UNK         0.0600 
    167 H167       -2.8926  -13.0893  -42.4462 H         1 UNK         0.0600 
    168 H168       -4.1545  -14.2043  -42.9327 H         1 UNK         0.0600 
    169 H169       -0.1336  -14.3138  -43.1423 H         1 UNK         0.3000 
    170 H170        1.0666  -15.3386  -39.9146 H         1 UNK         0.0600 
    171 H171        1.7992  -17.0573  -41.5755 H         1 UNK         0.0600 
    172 H172        2.0210  -15.8110  -42.7987 H         1 UNK         0.0600 
    173 H173        3.0404  -15.8344  -41.3614 H         1 UNK         0.0600 
    174 H174        0.9198  -13.2495  -41.9972 H         1 UNK         0.3000 
    175 H175        1.2314  -11.0411  -40.8546 H         1 UNK         0.0600 
    176 H176        4.1166  -10.9761  -39.8298 H         1 UNK         0.0600 
    177 H177        3.1005   -9.5736  -40.1633 H         1 UNK         0.0600 
    178 H178        2.6772  -10.6733  -38.8630 H         1 UNK         0.0600 
    179 H179        3.7514  -10.9738  -42.2393 H         1 UNK         0.3000 
    180 H180        3.4304  -10.3976  -44.6200 H         1 UNK         0.0600 
    181 H181        3.8290  -13.4409  -44.5888 H         1 UNK         0.0600 
    182 H182        4.9009  -12.2314  -43.9016 H         1 UNK         0.0600 
    183 H183        4.7154  -12.3401  -45.6431 H         1 UNK         0.0600 
    184 H184        2.1482  -12.5003  -46.2170 H         1 UNK         0.3000 
    185 H185       -0.5327  -10.5730  -47.3198 H         1 UNK         0.0600 
    186 H186        0.3469  -10.6740  -49.6445 H         1 UNK         0.0600 
    187 H187        1.1228   -9.3752  -48.7529 H         1 UNK         0.0600 
    188 H188        1.9909  -10.8789  -49.0376 H         1 UNK         0.0600 
    189 H189        0.8150  -12.9171  -48.3608 H         1 UNK         0.3000 
    190 H190       -0.7391  -21.1835  -46.7365 H         1 UNK         0.3000 
    191 H191       -3.5305  -21.7412  -47.4233 H         1 UNK         0.0600 
    192 H192       -3.9866  -20.5501  -45.2963 H         1 UNK         0.0600 
    193 H193       -2.9754  -19.5907  -46.3672 H         1 UNK         0.0600 
    194 H194       -2.2628  -20.4110  -44.9830 H         1 UNK         0.0600 
    195 H195       -1.0409  -22.7728  -45.0702 H         1 UNK         0.3000 
    196 H196       -2.5398  -24.6948  -43.6562 H         1 UNK         0.0600 
    197 H197        0.4728  -24.6233  -44.2125 H         1 UNK         0.0600 
    198 H198       -0.3461  -23.7620  -42.9107 H         1 UNK         0.0600 
    199 H199       -0.3167  -25.5201  -42.9225 H         1 UNK         0.0600 
    200 H200       -0.7569  -24.9976  -46.7189 H         1 UNK         0.3000 
    201 H201       -1.1168  -27.8357  -47.0659 H         1 UNK         0.0600 
    202 H202       -0.3868  -25.6146  -49.0455 H         1 UNK         0.0600 
    203 H203       -0.2271  -27.3431  -49.3433 H         1 UNK         0.0600 
    204 H204        0.7502  -26.5772  -48.1031 H         1 UNK         0.0600 
    205 H205       -3.5395  -27.1732  -46.3288 H         1 UNK         0.3000 
    206 H206       -5.7306  -27.2665  -46.6939 H         1 UNK         0.0600 
    207 H207       -5.0517  -29.4611  -47.7069 H         1 UNK         0.0600 
    208 H208       -6.5189  -28.8327  -48.4357 H         1 UNK         0.0600 
    209 H209       -4.9916  -28.7053  -49.2988 H         1 UNK         0.0600 
    210 H210       -4.3665  -24.8857  -47.7128 H         1 UNK         0.3000 
    211 H211       -4.5483  -23.0346  -48.8597 H         1 UNK         0.0600 
    212 H212       -6.7782  -22.0932  -49.3043 H         1 UNK         0.0600 
    213 H213       -6.7919  -22.9277  -47.7605 H         1 UNK         0.0600 
    214 H214       -7.5205  -23.6817  -49.1791 H         1 UNK         0.0600 
    215 H215       -4.1467  -25.6686  -50.4577 H         1 UNK         0.3000 
    216 H216       -5.3336  -25.2842  -53.0160 H         1 UNK         0.0600 
    217 H217       -2.8853  -26.9394  -52.1999 H         1 UNK         0.0600 
    218 H218       -3.7672  -27.0943  -53.7153 H         1 UNK         0.0600 
    219 H219       -4.5584  -27.4905  -52.1964 H         1 UNK         0.0600 
    220 H220       -2.0396  -24.5548  -51.8122 H         1 UNK         0.3000 
    221 H221       -1.1445  -23.3627  -54.2981 H         1 UNK         0.0600 
    222 H222        0.5034  -24.3914  -52.8607 H         1 UNK         0.0600 
    223 H223        0.0063  -23.4315  -51.4758 H         1 UNK         0.0600 
    224 H224        0.8239  -22.6633  -52.8340 H         1 UNK         0.0600 
    225 H225       -2.7306  -22.1500  -51.3788 H         1 UNK         0.3000 
    226 H226       -2.3074  -19.3433  -51.8916 H         1 UNK         0.0600 
    227 H227       -4.3952  -20.8017  -50.1858 H         1 UNK         0.0600 
    228 H228       -2.8658  -20.1228  -49.6294 H         1 UNK         0.0600 
    229 H229       -4.1450  -19.0634  -50.1980 H         1 UNK         0.0600 
    230 H230       -4.9757  -21.6440  -52.6449 H         1 UNK         0.3000 
    231 H231       -6.6332  -19.8055  -54.0373 H         1 UNK         0.0600 
    232 H232       -6.4085  -22.8547  -54.2497 H         1 UNK         0.0600 
    233 H233       -7.7313  -21.8882  -54.8937 H         1 UNK         0.0600 
    234 H234       -7.4646  -21.9598  -53.1588 H         1 UNK         0.0600 
    235 H235       -3.9444  -21.8805  -55.1564 H         1 UNK         0.3000 
    236 H236       -4.2344  -21.5065  -57.9287 H         1 UNK         0.0600 
    237 H237       -2.7695  -23.2322  -56.8862 H         1 UNK         0.0600 
    238 H238       -1.8764  -22.2615  -58.0459 H         1 UNK         0.0600 
    239 H239       -1.6670  -21.9743  -56.3259 H         1 UNK         0.0600 
    240 H240       -2.9212  -19.2977  -55.5290 H         1 UNK         0.3000 
    241 H241       -1.8312  -17.4157  -57.4828 H         1 UNK         0.0600 
    242 H242       -5.7298  -16.5591  -57.1868 H         1 UNK         0.3800 
    243 H243       -5.1234  -18.1421  -56.7785 H         1 UNK         0.3800 
    244 H244       -2.2488  -17.2252  -54.4654 H         1 UNK         0.0800 
    245 H245       -1.6463  -15.8980  -55.4265 H         1 UNK         0.0800 
    246 H246        1.8261  -16.4410  -54.3213 H         1 UNK         0.0800 
    247 H247        0.4042  -15.4367  -54.3552 H         1 UNK         0.0800 
@<TRIPOS>BOND
     1    1    2 1    
     2    1  127 1    
     3    1  128 1    
     4    1  129 1    
     5    2    3 2    
     6    2    4 am   BACKBONE|DICT|INTERRES
     7    4    5 1    
     8    4  130 1    
     9    5    6 1    
    10    5   65 1    
    11    5  131 1    
    12    6    7 1    
    13    6  132 1    
    14    6  133 1    
    15    7    8 1    
    16    8    9 1    
    17    8  134 1    
    18    8  135 1    
    19    9   10 ar   
    20    9   14 ar   
    21   10   11 ar   
    22   10  136 1    
    23   11   12 ar   
    24   11  126 1    
    25   12   13 ar   
    26   12  137 1    
    27   13   14 ar   
    28   13   15 1    
    29   14  138 1    
    30   15   16 1    
    31   15  139 1    
    32   15  140 1    
    33   16   17 1    
    34   17   18 1    
    35   17  141 1    
    36   17  142 1    
    37   18   19 1    
    38   18   67 1    
    39   18  143 1    
    40   19   20 am   BACKBONE|DICT|INTERRES
    41   19  144 1    
    42   20   21 2    
    43   20   22 1    
    44   22   23 1    
    45   22   24 1    
    46   22  145 1    
    47   23  146 1    
    48   23  147 1    
    49   23  148 1    
    50   24   25 am   BACKBONE|DICT|INTERRES
    51   24  149 1    
    52   25   26 2    
    53   25   27 1    
    54   27   28 1    
    55   27   29 1    
    56   27  150 1    
    57   28  151 1    
    58   28  152 1    
    59   28  153 1    
    60   29   30 am   BACKBONE|DICT|INTERRES
    61   29  154 1    
    62   30   31 2    
    63   30   32 1    
    64   32   33 1    
    65   32   34 1    
    66   32  155 1    
    67   33  156 1    
    68   33  157 1    
    69   33  158 1    
    70   34   35 am   BACKBONE|DICT|INTERRES
    71   34  159 1    
    72   35   36 2    
    73   35   37 1    
    74   37   38 1    
    75   37   39 1    
    76   37  160 1    
    77   38  161 1    
    78   38  162 1    
    79   38  163 1    
    80   39   40 am   BACKBONE|DICT|INTERRES
    81   39  164 1    
    82   40   41 2    
    83   40   42 1    
    84   42   43 1    
    85   42   44 1    
    86   42  165 1    
    87   43  166 1    
    88   43  167 1    
    89   43  168 1    
    90   44   45 am   BACKBONE|DICT|INTERRES
    91   44  169 1    
    92   45   46 2    
    93   45   47 1    
    94   47   48 1    
    95   47   49 1    
    96   47  170 1    
    97   48  171 1    
    98   48  172 1    
    99   48  173 1    
   100   49   50 am   BACKBONE|DICT|INTERRES
   101   49  174 1    
   102   50   51 2    
   103   50   52 1    
   104   52   53 1    
   105   52   54 1    
   106   52  175 1    
   107   53  176 1    
   108   53  177 1    
   109   53  178 1    
   110   54   55 am   BACKBONE|DICT|INTERRES
   111   54  179 1    
   112   55   56 2    
   113   55   57 1    
   114   57   58 1    
   115   57   59 1    
   116   57  180 1    
   117   58  181 1    
   118   58  182 1    
   119   58  183 1    
   120   59   60 am   BACKBONE|DICT|INTERRES
   121   59  184 1    
   122   60   61 2    
   123   60   62 1    
   124   62   63 1    
   125   62   64 1    
   126   62  185 1    
   127   63  186 1    
   128   63  187 1    
   129   63  188 1    
   130   64   65 am   BACKBONE|DICT|INTERRES
   131   64  189 1    
   132   65   66 2    
   133   67   68 2    
   134   67   69 am   BACKBONE|DICT|INTERRES
   135   69   70 1    
   136   69  190 1    
   137   70   71 1    
   138   70   72 1    
   139   70  191 1    
   140   71  192 1    
   141   71  193 1    
   142   71  194 1    
   143   72   73 2    
   144   72   74 am   BACKBONE|DICT|INTERRES
   145   74   75 1    
   146   74  195 1    
   147   75   76 1    
   148   75   77 1    
   149   75  196 1    
   150   76  197 1    
   151   76  198 1    
   152   76  199 1    
   153   77   78 2    
   154   77   79 am   BACKBONE|DICT|INTERRES
   155   79   80 1    
   156   79  200 1    
   157   80   81 1    
   158   80   82 1    
   159   80  201 1    
   160   81  202 1    
   161   81  203 1    
   162   81  204 1    
   163   82   83 2    
   164   82   84 am   BACKBONE|DICT|INTERRES
   165   84   85 1    
   166   84  205 1    
   167   85   86 1    
   168   85   87 1    
   169   85  206 1    
   170   86  207 1    
   171   86  208 1    
   172   86  209 1    
   173   87   88 2    
   174   87   89 am   BACKBONE|DICT|INTERRES
   175   89   90 1    
   176   89  210 1    
   177   90   91 1    
   178   90   92 1    
   179   90  211 1    
   180   91  212 1    
   181   91  213 1    
   182   91  214 1    
   183   92   93 2    
   184   92   94 am   BACKBONE|DICT|INTERRES
   185   94   95 1    
   186   94  215 1    
   187   95   96 1    
   188   95   97 1    
   189   95  216 1    
   190   96  217 1    
   191   96  218 1    
   192   96  219 1    
   193   97   98 2    
   194   97   99 am   BACKBONE|DICT|INTERRES
   195   99  100 1    
   196   99  220 1    
   197  100  101 1    
   198  100  102 1    
   199  100  221 1    
   200  101  222 1    
   201  101  223 1    
   202  101  224 1    
   203  102  103 2    
   204  102  104 am   BACKBONE|DICT|INTERRES
   205  104  105 1    
   206  104  225 1    
   207  105  106 1    
   208  105  107 1    
   209  105  226 1    
   210  106  227 1    
   211  106  228 1    
   212  106  229 1    
   213  107  108 2    
   214  107  109 am   BACKBONE|DICT|INTERRES
   215  109  110 1    
   216  109  230 1    
   217  110  111 1    
   218  110  112 1    
   219  110  231 1    
   220  111  232 1    
   221  111  233 1    
   222  111  234 1    
   223  112  113 2    
   224  112  114 am   BACKBONE|DICT|INTERRES
   225  114  115 1    
   226  114  235 1    
   227  115  116 1    
   228  115  117 1    
   229  115  236 1    
   230  116  237 1    
   231  116  238 1    
   232  116  239 1    
   233  117  118 2    
   234  117  119 am   BACKBONE|DICT|INTERRES
   235  119  120 1    
   236  119  240 1    
   237  120  121 1    
   238  120  124 1    
   239  120  241 1    
   240  121  122 am   BACKBONE|DICT|INTERRES
   241  121  123 2    
   242  122  242 1    
   243  122  243 1    
   244  124  125 1    
   245  124  244 1    
   246  124  245 1    
   247  125  126 1    
   248  126  246 1    
   249  126  247 1    
@<TRIPOS>SUBSTRUCTURE
     1 UNK         1 GROUP             0       ****    0 ROOT    
