@<TRIPOS>MOLECULE
3R540
247   249    1
SMALL
USER_CHARGES


@<TRIPOS>ATOM
      1 CA         -4.0821  -13.4520  -46.5735 C.3       0 UNK        -0.1800 
      2 C          -3.2316  -12.9504  -47.7307 C.2       0 UNK         0.5000 
      3 O          -3.5761  -11.9451  -48.3509 O.2       0 UNK        -0.5000 
      4 N          -2.1321  -13.6544  -48.0323 N.am      1 UNK        -0.5000 
      5 CA         -1.2135  -13.3436  -49.1369 C.3       1 UNK         0.1400 
      6 C6         -0.3059  -14.5469  -49.4939 C.3       23 UNK        -0.0398 
      7 S7          0.6514  -15.2061  -48.0814 S.3       23 UNK        -0.2404 
      8 C8          2.1214  -15.8659  -48.9245 C.3       23 UNK        -0.0205 
      9 C9          1.8632  -17.2154  -49.5838 C.ar      23 UNK        -0.0193 
     10 C10         1.3521  -17.2882  -50.8837 C.ar      23 UNK        -0.1150 
     11 C11         1.1961  -18.5258  -51.5150 C.ar      23 UNK        -0.0193 
     12 C12         1.5549  -19.6938  -50.8372 C.ar      23 UNK        -0.1150 
     13 C13         2.0471  -19.6429  -49.5279 C.ar      23 UNK        -0.0193 
     14 C14         2.1946  -18.3964  -48.9122 C.ar      23 UNK        -0.1150 
     15 C15         2.5014  -20.8992  -48.7818 C.3       23 UNK        -0.0205 
     16 S16         1.6301  -22.4368  -49.2416 S.3       23 UNK        -0.2404 
     17 C17        -0.0101  -22.1889  -48.4868 C.3       23 UNK        -0.0398 
     18 CA         -0.3112  -23.2563  -47.3955 C.3       11 UNK         0.1400 
     19 N          -0.3379  -22.6969  -46.0392 N.am      11 UNK        -0.5000 
     20 C          -0.4702  -23.4141  -44.9125 C.2       10 UNK         0.5000 
     21 O          -0.5404  -24.6425  -44.8873 O.2       10 UNK        -0.5000 
     22 CA         -0.6066  -22.6293  -43.5944 C.3       10 UNK         0.1400 
     23 CB          0.7622  -22.1471  -43.0924 C.3       10 UNK        -0.1800 
     24 N          -1.5232  -21.4949  -43.7117 N.am      10 UNK        -0.5000 
     25 C          -2.8307  -21.6037  -43.9903 C.2       9 UNK         0.5000 
     26 O          -3.4176  -22.6777  -44.1129 O.2       9 UNK        -0.5000 
     27 CA         -3.5998  -20.2948  -44.2373 C.3       9 UNK         0.1400 
     28 CB         -4.0197  -19.6354  -42.9152 C.3       9 UNK        -0.1800 
     29 N          -2.8256  -19.3502  -45.0408 N.am      9 UNK        -0.5000 
     30 C          -2.4721  -19.5578  -46.3173 C.2       8 UNK         0.5000 
     31 O          -2.8036  -20.5458  -46.9723 O.2       8 UNK        -0.5000 
     32 CA         -1.5635  -18.4930  -46.9512 C.3       8 UNK         0.1400 
     33 CB         -2.4068  -17.2978  -47.4146 C.3       8 UNK        -0.1800 
     34 N          -0.5107  -18.0457  -46.0353 N.am      8 UNK        -0.5000 
     35 C           0.4787  -18.8348  -45.5886 C.2       7 UNK         0.5000 
     36 O           0.6311  -20.0006  -45.9454 O.2       7 UNK        -0.5000 
     37 CA          1.4181  -18.2593  -44.5144 C.3       7 UNK         0.1400 
     38 CB          2.6218  -17.5520  -45.1516 C.3       7 UNK        -0.1800 
     39 N           0.7282  -17.3513  -43.5985 N.am      7 UNK        -0.5000 
     40 C          -0.2129  -17.7471  -42.7269 C.2       6 UNK         0.5000 
     41 O          -0.5684  -18.9202  -42.6091 O.2       6 UNK        -0.5000 
     42 CA         -0.8929  -16.6709  -41.8561 C.3       6 UNK         0.1400 
     43 CB         -0.2913  -16.6696  -40.4431 C.3       6 UNK        -0.1800 
     44 N          -0.8099  -15.3181  -42.4080 N.am      6 UNK        -0.5000 
     45 C          -1.3779  -14.9176  -43.5533 C.2       5 UNK         0.5000 
     46 O          -2.0789  -15.6441  -44.2575 O.2       5 UNK        -0.5000 
     47 CA         -1.0585  -13.4829  -44.0205 C.3       5 UNK         0.1400 
     48 CB         -2.1270  -12.5009  -43.5197 C.3       5 UNK        -0.1800 
     49 N           0.2664  -12.9907  -43.6219 N.am      5 UNK        -0.5000 
     50 C           1.4341  -13.5856  -43.9010 C.2       4 UNK         0.5000 
     51 O           1.5196  -14.6457  -44.5184 O.2       4 UNK        -0.5000 
     52 CA          2.7075  -12.8604  -43.4291 C.3       4 UNK         0.1400 
     53 CB          3.9540  -13.7610  -43.4989 C.3       4 UNK        -0.1800 
     54 N           2.9378  -11.6728  -44.2469 N.am      4 UNK        -0.5000 
     55 C           2.3334  -10.4894  -44.0827 C.2       3 UNK         0.5000 
     56 O           1.5451  -10.2476  -43.1686 O.2       3 UNK        -0.5000 
     57 CA          2.6064   -9.4188  -45.1564 C.3       3 UNK         0.1400 
     58 CB          3.7647   -8.5104  -44.7187 C.3       3 UNK        -0.1800 
     59 N           2.9288  -10.0059  -46.4633 N.am      3 UNK        -0.5000 
     60 C           2.0963  -10.6083  -47.3284 C.2       2 UNK         0.5000 
     61 O           2.5446  -11.1723  -48.3255 O.2       2 UNK        -0.5000 
     62 CA          0.5659  -10.5653  -47.0814 C.3       2 UNK         0.1400 
     63 CB         -0.0485   -9.2435  -47.5876 C.3       2 UNK        -0.1800 
     64 N          -0.1532  -11.7228  -47.6269 N.am      2 UNK        -0.5000 
     65 C          -0.3977  -12.0504  -48.9064 C.2       1 UNK         0.5000 
     66 O          -0.0513  -11.3829  -49.8820 O.2       1 UNK        -0.5000 
     67 C          -1.6011  -24.0329  -47.7235 C.2       11 UNK         0.5000 
     68 O          -1.5168  -25.1511  -48.2325 O.2       11 UNK        -0.5000 
     69 N          -2.7583  -23.4419  -47.3964 N.am      12 UNK        -0.5000 
     70 CA         -4.0767  -24.0461  -47.5753 C.3       12 UNK         0.1400 
     71 CB         -5.1614  -22.9911  -47.3203 C.3       12 UNK        -0.1800 
     72 C          -4.2914  -25.2857  -46.6893 C.2       12 UNK         0.5000 
     73 O          -4.8014  -26.2931  -47.1791 O.2       12 UNK        -0.5000 
     74 N          -3.8719  -25.2073  -45.4179 N.am      13 UNK        -0.5000 
     75 CA         -3.9419  -26.3017  -44.4460 C.3       13 UNK         0.1400 
     76 CB         -3.5810  -25.7748  -43.0490 C.3       13 UNK        -0.1800 
     77 C          -3.0488  -27.4981  -44.8222 C.2       13 UNK         0.5000 
     78 O          -3.4700  -28.6447  -44.6656 O.2       13 UNK        -0.5000 
     79 N          -1.8465  -27.2107  -45.3384 N.am      14 UNK        -0.5000 
     80 CA         -0.9042  -28.2033  -45.8585 C.3       14 UNK         0.1400 
     81 CB          0.4870  -27.5565  -45.9554 C.3       14 UNK        -0.1800 
     82 C          -1.3138  -28.7758  -47.2306 C.2       14 UNK         0.5000 
     83 O          -0.7748  -29.8074  -47.6330 O.2       14 UNK        -0.5000 
     84 N          -2.2220  -28.0792  -47.9316 N.am      15 UNK        -0.5000 
     85 CA         -2.6349  -28.2856  -49.3243 C.3       15 UNK         0.1400 
     86 CB         -3.3684  -29.6315  -49.4959 C.3       15 UNK        -0.1800 
     87 C          -1.4652  -28.0945  -50.3155 C.2       15 UNK         0.5000 
     88 O          -1.4088  -28.7579  -51.3525 O.2       15 UNK        -0.5000 
     89 N          -0.5451  -27.1880  -49.9638 N.am      16 UNK        -0.5000 
     90 CA          0.6449  -26.8430  -50.7367 C.3       16 UNK         0.1400 
     91 CB          1.7300  -26.3446  -49.7703 C.3       16 UNK        -0.1800 
     92 C           0.3462  -25.7854  -51.8128 C.2       16 UNK         0.5000 
     93 O           1.0226  -25.7619  -52.8419 O.2       16 UNK        -0.5000 
     94 N          -0.6668  -24.9475  -51.5681 N.am      17 UNK        -0.5000 
     95 CA         -1.1784  -23.9267  -52.4745 C.3       17 UNK         0.1400 
     96 CB         -0.2358  -22.7075  -52.5113 C.3       17 UNK        -0.1800 
     97 C          -2.5927  -23.5375  -52.0175 C.2       17 UNK         0.5000 
     98 O          -3.1002  -24.0890  -51.0371 O.2       17 UNK        -0.5000 
     99 N          -3.2071  -22.5980  -52.7430 N.am      18 UNK        -0.5000 
    100 CA        -4.5086  -22.0187  -52.4187 C.3       18 UNK         0.1400 
    101 CB        -5.0316  -21.2781  -53.6600 C.3       18 UNK        -0.1800 
    102 C         -4.4390  -21.0609  -51.2130 C.2       18 UNK         0.5000 
    103 O         -3.3603  -20.5913  -50.8436 O.2       18 UNK        -0.5000 
    104 N         -5.6115  -20.7435  -50.6519 N.am      19 UNK        -0.5000 
    105 CA        -5.7904  -19.7515  -49.5933 C.3       19 UNK         0.1400 
    106 CB        -7.1439  -19.9973  -48.9031 C.3       19 UNK        -0.1800 
    107 C         -5.6752  -18.3243  -50.1633 C.2       19 UNK         0.5000 
    108 O         -6.6898  -17.6881  -50.4490 O.2       19 UNK        -0.5000 
    109 N         -4.4301  -17.8779  -50.3729 N.am      20 UNK        -0.5000 
    110 CA        -3.9835  -16.5548  -50.8347 C.3       20 UNK         0.1400 
    111 CB        -4.5384  -15.4272  -49.9447 C.3       20 UNK        -0.1800 
    112 C         -4.2440  -16.2526  -52.3223 C.2       20 UNK         0.5000 
    113 O         -3.5436  -15.4127  -52.8893 O.2       20 UNK        -0.5000 
    114 N         -5.1949  -16.9584  -52.9498 N.am      21 UNK        -0.5000 
    115 CA        -5.5555  -16.8469  -54.3691 C.3       21 UNK         0.1400 
    116 CB        -6.7841  -17.7279  -54.6400 C.3       21 UNK        -0.1800 
    117 C         -4.4089  -17.1945  -55.3433 C.2       21 UNK         0.5000 
    118 O         -4.4617  -16.8048  -56.5103 O.2       21 UNK        -0.5000 
    119 N         -3.3873  -17.8946  -54.8375 N.am      22 UNK        -0.5000 
    120 CA        -2.0933  -18.1259  -55.4898 C.3       22 UNK         0.1400 
    121 C         -1.2003  -16.8574  -55.6485 C.2       22 UNK         0.5000 
    122 N         -1.4776  -15.7483  -54.9712 N.am      22 UNK        -0.7600 
    123 O         -0.2383  -16.8807  -56.4111 O.2       22 UNK        -0.5000 
    124 C124       -1.3249  -19.2804  -54.7969 C.3       23 UNK        -0.0398 
    125 S125       -1.0827  -19.0364  -52.9982 S.3       23 UNK        -0.2404 
    126 C126        0.6843  -18.6097  -52.9445 C.3       23 UNK        -0.0205 
    127 H127       -3.6021  -14.2724  -46.0411 H         1 UNK         0.0600 
    128 H128       -5.0441  -13.8054  -46.9444 H         1 UNK         0.0600 
    129 H129       -4.2668  -12.6442  -45.8660 H         1 UNK         0.0600 
    130 H130       -1.8937  -14.4722  -47.4904 H         1 UNK         0.3000 
    131 H131       -1.8333  -13.1515  -50.0157 H         1 UNK         0.0600 
    132 H132       -0.9152  -15.3580  -49.8925 H         1 UNK         0.0800 
    133 H133        0.3734  -14.2717  -50.3024 H         1 UNK         0.0800 
    134 H134        2.9217  -15.9630  -48.1896 H         1 UNK         0.0800 
    135 H135        2.4840  -15.1477  -49.6613 H         1 UNK         0.0800 
    136 H136        1.0996  -16.3815  -51.4144 H         1 UNK         0.1150 
    137 H137        1.4636  -20.6416  -51.3453 H         1 UNK         0.1150 
    138 H138        2.6011  -18.3429  -47.9141 H         1 UNK         0.1150 
    139 H139        2.4119  -20.7571  -47.7045 H         1 UNK         0.0800 
    140 H140        3.5639  -21.0403  -48.9821 H         1 UNK         0.0800 
    141 H141       -0.7384  -22.2097  -49.3000 H         1 UNK         0.0800 
    142 H142       -0.0836  -21.1783  -48.0885 H         1 UNK         0.0800 
    143 H143        0.4871  -24.0015  -47.3911 H         1 UNK         0.0600 
    144 H144       -0.2216  -21.6897  -45.9643 H         1 UNK         0.3000 
    145 H145       -1.0187  -23.3082  -42.8452 H         1 UNK         0.0600 
    146 H146        1.4340  -22.9904  -42.9286 H         1 UNK         0.0600 
    147 H147        0.6704  -21.6141  -42.1458 H         1 UNK         0.0600 
    148 H148        1.2442  -21.4804  -43.8063 H         1 UNK         0.0600 
    149 H149       -1.1291  -20.5697  -43.5729 H         1 UNK         0.3000 
    150 H150       -4.5062  -20.5421  -44.7941 H         1 UNK         0.0600 
    151 H151       -3.1601  -19.3680  -42.3011 H         1 UNK         0.0600 
    152 H152       -4.6428  -20.3103  -42.3270 H         1 UNK         0.0600 
    153 H153       -4.5997  -18.7297  -43.0928 H         1 UNK         0.0600 
    154 H154       -2.4925  -18.5177  -44.5765 H         1 UNK         0.3000 
    155 H155       -1.0904  -18.9373  -47.8297 H         1 UNK         0.0600 
    156 H156       -1.8474  -16.6639  -48.0976 H         1 UNK         0.0600 
    157 H157       -2.7475  -16.6880  -46.5787 H         1 UNK         0.0600 
    158 H158       -3.2955  -17.6346  -47.9460 H         1 UNK         0.0600 
    159 H159       -0.5831  -17.1050  -45.6734 H         1 UNK         0.3000 
    160 H160        1.8002  -19.0942  -43.9238 H         1 UNK         0.0600 
    161 H161        2.3100  -16.7820  -45.8575 H         1 UNK         0.0600 
    162 H162        3.2461  -18.2638  -45.6918 H         1 UNK         0.0600 
    163 H163        3.2506  -17.0795  -44.3968 H         1 UNK         0.0600 
    164 H164        0.9502  -16.3652  -43.6914 H         1 UNK         0.3000 
    165 H165       -1.9492  -16.9368  -41.7789 H         1 UNK         0.0600 
    166 H166       -0.8184  -15.9740  -39.7898 H         1 UNK         0.0600 
    167 H167       -0.3624  -17.6582  -39.9871 H         1 UNK         0.0600 
    168 H168        0.7625  -16.3887  -40.4550 H         1 UNK         0.0600 
    169 H169       -0.2430  -14.6555  -41.9001 H         1 UNK         0.3000 
    170 H170       -1.0877  -13.4931  -45.1111 H         1 UNK         0.0600 
    171 H171       -2.0127  -11.5222  -43.9862 H         1 UNK         0.0600 
    172 H172       -2.0724  -12.3667  -42.4388 H         1 UNK         0.0600 
    173 H173       -3.1313  -12.8568  -43.7512 H         1 UNK         0.0600 
    174 H174        0.2942  -12.1022  -43.1363 H         1 UNK         0.3000 
    175 H175        2.5632  -12.5672  -42.3871 H         1 UNK         0.0600 
    176 H176        3.8185  -14.6620  -42.8991 H         1 UNK         0.0600 
    177 H177        4.1702  -14.0768  -44.5204 H         1 UNK         0.0600 
    178 H178        4.8341  -13.2450  -43.1148 H         1 UNK         0.0600 
    179 H179        3.5374  -11.7946  -45.0502 H         1 UNK         0.3000 
    180 H180        1.7156   -8.7963  -45.2443 H         1 UNK         0.0600 
    181 H181        4.6970   -9.0664  -44.6113 H         1 UNK         0.0600 
    182 H182        3.5508   -8.0399  -43.7580 H         1 UNK         0.0600 
    183 H183        3.9322   -7.7103  -45.4400 H         1 UNK         0.0600 
    184 H184        3.9117  -10.0111  -46.6925 H         1 UNK         0.3000 
    185 H185        0.3764  -10.6263  -46.0117 H         1 UNK         0.0600 
    186 H186        0.3670   -8.3837  -47.0630 H         1 UNK         0.0600 
    187 H187        0.1399   -9.0863  -48.6497 H         1 UNK         0.0600 
    188 H188       -1.1275   -9.2255  -47.4328 H         1 UNK         0.0600 
    189 H189       -0.4776  -12.3831  -46.9375 H         1 UNK         0.3000 
    190 H190       -2.7385  -22.4951  -47.0278 H         1 UNK         0.3000 
    191 H191       -4.1579  -24.3668  -48.6152 H         1 UNK         0.0600 
    192 H192       -5.0396  -22.1446  -47.9942 H         1 UNK         0.0600 
    193 H193       -6.1570  -23.4032  -47.4880 H         1 UNK         0.0600 
    194 H194       -5.1268  -22.6122  -46.2987 H         1 UNK         0.0600 
    195 H195       -3.5087  -24.3214  -45.0752 H         1 UNK         0.3000 
    196 H196       -4.9744  -26.6559  -44.4179 H         1 UNK         0.0600 
    197 H197       -3.6356  -26.5697  -42.3042 H         1 UNK         0.0600 
    198 H198       -4.2673  -24.9881  -42.7356 H         1 UNK         0.0600 
    199 H199       -2.5701  -25.3669  -43.0221 H         1 UNK         0.0600 
    200 H200       -1.5444  -26.2403  -45.3693 H         1 UNK         0.3000 
    201 H201       -0.8486  -29.0360  -45.1544 H         1 UNK         0.0600 
    202 H202        1.2296  -28.2706  -46.3138 H         1 UNK         0.0600 
    203 H203        0.8239  -27.1980  -44.9826 H         1 UNK         0.0600 
    204 H204        0.4878  -26.7090  -46.6425 H         1 UNK         0.0600 
    205 H205       -2.5840  -27.2376  -47.5027 H         1 UNK         0.3000 
    206 H206       -3.3488  -27.4906  -49.5454 H         1 UNK         0.0600 
    207 H207       -4.1814  -29.7302  -48.7765 H         1 UNK         0.0600 
    208 H208       -3.8055  -29.7128  -50.4917 H         1 UNK         0.0600 
    209 H209       -2.6977  -30.4808  -49.3644 H         1 UNK         0.0600 
    210 H210       -0.7292  -26.6275  -49.1360 H         1 UNK         0.3000 
    211 H211        1.0197  -27.7372  -51.2393 H         1 UNK         0.0600 
    212 H212        1.3963  -25.4720  -49.2089 H         1 UNK         0.0600 
    213 H213        2.6361  -26.0635  -50.3083 H         1 UNK         0.0600 
    214 H214        2.0028  -27.1185  -49.0525 H         1 UNK         0.0600 
    215 H215       -1.2162  -25.0615  -50.7234 H         1 UNK         0.3000 
    216 H216       -1.2544  -24.3582  -53.4744 H         1 UNK         0.0600 
    217 H217       -0.4878  -22.0438  -53.3380 H         1 UNK         0.0600 
    218 H218        0.8064  -22.9971  -52.6440 H         1 UNK         0.0600 
    219 H219       -0.3071  -22.1231  -51.5951 H         1 UNK         0.0600 
    220 H220       -2.7065  -22.1685  -53.5055 H         1 UNK         0.3000 
    221 H221       -5.1987  -22.8297  -52.1761 H         1 UNK         0.0600 
    222 H222       -4.3968  -20.4309  -53.9207 H         1 UNK         0.0600 
    223 H223       -5.0793  -21.9399  -54.5250 H         1 UNK         0.0600 
    224 H224       -6.0393  -20.8975  -53.4925 H         1 UNK         0.0600 
    225 H225       -6.4578  -21.1454  -51.0284 H         1 UNK         0.3000 
    226 H226       -5.0052  -19.8790  -48.8444 H         1 UNK         0.0600 
    227 H227       -7.1861  -20.9895  -48.4543 H         1 UNK         0.0600 
    228 H228       -7.9775  -19.9126  -49.6013 H         1 UNK         0.0600 
    229 H229       -7.3096  -19.2736  -48.1041 H         1 UNK         0.0600 
    230 H230       -3.6874  -18.5576  -50.2438 H         1 UNK         0.3000 
    231 H231       -2.8992  -16.5623  -50.7161 H         1 UNK         0.0600 
    232 H232       -5.6178  -15.3162  -50.0484 H         1 UNK         0.0600 
    233 H233       -4.0923  -14.4695  -50.2140 H         1 UNK         0.0600 
    234 H234       -4.3206  -15.6061  -48.8929 H         1 UNK         0.0600 
    235 H235       -5.7616  -17.5746  -52.3813 H         1 UNK         0.3000 
    236 H236       -5.8318  -15.8074  -54.5565 H         1 UNK         0.0600 
    237 H237       -6.5699  -18.7814  -54.4630 H         1 UNK         0.0600 
    238 H238       -7.6227  -17.4435  -54.0040 H         1 UNK         0.0600 
    239 H239       -7.1149  -17.6304  -55.6748 H         1 UNK         0.0600 
    240 H240       -3.4282  -18.1521  -53.8629 H         1 UNK         0.3000 
    241 H241       -2.3105  -18.4547  -56.5078 H         1 UNK         0.0600 
    242 H242       -0.8923  -14.9381  -55.0951 H         1 UNK         0.3800 
    243 H243       -2.2528  -15.7071  -54.3169 H         1 UNK         0.3800 
    244 H244       -0.3659  -19.4579  -55.2867 H         1 UNK         0.0800 
    245 H245       -1.8859  -20.2064  -54.9254 H         1 UNK         0.0800 
    246 H246        1.2577  -19.3620  -53.4883 H         1 UNK         0.0800 
    247 H247        0.8444  -17.6633  -53.4632 H         1 UNK         0.0800 
@<TRIPOS>BOND
     1    1    2 1    
     2    1  127 1    
     3    1  128 1    
     4    1  129 1    
     5    2    3 2    
     6    2    4 am   BACKBONE|DICT|INTERRES
     7    4    5 1    
     8    4  130 1    
     9    5    6 1    
    10    5   65 1    
    11    5  131 1    
    12    6    7 1    
    13    6  132 1    
    14    6  133 1    
    15    7    8 1    
    16    8    9 1    
    17    8  134 1    
    18    8  135 1    
    19    9   10 ar   
    20    9   14 ar   
    21   10   11 ar   
    22   10  136 1    
    23   11   12 ar   
    24   11  126 1    
    25   12   13 ar   
    26   12  137 1    
    27   13   14 ar   
    28   13   15 1    
    29   14  138 1    
    30   15   16 1    
    31   15  139 1    
    32   15  140 1    
    33   16   17 1    
    34   17   18 1    
    35   17  141 1    
    36   17  142 1    
    37   18   19 1    
    38   18   67 1    
    39   18  143 1    
    40   19   20 am   BACKBONE|DICT|INTERRES
    41   19  144 1    
    42   20   21 2    
    43   20   22 1    
    44   22   23 1    
    45   22   24 1    
    46   22  145 1    
    47   23  146 1    
    48   23  147 1    
    49   23  148 1    
    50   24   25 am   BACKBONE|DICT|INTERRES
    51   24  149 1    
    52   25   26 2    
    53   25   27 1    
    54   27   28 1    
    55   27   29 1    
    56   27  150 1    
    57   28  151 1    
    58   28  152 1    
    59   28  153 1    
    60   29   30 am   BACKBONE|DICT|INTERRES
    61   29  154 1    
    62   30   31 2    
    63   30   32 1    
    64   32   33 1    
    65   32   34 1    
    66   32  155 1    
    67   33  156 1    
    68   33  157 1    
    69   33  158 1    
    70   34   35 am   BACKBONE|DICT|INTERRES
    71   34  159 1    
    72   35   36 2    
    73   35   37 1    
    74   37   38 1    
    75   37   39 1    
    76   37  160 1    
    77   38  161 1    
    78   38  162 1    
    79   38  163 1    
    80   39   40 am   BACKBONE|DICT|INTERRES
    81   39  164 1    
    82   40   41 2    
    83   40   42 1    
    84   42   43 1    
    85   42   44 1    
    86   42  165 1    
    87   43  166 1    
    88   43  167 1    
    89   43  168 1    
    90   44   45 am   BACKBONE|DICT|INTERRES
    91   44  169 1    
    92   45   46 2    
    93   45   47 1    
    94   47   48 1    
    95   47   49 1    
    96   47  170 1    
    97   48  171 1    
    98   48  172 1    
    99   48  173 1    
   100   49   50 am   BACKBONE|DICT|INTERRES
   101   49  174 1    
   102   50   51 2    
   103   50   52 1    
   104   52   53 1    
   105   52   54 1    
   106   52  175 1    
   107   53  176 1    
   108   53  177 1    
   109   53  178 1    
   110   54   55 am   BACKBONE|DICT|INTERRES
   111   54  179 1    
   112   55   56 2    
   113   55   57 1    
   114   57   58 1    
   115   57   59 1    
   116   57  180 1    
   117   58  181 1    
   118   58  182 1    
   119   58  183 1    
   120   59   60 am   BACKBONE|DICT|INTERRES
   121   59  184 1    
   122   60   61 2    
   123   60   62 1    
   124   62   63 1    
   125   62   64 1    
   126   62  185 1    
   127   63  186 1    
   128   63  187 1    
   129   63  188 1    
   130   64   65 am   BACKBONE|DICT|INTERRES
   131   64  189 1    
   132   65   66 2    
   133   67   68 2    
   134   67   69 am   BACKBONE|DICT|INTERRES
   135   69   70 1    
   136   69  190 1    
   137   70   71 1    
   138   70   72 1    
   139   70  191 1    
   140   71  192 1    
   141   71  193 1    
   142   71  194 1    
   143   72   73 2    
   144   72   74 am   BACKBONE|DICT|INTERRES
   145   74   75 1    
   146   74  195 1    
   147   75   76 1    
   148   75   77 1    
   149   75  196 1    
   150   76  197 1    
   151   76  198 1    
   152   76  199 1    
   153   77   78 2    
   154   77   79 am   BACKBONE|DICT|INTERRES
   155   79   80 1    
   156   79  200 1    
   157   80   81 1    
   158   80   82 1    
   159   80  201 1    
   160   81  202 1    
   161   81  203 1    
   162   81  204 1    
   163   82   83 2    
   164   82   84 am   BACKBONE|DICT|INTERRES
   165   84   85 1    
   166   84  205 1    
   167   85   86 1    
   168   85   87 1    
   169   85  206 1    
   170   86  207 1    
   171   86  208 1    
   172   86  209 1    
   173   87   88 2    
   174   87   89 am   BACKBONE|DICT|INTERRES
   175   89   90 1    
   176   89  210 1    
   177   90   91 1    
   178   90   92 1    
   179   90  211 1    
   180   91  212 1    
   181   91  213 1    
   182   91  214 1    
   183   92   93 2    
   184   92   94 am   BACKBONE|DICT|INTERRES
   185   94   95 1    
   186   94  215 1    
   187   95   96 1    
   188   95   97 1    
   189   95  216 1    
   190   96  217 1    
   191   96  218 1    
   192   96  219 1    
   193   97   98 2    
   194   97   99 am   BACKBONE|DICT|INTERRES
   195   99  100 1    
   196   99  220 1    
   197  100  101 1    
   198  100  102 1    
   199  100  221 1    
   200  101  222 1    
   201  101  223 1    
   202  101  224 1    
   203  102  103 2    
   204  102  104 am   BACKBONE|DICT|INTERRES
   205  104  105 1    
   206  104  225 1    
   207  105  106 1    
   208  105  107 1    
   209  105  226 1    
   210  106  227 1    
   211  106  228 1    
   212  106  229 1    
   213  107  108 2    
   214  107  109 am   BACKBONE|DICT|INTERRES
   215  109  110 1    
   216  109  230 1    
   217  110  111 1    
   218  110  112 1    
   219  110  231 1    
   220  111  232 1    
   221  111  233 1    
   222  111  234 1    
   223  112  113 2    
   224  112  114 am   BACKBONE|DICT|INTERRES
   225  114  115 1    
   226  114  235 1    
   227  115  116 1    
   228  115  117 1    
   229  115  236 1    
   230  116  237 1    
   231  116  238 1    
   232  116  239 1    
   233  117  118 2    
   234  117  119 am   BACKBONE|DICT|INTERRES
   235  119  120 1    
   236  119  240 1    
   237  120  121 1    
   238  120  124 1    
   239  120  241 1    
   240  121  122 am   BACKBONE|DICT|INTERRES
   241  121  123 2    
   242  122  242 1    
   243  122  243 1    
   244  124  125 1    
   245  124  244 1    
   246  124  245 1    
   247  125  126 1    
   248  126  246 1    
   249  126  247 1    
@<TRIPOS>SUBSTRUCTURE
     1 UNK         1 GROUP             0       ****    0 ROOT    
