@<TRIPOS>MOLECULE
3R540
247   249    1
SMALL
USER_CHARGES


@<TRIPOS>ATOM
      1 CA         -0.3540   -8.7510  -45.8361 C.3       0 UNK        -0.1800 
      2 C          -0.4914  -10.2660  -45.8753 C.2       0 UNK         0.5000 
      3 O          -1.1955  -10.8373  -45.0437 O.2       0 UNK        -0.5000 
      4 N           0.2004  -10.9177  -46.8197 N.am      1 UNK        -0.5000 
      5 CA          0.2031  -12.3606  -47.1228 C.3       1 UNK         0.1400 
      6 C6         -1.1860  -12.9288  -47.5140 C.3       23 UNK        -0.0398 
      7 S7         -1.8367  -12.1830  -49.0466 S.3       23 UNK        -0.2404 
      8 C8         -0.9277  -13.1101  -50.3272 C.3       23 UNK        -0.0205 
      9 C9         -1.3285  -14.5768  -50.3816 C.ar      23 UNK        -0.0193 
     10 C10        -2.4943  -14.9566  -51.0494 C.ar      23 UNK        -0.1150 
     11 C11        -2.8645  -16.3016  -51.1236 C.ar      23 UNK        -0.0193 
     12 C12        -2.0560  -17.2727  -50.5228 C.ar      23 UNK        -0.1150 
     13 C13        -0.8865  -16.9055  -49.8471 C.ar      23 UNK        -0.0193 
     14 C14        -0.5276  -15.5557  -49.7852 C.ar      23 UNK        -0.1150 
     15 C15         0.0126  -17.9618  -49.2159 C.3       23 UNK        -0.0205 
     16 S16        -0.2433  -18.1227  -47.4167 S.3       23 UNK        -0.2404 
     17 C17        -1.8116  -19.0511  -47.3445 C.3       23 UNK        -0.0398 
     18 CA         -1.6330  -20.5169  -46.8781 C.3       11 UNK         0.1400 
     19 N          -1.1186  -20.6329  -45.5081 N.am      11 UNK        -0.5000 
     20 C          -0.7691  -21.7907  -44.9256 C.2       10 UNK         0.5000 
     21 O          -0.8053  -22.8796  -45.4981 O.2       10 UNK        -0.5000 
     22 CA         -0.3963  -21.7477  -43.4343 C.3       10 UNK         0.1400 
     23 CB          1.1144  -21.5774  -43.2425 C.3       10 UNK        -0.1800 
     24 N          -1.1220  -20.7136  -42.6951 N.am      10 UNK        -0.5000 
     25 C          -2.4441  -20.7531  -42.4660 C.2       9 UNK         0.5000 
     26 O          -3.1719  -21.6617  -42.8650 O.2       9 UNK        -0.5000 
     27 CA         -3.0704  -19.5690  -41.7058 C.3       9 UNK         0.1400 
     28 CB         -3.0442  -19.8289  -40.1925 C.3       9 UNK        -0.1800 
     29 N          -2.4102  -18.2949  -41.9853 N.am      9 UNK        -0.5000 
     30 C          -2.3739  -17.6950  -43.1836 C.2       8 UNK         0.5000 
     31 O          -2.9621  -18.1233  -44.1760 O.2       8 UNK        -0.5000 
     32 CA         -1.4981  -16.4312  -43.3021 C.3       8 UNK         0.1400 
     33 CB         -2.3557  -15.1592  -43.2319 C.3       8 UNK        -0.1800 
     34 N          -0.4384  -16.3565  -42.2885 N.am      8 UNK        -0.5000 
     35 C           0.6017  -17.1993  -42.2286 C.2       7 UNK         0.5000 
     36 O           0.7385  -18.1460  -43.0060 O.2       7 UNK        -0.5000 
     37 CA          1.6405  -16.9243  -41.1225 C.3       7 UNK         0.1400 
     38 CB          1.0340  -17.0635  -39.7100 C.3       7 UNK        -0.1800 
     39 N           2.8490  -17.7386  -41.2934 N.am      7 UNK        -0.5000 
     40 C           3.0046  -19.0536  -41.0823 C.2       6 UNK         0.5000 
     41 O           2.1733  -19.7712  -40.5236 O.2       6 UNK        -0.5000 
     42 CA          4.3034  -19.6707  -41.6464 C.3       6 UNK         0.1400 
     43 CB          4.5491  -21.1054  -41.1451 C.3       6 UNK        -0.1800 
     44 N           4.2810  -19.6818  -43.1119 N.am      6 UNK        -0.5000 
     45 C           4.4890  -18.6122  -43.8895 C.2       5 UNK         0.5000 
     46 O           4.8287  -17.5143  -43.4415 O.2       5 UNK        -0.5000 
     47 CA          4.2843  -18.7910  -45.4042 C.3       5 UNK         0.1400 
     48 CB          2.9788  -19.5350  -45.7527 C.3       5 UNK        -0.1800 
     49 N           4.2744  -17.4750  -46.0328 N.am      5 UNK        -0.5000 
     50 C           4.6111  -17.2061  -47.2974 C.2       4 UNK         0.5000 
     51 O           4.9894  -18.0630  -48.0976 O.2       4 UNK        -0.5000 
     52 CA          4.4963  -15.7412  -47.7625 C.3       4 UNK         0.1400 
     53 CB          3.2967  -15.5829  -48.7094 C.3       4 UNK        -0.1800 
     54 N           4.3651  -14.7803  -46.6612 N.am      4 UNK        -0.5000 
     55 C           5.3927  -14.3416  -45.9172 C.2       3 UNK         0.5000 
     56 O           6.5472  -14.7461  -46.0609 O.2       3 UNK        -0.5000 
     57 CA          5.1127  -13.2548  -44.8569 C.3       3 UNK         0.1400 
     58 CB          5.6929  -11.9050  -45.3090 C.3       3 UNK        -0.1800 
     59 N           3.6907  -13.0715  -44.5673 N.am      3 UNK        -0.5000 
     60 C           2.9692  -13.8533  -43.7549 C.2       2 UNK         0.5000 
     61 O           3.4429  -14.7849  -43.1084 O.2       2 UNK        -0.5000 
     62 CA          1.4581  -13.5650  -43.6567 C.3       2 UNK         0.1400 
     63 CB          1.1253  -12.8224  -42.3543 C.3       2 UNK        -0.1800 
     64 N           0.8980  -12.8229  -44.7881 N.am      2 UNK        -0.5000 
     65 C           0.8715  -13.2522  -46.0552 C.2       1 UNK         0.5000 
     66 O           1.3911  -14.3092  -46.4097 O.2       1 UNK        -0.5000 
     67 C          -2.9554  -21.2887  -47.0668 C.2       11 UNK         0.5000 
     68 O          -3.1628  -21.8675  -48.1331 O.2       11 UNK        -0.5000 
     69 N          -3.8061  -21.2985  -46.0326 N.am      12 UNK        -0.5000 
     70 CA         -5.0836  -22.0081  -46.0206 C.3       12 UNK         0.1400 
     71 CB         -6.0449  -21.2751  -45.0724 C.3       12 UNK        -0.1800 
     72 C          -4.9484  -23.4869  -45.6100 C.2       12 UNK         0.5000 
     73 O          -5.8033  -24.2880  -45.9864 O.2       12 UNK        -0.5000 
     74 N          -3.9115  -23.8245  -44.8316 N.am      13 UNK        -0.5000 
     75 CA         -3.6918  -25.1681  -44.2936 C.3       13 UNK         0.1400 
     76 CB         -2.9506  -25.0616  -42.9524 C.3       13 UNK        -0.1800 
     77 C          -2.9193  -26.0889  -45.2546 C.2       13 UNK         0.5000 
     78 O          -3.2439  -27.2738  -45.3375 O.2       13 UNK        -0.5000 
     79 N          -1.8977  -25.5444  -45.9311 N.am      14 UNK        -0.5000 
     80 CA         -0.9753  -26.2736  -46.8078 C.3       14 UNK         0.1400 
     81 CB          0.1594  -25.3478  -47.2763 C.3       14 UNK        -0.1800 
     82 C          -1.6045  -27.0530  -47.9900 C.2       14 UNK         0.5000 
     83 O          -1.2547  -28.2206  -48.1568 O.2       14 UNK        -0.5000 
     84 N          -2.5069  -26.4970  -48.8128 N.am      15 UNK        -0.5000 
     85 CA         -2.9700  -25.1171  -48.8925 C.3       15 UNK         0.1400 
     86 CB         -4.5052  -25.1198  -48.9332 C.3       15 UNK        -0.1800 
     87 C          -2.3912  -24.4821  -50.1619 C.2       15 UNK         0.5000 
     88 O          -2.7984  -24.8349  -51.2714 O.2       15 UNK        -0.5000 
     89 N          -1.4683  -23.5317  -49.9782 N.am      16 UNK        -0.5000 
     90 CA         -0.8922  -22.7180  -51.0475 C.3       16 UNK         0.1400 
     91 CB          0.2693  -21.8880  -50.4851 C.3       16 UNK        -0.1800 
     92 C          -1.9380  -21.8141  -51.7262 C.2       16 UNK         0.5000 
     93 O          -1.8336  -21.5702  -52.9266 O.2       16 UNK        -0.5000 
     94 N          -2.9589  -21.3891  -50.9662 N.am      17 UNK        -0.5000 
     95 CA         -4.1112  -20.6391  -51.4636 C.3       17 UNK         0.1400 
     96 CB         -4.9556  -20.1593  -50.2736 C.3       17 UNK        -0.1800 
     97 C          -4.9801  -21.4447  -52.4456 C.2       17 UNK         0.5000 
     98 O          -5.5476  -20.8571  -53.3666 O.2       17 UNK        -0.5000 
     99 N          -5.0588  -22.7682  -52.2492 N.am      18 UNK        -0.5000 
    100 CA        -5.7525  -23.6835  -53.1541 C.3       18 UNK         0.1400 
    101 CB        -6.1285  -24.9726  -52.4095 C.3       18 UNK        -0.1800 
    102 C         -4.8972  -23.9977  -54.3920 C.2       18 UNK         0.5000 
    103 O         -5.4344  -24.0458  -55.4979 O.2       18 UNK        -0.5000 
    104 N         -3.5826  -24.1745  -54.1896 N.am      19 UNK        -0.5000 
    105 CA        -2.6041  -24.4426  -55.2463 C.3       19 UNK         0.1400 
    106 CB        -1.2527  -24.8071  -54.6138 C.3       19 UNK        -0.1800 
    107 C         -2.4499  -23.2683  -56.2316 C.2       19 UNK         0.5000 
    108 O         -2.4377  -23.4879  -57.4432 O.2       19 UNK        -0.5000 
    109 N         -2.3677  -22.0426  -55.6960 N.am      20 UNK        -0.5000 
    110 CA        -2.3279  -20.7975  -56.4677 C.3       20 UNK         0.1400 
    111 CB        -1.7000  -19.6984  -55.5978 C.3       20 UNK        -0.1800 
    112 C         -3.7162  -20.3564  -56.9752 C.2       20 UNK         0.5000 
    113 O         -3.7900  -19.4930  -57.8499 O.2       20 UNK        -0.5000 
    114 N         -4.7807  -20.9461  -56.4112 N.am      21 UNK        -0.5000 
    115 CA        -6.2033  -20.7124  -56.6852 C.3       21 UNK         0.1400 
    116 CB        -6.5540  -21.0780  -58.1424 C.3       21 UNK        -0.1800 
    117 C         -6.7032  -19.3076  -56.2817 C.2       21 UNK         0.5000 
    118 O         -7.7552  -18.8745  -56.7559 O.2       21 UNK        -0.5000 
    119 N         -5.9603  -18.6306  -55.3986 N.am      22 UNK        -0.5000 
    120 CA        -6.3296  -17.3474  -54.7843 C.3       22 UNK         0.1400 
    121 C         -7.2259  -17.4840  -53.5195 C.2       22 UNK         0.5000 
    122 N         -7.3803  -18.6665  -52.9362 N.am      22 UNK        -0.7600 
    123 O         -7.8057  -16.4994  -53.0698 O.2       22 UNK        -0.5000 
    124 C124       -5.0903  -16.4523  -54.5259 C.3       23 UNK        -0.0398 
    125 S125       -3.7615  -17.2473  -53.5535 S.3       23 UNK        -0.2404 
    126 C126       -4.1347  -16.6946  -51.8602 C.3       23 UNK        -0.0205 
    127 H127       -1.3295   -8.2835  -45.9698 H         1 UNK         0.0600 
    128 H128        0.3095   -8.3829  -46.6189 H         1 UNK         0.0600 
    129 H129        0.0476   -8.4354  -44.8732 H         1 UNK         0.0600 
    130 H130        0.7750  -10.3671  -47.4424 H         1 UNK         0.3000 
    131 H131        0.8512  -12.4555  -47.9947 H         1 UNK         0.0600 
    132 H132       -1.9104  -12.7578  -46.7169 H         1 UNK         0.0800 
    133 H133       -1.1510  -14.0112  -47.6392 H         1 UNK         0.0800 
    134 H134       -1.1257  -12.6485  -51.2957 H         1 UNK         0.0800 
    135 H135        0.1464  -13.0124  -50.1662 H         1 UNK         0.0800 
    136 H136       -3.1122  -14.2018  -51.5157 H         1 UNK         0.1150 
    137 H137       -2.3320  -18.3145  -50.5942 H         1 UNK         0.1150 
    138 H138        0.3762  -15.2663  -49.2689 H         1 UNK         0.1150 
    139 H139       -0.1398  -18.9266  -49.6986 H         1 UNK         0.0800 
    140 H140        1.0561  -17.7004  -49.3962 H         1 UNK         0.0800 
    141 H141       -2.4937  -18.5154  -46.6842 H         1 UNK         0.0800 
    142 H142       -2.2785  -19.0239  -48.3288 H         1 UNK         0.0800 
    143 H143       -0.8982  -20.9900  -47.5308 H         1 UNK         0.0600 
    144 H144       -1.0740  -19.7801  -44.9680 H         1 UNK         0.3000 
    145 H145       -0.6684  -22.7138  -43.0072 H         1 UNK         0.0600 
    146 H146        1.3897  -21.7287  -42.1995 H         1 UNK         0.0600 
    147 H147        1.6726  -22.3044  -43.8337 H         1 UNK         0.0600 
    148 H148        1.4463  -20.5838  -43.5358 H         1 UNK         0.0600 
    149 H149       -0.5847  -19.9117  -42.3902 H         1 UNK         0.3000 
    150 H150       -4.1120  -19.4862  -42.0232 H         1 UNK         0.0600 
    151 H151       -3.5473  -20.7657  -39.9490 H         1 UNK         0.0600 
    152 H152       -3.5553  -19.0356  -39.6467 H         1 UNK         0.0600 
    153 H153       -2.0237  -19.8956  -39.8127 H         1 UNK         0.0600 
    154 H154       -1.8994  -17.8713  -41.2255 H         1 UNK         0.3000 
    155 H155       -1.0212  -16.4625  -44.2847 H         1 UNK         0.0600 
    156 H156       -1.7563  -14.2677  -43.4178 H         1 UNK         0.0600 
    157 H157       -2.8335  -15.0485  -42.2578 H         1 UNK         0.0600 
    158 H158       -3.1448  -15.1788  -43.9848 H         1 UNK         0.0600 
    159 H159       -0.5128  -15.6100  -41.6127 H         1 UNK         0.3000 
    160 H160        1.9644  -15.8905  -41.2392 H         1 UNK         0.0600 
    161 H161        0.5311  -18.0207  -39.5703 H         1 UNK         0.0600 
    162 H162        0.2958  -16.2835  -39.5223 H         1 UNK         0.0600 
    163 H163        1.8003  -16.9708  -38.9403 H         1 UNK         0.0600 
    164 H164        3.5758  -17.2902  -41.8441 H         1 UNK         0.3000 
    165 H165        5.1379  -19.0546  -41.3045 H         1 UNK         0.0600 
    166 H166        3.7698  -21.7916  -41.4779 H         1 UNK         0.0600 
    167 H167        5.5056  -21.4879  -41.5017 H         1 UNK         0.0600 
    168 H168        4.5733  -21.1388  -40.0552 H         1 UNK         0.0600 
    169 H169        3.9909  -20.5465  -43.5430 H         1 UNK         0.3000 
    170 H170        5.1361  -19.3615  -45.7796 H         1 UNK         0.0600 
    171 H171        3.0003  -20.5659  -45.4007 H         1 UNK         0.0600 
    172 H172        2.1096  -19.0447  -45.3121 H         1 UNK         0.0600 
    173 H173        2.8195  -19.5759  -46.8304 H         1 UNK         0.0600 
    174 H174        4.0545  -16.7094  -45.4083 H         1 UNK         0.3000 
    175 H175        5.4014  -15.5030  -48.3252 H         1 UNK         0.0600 
    176 H176        2.3727  -15.9078  -48.2313 H         1 UNK         0.0600 
    177 H177        3.1693  -14.5478  -49.0266 H         1 UNK         0.0600 
    178 H178        3.4261  -16.1866  -49.6084 H         1 UNK         0.0600 
    179 H179        3.4269  -14.4454  -46.4695 H         1 UNK         0.3000 
    180 H180        5.6247  -13.5545  -43.9399 H         1 UNK         0.0600 
    181 H181        5.2209  -11.5508  -46.2263 H         1 UNK         0.0600 
    182 H182        6.7641  -11.9829  -45.5002 H         1 UNK         0.0600 
    183 H183        5.5568  -11.1407  -44.5436 H         1 UNK         0.0600 
    184 H184        3.2190  -12.3237  -45.0540 H         1 UNK         0.3000 
    185 H185        0.9599  -14.5333  -43.6392 H         1 UNK         0.0600 
    186 H186        0.0481  -12.7143  -42.2259 H         1 UNK         0.0600 
    187 H187        1.5031  -13.3618  -41.4849 H         1 UNK         0.0600 
    188 H188        1.5666  -11.8252  -42.3393 H         1 UNK         0.0600 
    189 H189        0.3947  -11.9679  -44.5778 H         1 UNK         0.3000 
    190 H190       -3.5502  -20.8122  -45.1843 H         1 UNK         0.3000 
    191 H191       -5.5157  -21.9828  -47.0236 H         1 UNK         0.0600 
    192 H192       -7.0241  -21.7557  -45.0602 H         1 UNK         0.0600 
    193 H193       -6.1944  -20.2414  -45.3847 H         1 UNK         0.0600 
    194 H194       -5.6712  -21.2651  -44.0478 H         1 UNK         0.0600 
    195 H195       -3.2983  -23.0918  -44.4986 H         1 UNK         0.3000 
    196 H196       -4.6602  -25.6330  -44.0956 H         1 UNK         0.0600 
    197 H197       -2.8322  -26.0440  -42.4936 H         1 UNK         0.0600 
    198 H198       -3.4980  -24.4368  -42.2463 H         1 UNK         0.0600 
    199 H199       -1.9549  -24.6369  -43.0755 H         1 UNK         0.0600 
    200 H200       -1.6753  -24.5654  -45.7721 H         1 UNK         0.3000 
    201 H201       -0.5082  -27.0306  -46.1742 H         1 UNK         0.0600 
    202 H202        0.7834  -25.0439  -46.4356 H         1 UNK         0.0600 
    203 H203       -0.2172  -24.4413  -47.7449 H         1 UNK         0.0600 
    204 H204        0.8094  -25.8479  -47.9955 H         1 UNK         0.0600 
    205 H205       -2.8438  -27.0735  -49.5698 H         1 UNK         0.3000 
    206 H206       -2.6624  -24.5184  -48.0399 H         1 UNK         0.0600 
    207 H207       -4.9140  -25.5976  -48.0439 H         1 UNK         0.0600 
    208 H208       -4.8997  -24.1036  -48.9738 H         1 UNK         0.0600 
    209 H209       -4.8914  -25.6641  -49.7942 H         1 UNK         0.0600 
    210 H210       -1.2199  -23.2717  -49.0356 H         1 UNK         0.3000 
    211 H211       -0.4916  -23.3923  -51.8060 H         1 UNK         0.0600 
    212 H212       -0.0583  -21.2350  -49.6783 H         1 UNK         0.0600 
    213 H213        0.7132  -21.2601  -51.2589 H         1 UNK         0.0600 
    214 H214        1.0592  -22.5303  -50.0953 H         1 UNK         0.0600 
    215 H215       -2.9804  -21.6464  -49.9823 H         1 UNK         0.3000 
    216 H216       -3.7358  -19.7673  -52.0002 H         1 UNK         0.0600 
    217 H217       -5.8177  -19.5829  -50.6107 H         1 UNK         0.0600 
    218 H218       -4.3771  -19.5179  -49.6096 H         1 UNK         0.0600 
    219 H219       -5.3325  -20.9965  -49.6847 H         1 UNK         0.0600 
    220 H220       -4.5339  -23.1835  -51.4935 H         1 UNK         0.3000 
    221 H221       -6.6777  -23.2107  -53.4915 H         1 UNK         0.0600 
    222 H222       -5.2476  -25.5465  -52.1225 H         1 UNK         0.0600 
    223 H223       -6.7024  -24.7574  -51.5080 H         1 UNK         0.0600 
    224 H224       -6.7423  -25.6169  -53.0400 H         1 UNK         0.0600 
    225 H225       -3.2341  -24.1651  -53.2380 H         1 UNK         0.3000 
    226 H226       -2.9570  -25.3080  -55.8111 H         1 UNK         0.0600 
    227 H227       -1.3518  -25.6414  -53.9190 H         1 UNK         0.0600 
    228 H228       -0.5335  -25.1024  -55.3786 H         1 UNK         0.0600 
    229 H229       -0.8230  -23.9661  -54.0703 H         1 UNK         0.0600 
    230 H230       -2.3198  -21.9463  -54.6835 H         1 UNK         0.3000 
    231 H231       -1.6906  -20.9433  -57.3423 H         1 UNK         0.0600 
    232 H232       -1.6488  -18.7495  -56.1332 H         1 UNK         0.0600 
    233 H233       -0.6844  -19.9620  -55.3023 H         1 UNK         0.0600 
    234 H234       -2.2775  -19.5328  -54.6885 H         1 UNK         0.0600 
    235 H235       -4.5962  -21.6319  -55.6928 H         1 UNK         0.3000 
    236 H236       -6.7405  -21.4085  -56.0395 H         1 UNK         0.0600 
    237 H237       -6.1993  -22.0779  -58.3927 H         1 UNK         0.0600 
    238 H238       -7.6331  -21.0702  -58.2995 H         1 UNK         0.0600 
    239 H239       -6.1165  -20.3773  -58.8538 H         1 UNK         0.0600 
    240 H240       -5.1419  -19.0834  -55.0169 H         1 UNK         0.3000 
    241 H241       -6.9457  -16.8041  -55.5032 H         1 UNK         0.0600 
    242 H242       -6.8596  -19.4746  -53.2639 H         1 UNK         0.3800 
    243 H243       -7.9800  -18.7465  -52.1314 H         1 UNK         0.3800 
    244 H244       -4.6540  -16.1798  -55.4877 H         1 UNK         0.0800 
    245 H245       -5.3783  -15.5040  -54.0697 H         1 UNK         0.0800 
    246 H246       -4.6479  -17.4925  -51.3245 H         1 UNK         0.0800 
    247 H247       -4.8279  -15.8527  -51.8745 H         1 UNK         0.0800 
@<TRIPOS>BOND
     1    1    2 1    
     2    1  127 1    
     3    1  128 1    
     4    1  129 1    
     5    2    3 2    
     6    2    4 am   BACKBONE|DICT|INTERRES
     7    4    5 1    
     8    4  130 1    
     9    5    6 1    
    10    5   65 1    
    11    5  131 1    
    12    6    7 1    
    13    6  132 1    
    14    6  133 1    
    15    7    8 1    
    16    8    9 1    
    17    8  134 1    
    18    8  135 1    
    19    9   10 ar   
    20    9   14 ar   
    21   10   11 ar   
    22   10  136 1    
    23   11   12 ar   
    24   11  126 1    
    25   12   13 ar   
    26   12  137 1    
    27   13   14 ar   
    28   13   15 1    
    29   14  138 1    
    30   15   16 1    
    31   15  139 1    
    32   15  140 1    
    33   16   17 1    
    34   17   18 1    
    35   17  141 1    
    36   17  142 1    
    37   18   19 1    
    38   18   67 1    
    39   18  143 1    
    40   19   20 am   BACKBONE|DICT|INTERRES
    41   19  144 1    
    42   20   21 2    
    43   20   22 1    
    44   22   23 1    
    45   22   24 1    
    46   22  145 1    
    47   23  146 1    
    48   23  147 1    
    49   23  148 1    
    50   24   25 am   BACKBONE|DICT|INTERRES
    51   24  149 1    
    52   25   26 2    
    53   25   27 1    
    54   27   28 1    
    55   27   29 1    
    56   27  150 1    
    57   28  151 1    
    58   28  152 1    
    59   28  153 1    
    60   29   30 am   BACKBONE|DICT|INTERRES
    61   29  154 1    
    62   30   31 2    
    63   30   32 1    
    64   32   33 1    
    65   32   34 1    
    66   32  155 1    
    67   33  156 1    
    68   33  157 1    
    69   33  158 1    
    70   34   35 am   BACKBONE|DICT|INTERRES
    71   34  159 1    
    72   35   36 2    
    73   35   37 1    
    74   37   38 1    
    75   37   39 1    
    76   37  160 1    
    77   38  161 1    
    78   38  162 1    
    79   38  163 1    
    80   39   40 am   BACKBONE|DICT|INTERRES
    81   39  164 1    
    82   40   41 2    
    83   40   42 1    
    84   42   43 1    
    85   42   44 1    
    86   42  165 1    
    87   43  166 1    
    88   43  167 1    
    89   43  168 1    
    90   44   45 am   BACKBONE|DICT|INTERRES
    91   44  169 1    
    92   45   46 2    
    93   45   47 1    
    94   47   48 1    
    95   47   49 1    
    96   47  170 1    
    97   48  171 1    
    98   48  172 1    
    99   48  173 1    
   100   49   50 am   BACKBONE|DICT|INTERRES
   101   49  174 1    
   102   50   51 2    
   103   50   52 1    
   104   52   53 1    
   105   52   54 1    
   106   52  175 1    
   107   53  176 1    
   108   53  177 1    
   109   53  178 1    
   110   54   55 am   BACKBONE|DICT|INTERRES
   111   54  179 1    
   112   55   56 2    
   113   55   57 1    
   114   57   58 1    
   115   57   59 1    
   116   57  180 1    
   117   58  181 1    
   118   58  182 1    
   119   58  183 1    
   120   59   60 am   BACKBONE|DICT|INTERRES
   121   59  184 1    
   122   60   61 2    
   123   60   62 1    
   124   62   63 1    
   125   62   64 1    
   126   62  185 1    
   127   63  186 1    
   128   63  187 1    
   129   63  188 1    
   130   64   65 am   BACKBONE|DICT|INTERRES
   131   64  189 1    
   132   65   66 2    
   133   67   68 2    
   134   67   69 am   BACKBONE|DICT|INTERRES
   135   69   70 1    
   136   69  190 1    
   137   70   71 1    
   138   70   72 1    
   139   70  191 1    
   140   71  192 1    
   141   71  193 1    
   142   71  194 1    
   143   72   73 2    
   144   72   74 am   BACKBONE|DICT|INTERRES
   145   74   75 1    
   146   74  195 1    
   147   75   76 1    
   148   75   77 1    
   149   75  196 1    
   150   76  197 1    
   151   76  198 1    
   152   76  199 1    
   153   77   78 2    
   154   77   79 am   BACKBONE|DICT|INTERRES
   155   79   80 1    
   156   79  200 1    
   157   80   81 1    
   158   80   82 1    
   159   80  201 1    
   160   81  202 1    
   161   81  203 1    
   162   81  204 1    
   163   82   83 2    
   164   82   84 am   BACKBONE|DICT|INTERRES
   165   84   85 1    
   166   84  205 1    
   167   85   86 1    
   168   85   87 1    
   169   85  206 1    
   170   86  207 1    
   171   86  208 1    
   172   86  209 1    
   173   87   88 2    
   174   87   89 am   BACKBONE|DICT|INTERRES
   175   89   90 1    
   176   89  210 1    
   177   90   91 1    
   178   90   92 1    
   179   90  211 1    
   180   91  212 1    
   181   91  213 1    
   182   91  214 1    
   183   92   93 2    
   184   92   94 am   BACKBONE|DICT|INTERRES
   185   94   95 1    
   186   94  215 1    
   187   95   96 1    
   188   95   97 1    
   189   95  216 1    
   190   96  217 1    
   191   96  218 1    
   192   96  219 1    
   193   97   98 2    
   194   97   99 am   BACKBONE|DICT|INTERRES
   195   99  100 1    
   196   99  220 1    
   197  100  101 1    
   198  100  102 1    
   199  100  221 1    
   200  101  222 1    
   201  101  223 1    
   202  101  224 1    
   203  102  103 2    
   204  102  104 am   BACKBONE|DICT|INTERRES
   205  104  105 1    
   206  104  225 1    
   207  105  106 1    
   208  105  107 1    
   209  105  226 1    
   210  106  227 1    
   211  106  228 1    
   212  106  229 1    
   213  107  108 2    
   214  107  109 am   BACKBONE|DICT|INTERRES
   215  109  110 1    
   216  109  230 1    
   217  110  111 1    
   218  110  112 1    
   219  110  231 1    
   220  111  232 1    
   221  111  233 1    
   222  111  234 1    
   223  112  113 2    
   224  112  114 am   BACKBONE|DICT|INTERRES
   225  114  115 1    
   226  114  235 1    
   227  115  116 1    
   228  115  117 1    
   229  115  236 1    
   230  116  237 1    
   231  116  238 1    
   232  116  239 1    
   233  117  118 2    
   234  117  119 am   BACKBONE|DICT|INTERRES
   235  119  120 1    
   236  119  240 1    
   237  120  121 1    
   238  120  124 1    
   239  120  241 1    
   240  121  122 am   BACKBONE|DICT|INTERRES
   241  121  123 2    
   242  122  242 1    
   243  122  243 1    
   244  124  125 1    
   245  124  244 1    
   246  124  245 1    
   247  125  126 1    
   248  126  246 1    
   249  126  247 1    
@<TRIPOS>SUBSTRUCTURE
     1 UNK         1 GROUP             0       ****    0 ROOT    
