@<TRIPOS>MOLECULE
3R540
247   249    1
SMALL
USER_CHARGES


@<TRIPOS>ATOM
      1 CA          8.3873  -14.6397  -46.7174 C.3       0 UNK        -0.1800 
      2 C           7.0653  -13.8910  -46.6242 C.2       0 UNK         0.5000 
      3 O           6.9725  -12.7585  -47.0967 O.2       0 UNK        -0.5000 
      4 N           6.0505  -14.5260  -46.0218 N.am      1 UNK        -0.5000 
      5 CA          4.6924  -14.0093  -45.8134 C.3       1 UNK         0.1400 
      6 C6          3.8795  -13.8330  -47.1259 C.3       23 UNK        -0.0398 
      7 S7          3.2559  -15.4258  -47.7421 S.3       23 UNK        -0.2404 
      8 C8          4.4266  -15.8052  -49.0717 C.3       23 UNK        -0.0205 
      9 C9          4.0414  -17.1151  -49.7355 C.ar      23 UNK        -0.0193 
     10 C10         3.2659  -17.1160  -50.8974 C.ar      23 UNK        -0.1150 
     11 C11         2.8972  -18.3213  -51.5003 C.ar      23 UNK        -0.0193 
     12 C12         3.3139  -19.5297  -50.9358 C.ar      23 UNK        -0.1150 
     13 C13         4.0638  -19.5431  -49.7542 C.ar      23 UNK        -0.0193 
     14 C14         4.4343  -18.3297  -49.1676 C.ar      23 UNK        -0.1150 
     15 C15         4.4817  -20.8552  -49.0985 C.3       23 UNK        -0.0205 
     16 S16         3.1402  -22.0874  -49.0016 S.3       23 UNK        -0.2404 
     17 C17         1.8318  -21.1664  -48.1181 C.3       23 UNK        -0.0398 
     18 CA          0.7736  -22.1036  -47.4874 C.3       11 UNK         0.1400 
     19 N          -0.0605  -21.4077  -46.5024 N.am      11 UNK        -0.5000 
     20 C          -0.9258  -22.0135  -45.6757 C.2       10 UNK         0.5000 
     21 O          -1.0720  -23.2343  -45.6160 O.2       10 UNK        -0.5000 
     22 CA         -1.8125  -21.1049  -44.8044 C.3       10 UNK         0.1400 
     23 CB         -1.0449  -20.6012  -43.5733 C.3       10 UNK        -0.1800 
     24 N          -2.3567  -19.9704  -45.5521 N.am      10 UNK        -0.5000 
     25 C          -3.2233  -20.0862  -46.5682 C.2       9 UNK         0.5000 
     26 O          -3.7023  -21.1558  -46.9422 O.2       9 UNK        -0.5000 
     27 CA         -3.5879  -18.8038  -47.3325 C.3       9 UNK         0.1400 
     28 CB         -4.7060  -18.0337  -46.6158 C.3       9 UNK        -0.1800 
     29 N          -2.4401  -17.9249  -47.5564 N.am      9 UNK        -0.5000 
     30 C          -1.3555  -18.2454  -48.2784 C.2       8 UNK         0.5000 
     31 O          -1.2326  -19.3091  -48.8815 O.2       8 UNK        -0.5000 
     32 CA         -0.1977  -17.2313  -48.2833 C.3       8 UNK         0.1400 
     33 CB         -0.4752  -16.0815  -49.2626 C.3       8 UNK        -0.1800 
     34 N           0.0588  -16.6982  -46.9446 N.am      8 UNK        -0.5000 
     35 C           0.4756  -17.4444  -45.9113 C.2       7 UNK         0.5000 
     36 O           0.7421  -18.6437  -45.9967 O.2       7 UNK        -0.5000 
     37 CA          0.5460  -16.7522  -44.5402 C.3       7 UNK         0.1400 
     38 CB          1.8775  -16.0147  -44.3553 C.3       7 UNK        -0.1800 
     39 N          -0.5678  -15.8254  -44.3416 N.am      7 UNK        -0.5000 
     40 C          -1.8277  -16.2164  -44.1050 C.2       6 UNK         0.5000 
     41 O          -2.1637  -17.3945  -43.9843 O.2       6 UNK        -0.5000 
     42 CA         -2.8976  -15.1115  -44.0362 C.3       6 UNK         0.1400 
     43 CB         -2.9852  -14.5267  -42.6196 C.3       6 UNK        -0.1800 
     44 N          -2.6579  -14.0356  -44.9999 N.am      6 UNK        -0.5000 
     45 C          -2.7586  -14.1892  -46.3285 C.2       5 UNK         0.5000 
     46 O          -3.0864  -15.2453  -46.8656 O.2       5 UNK        -0.5000 
     47 CA         -2.4006  -12.9845  -47.2179 C.3       5 UNK         0.1400 
     48 CB         -3.6630  -12.1824  -47.5657 C.3       5 UNK        -0.1800 
     49 N          -1.4014  -12.0840  -46.6416 N.am      5 UNK        -0.5000 
     50 C          -0.1584  -12.4289  -46.2800 C.2       4 UNK         0.5000 
     51 O           0.2758  -13.5809  -46.3522 O.2       4 UNK        -0.5000 
     52 CA          0.7523  -11.3111  -45.7296 C.3       4 UNK         0.1400 
     53 CB          0.1021   -9.9089  -45.7051 C.3       4 UNK        -0.1800 
     54 N           1.2888  -11.6442  -44.4081 N.am      4 UNK        -0.5000 
     55 C           0.5923  -11.9238  -43.2948 C.2       3 UNK         0.5000 
     56 O          -0.6390  -11.9492  -43.2558 O.2       3 UNK        -0.5000 
     57 CA          1.3928  -12.2421  -42.0120 C.3       3 UNK         0.1400 
     58 CB          0.8380  -13.4897  -41.3026 C.3       3 UNK        -0.1800 
     59 N           2.8222  -12.4390  -42.2739 N.am      3 UNK        -0.5000 
     60 C           3.7641  -11.4881  -42.1861 C.2       2 UNK         0.5000 
     61 O           3.5439  -10.3391  -41.8030 O.2       2 UNK        -0.5000 
     62 CA          5.1874  -11.8773  -42.6427 C.3       2 UNK         0.1400 
     63 CB          6.0236  -12.3609  -41.4483 C.3       2 UNK        -0.1800 
     64 N           5.2061  -12.9054  -43.6904 N.am      2 UNK        -0.5000 
     65 C           4.6778  -12.7558  -44.9138 C.2       1 UNK         0.5000 
     66 O           4.1662  -11.7053  -45.3046 O.2       1 UNK        -0.5000 
     67 C          -0.0843  -22.8166  -48.5566 C.2       11 UNK         0.5000 
     68 O           0.1762  -23.9791  -48.8687 O.2       11 UNK        -0.5000 
     69 N          -1.1236  -22.1331  -49.0569 N.am      12 UNK        -0.5000 
     70 CA         -2.1039  -22.6862  -49.9888 C.3       12 UNK         0.1400 
     71 CB         -3.0486  -21.5758  -50.4708 C.3       12 UNK        -0.1800 
     72 C          -2.8832  -23.8653  -49.3806 C.2       12 UNK         0.5000 
     73 O          -2.9957  -24.9063  -50.0252 O.2       12 UNK        -0.5000 
     74 N          -3.3538  -23.7151  -48.1339 N.am      13 UNK        -0.5000 
     75 CA         -4.0419  -24.7629  -47.3780 C.3       13 UNK         0.1400 
     76 CB         -4.5870  -24.1887  -46.0624 C.3       13 UNK        -0.1800 
     77 C          -3.1664  -26.0022  -47.1193 C.2       13 UNK         0.5000 
     78 O          -3.6615  -27.1224  -47.2430 O.2       13 UNK        -0.5000 
     79 N          -1.8734  -25.7928  -46.8334 N.am      14 UNK        -0.5000 
     80 CA         -0.8694  -26.8545  -46.7076 C.3       14 UNK         0.1400 
     81 CB          0.4352  -26.2643  -46.1515 C.3       14 UNK        -0.1800 
     82 C          -0.6135  -27.6103  -48.0295 C.2       14 UNK         0.5000 
     83 O          -0.2856  -28.7965  -47.9958 O.2       14 UNK        -0.5000 
     84 N          -0.8126  -26.9275  -49.1647 N.am      15 UNK        -0.5000 
     85 CA         -0.7769  -27.4849  -50.5185 C.3       15 UNK         0.1400 
     86 CB         -0.2624  -26.4016  -51.4826 C.3       15 UNK        -0.1800 
     87 C          -2.1435  -28.0469  -50.9770 C.2       15 UNK         0.5000 
     88 O          -2.2759  -28.4183  -52.1437 O.2       15 UNK        -0.5000 
     89 N          -3.1278  -28.1023  -50.0654 N.am      16 UNK        -0.5000 
     90 CA         -4.5002  -28.5964  -50.2324 C.3       16 UNK         0.1400 
     91 CB         -4.5225  -30.0670  -50.6998 C.3       16 UNK        -0.1800 
     92 C          -5.4149  -27.6856  -51.0796 C.2       16 UNK         0.5000 
     93 O          -6.5021  -28.1150  -51.4695 O.2       16 UNK        -0.5000 
     94 N          -5.0050  -26.4322  -51.3061 N.am      17 UNK        -0.5000 
     95 CA         -5.7989  -25.3785  -51.9323 C.3       17 UNK         0.1400 
     96 CB         -4.9087  -24.6114  -52.9262 C.3       17 UNK        -0.1800 
     97 C          -6.3576  -24.4868  -50.8101 C.2       17 UNK         0.5000 
     98 O          -5.8848  -23.3659  -50.6167 O.2       17 UNK        -0.5000 
     99 N          -7.3042  -25.0549  -50.0480 N.am      18 UNK        -0.5000 
    100 CA        -7.9002  -24.5572  -48.8028 C.3       18 UNK         0.1400 
    101 CB        -9.1432  -25.4051  -48.4843 C.3       18 UNK        -0.1800 
    102 C         -8.2281  -23.0499  -48.7904 C.2       18 UNK         0.5000 
    103 O         -9.2922  -22.6455  -49.2628 O.2       18 UNK        -0.5000 
    104 N         -7.2841  -22.2615  -48.2553 N.am      19 UNK        -0.5000 
    105 CA        -7.3126  -20.8044  -48.1066 C.3       19 UNK         0.1400 
    106 CB        -8.3784  -20.3835  -47.0741 C.3       19 UNK        -0.1800 
    107 C         -7.4271  -20.0353  -49.4414 C.2       19 UNK         0.5000 
    108 O         -7.9906  -18.9403  -49.4700 O.2       19 UNK        -0.5000 
    109 N         -6.8710  -20.6017  -50.5234 N.am      20 UNK        -0.5000 
    110 CA        -6.8907  -20.0166  -51.8696 C.3       20 UNK         0.1400 
    111 CB        -6.5337  -21.1047  -52.8931 C.3       20 UNK        -0.1800 
    112 C         -5.9625  -18.7958  -52.0414 C.2       20 UNK         0.5000 
    113 O         -6.0594  -18.1063  -53.0580 O.2       20 UNK        -0.5000 
    114 N         -5.0625  -18.5700  -51.0708 N.am      21 UNK        -0.5000 
    115 CA        -4.1055  -17.4575  -50.9826 C.3       21 UNK         0.1400 
    116 CB        -4.8381  -16.1386  -50.6660 C.3       21 UNK        -0.1800 
    117 C         -3.1652  -17.3543  -52.2014 C.2       21 UNK         0.5000 
    118 O         -2.7938  -16.2531  -52.6097 O.2       21 UNK        -0.5000 
    119 N         -2.8179  -18.5212  -52.7596 N.am      22 UNK        -0.5000 
    120 CA        -1.9923  -18.7120  -53.9638 C.3       22 UNK         0.1400 
    121 C         -2.6878  -18.2859  -55.2942 C.2       22 UNK         0.5000 
    122 N         -3.9900  -18.0211  -55.3155 N.am      22 UNK        -0.7600 
    123 O         -2.0445  -18.2253  -56.3386 O.2       22 UNK        -0.5000 
    124 C124       -0.5547  -18.1314  -53.8308 C.3       23 UNK        -0.0398 
    125 S125        0.2989  -18.6806  -52.3138 S.3       23 UNK        -0.2404 
    126 C126        2.0263  -18.3187  -52.7448 C.3       23 UNK        -0.0205 
    127 H127        8.3265  -15.6301  -46.2655 H         1 UNK         0.0600 
    128 H128        9.1717  -14.0808  -46.2072 H         1 UNK         0.0600 
    129 H129        8.6767  -14.7603  -47.7613 H         1 UNK         0.0600 
    130 H130        6.2119  -15.4561  -45.6617 H         1 UNK         0.3000 
    131 H131        4.1937  -14.7711  -45.2170 H         1 UNK         0.0600 
    132 H132        4.4549  -13.3163  -47.8946 H         1 UNK         0.0800 
    133 H133        2.9898  -13.2249  -46.9599 H         1 UNK         0.0800 
    134 H134        4.4320  -14.9934  -49.8007 H         1 UNK         0.0800 
    135 H135        5.4370  -15.8719  -48.6659 H         1 UNK         0.0800 
    136 H136        2.9383  -16.1784  -51.3242 H         1 UNK         0.1150 
    137 H137        3.0233  -20.4614  -51.4005 H         1 UNK         0.1150 
    138 H138        5.0167  -18.3259  -48.2568 H         1 UNK         0.1150 
    139 H139        5.3096  -21.2810  -49.6665 H         1 UNK         0.0800 
    140 H140        4.8582  -20.6781  -48.0897 H         1 UNK         0.0800 
    141 H141        1.3671  -20.4508  -48.7992 H         1 UNK         0.0800 
    142 H142        2.3097  -20.5736  -47.3367 H         1 UNK         0.0800 
    143 H143        1.3090  -22.8808  -46.9374 H         1 UNK         0.0600 
    144 H144        0.0322  -20.3966  -46.4589 H         1 UNK         0.3000 
    145 H145       -2.6544  -21.7044  -44.4520 H         1 UNK         0.0600 
    146 H146       -1.6894  -20.0108  -42.9219 H         1 UNK         0.0600 
    147 H147       -0.6636  -21.4360  -42.9840 H         1 UNK         0.0600 
    148 H148       -0.1934  -19.9810  -43.8518 H         1 UNK         0.0600 
    149 H149       -2.0532  -19.0462  -45.2669 H         1 UNK         0.3000 
    150 H150       -3.9667  -19.1112  -48.3075 H         1 UNK         0.0600 
    151 H151       -5.5641  -18.6746  -46.4126 H         1 UNK         0.0600 
    152 H152       -5.0601  -17.2004  -47.2231 H         1 UNK         0.0600 
    153 H153       -4.3678  -17.6315  -45.6611 H         1 UNK         0.0600 
    154 H154       -2.4970  -16.9981  -47.1408 H         1 UNK         0.3000 
    155 H155        0.7045  -17.7496  -48.6170 H         1 UNK         0.0600 
    156 H156       -0.5871  -16.4584  -50.2799 H         1 UNK         0.0600 
    157 H157        0.3458  -15.3641  -49.2705 H         1 UNK         0.0600 
    158 H158       -1.3899  -15.5458  -49.0113 H         1 UNK         0.0600 
    159 H159       -0.0935  -15.7073  -46.8001 H         1 UNK         0.3000 
    160 H160        0.4907  -17.5325  -43.7781 H         1 UNK         0.0600 
    161 H161        1.9161  -15.1087  -44.9585 H         1 UNK         0.0600 
    162 H162        2.7175  -16.6470  -44.6467 H         1 UNK         0.0600 
    163 H163        2.0339  -15.7355  -43.3148 H         1 UNK         0.0600 
    164 H164       -0.3861  -14.8461  -44.5158 H         1 UNK         0.3000 
    165 H165       -3.8613  -15.5677  -44.2720 H         1 UNK         0.0600 
    166 H166       -3.7753  -13.7791  -42.5488 H         1 UNK         0.0600 
    167 H167       -3.2078  -15.3059  -41.8895 H         1 UNK         0.0600 
    168 H168       -2.0497  -14.0554  -42.3200 H         1 UNK         0.0600 
    169 H169       -2.3450  -13.1475  -44.6301 H         1 UNK         0.3000 
    170 H170       -1.9838  -13.3789  -48.1462 H         1 UNK         0.0600 
    171 H171       -4.4184  -12.8225  -48.0241 H         1 UNK         0.0600 
    172 H172       -4.1094  -11.7305  -46.6790 H         1 UNK         0.0600 
    173 H173       -3.4419  -11.3851  -48.2755 H         1 UNK         0.0600 
    174 H174       -1.6810  -11.1212  -46.5234 H         1 UNK         0.3000 
    175 H175        1.6066  -11.2611  -46.4053 H         1 UNK         0.0600 
    176 H176       -0.7716   -9.8689  -45.0536 H         1 UNK         0.0600 
    177 H177        0.8106   -9.1616  -45.3472 H         1 UNK         0.0600 
    178 H178       -0.2074   -9.5975  -46.7036 H         1 UNK         0.0600 
    179 H179        2.3001  -11.6589  -44.3575 H         1 UNK         0.3000 
    180 H180        1.2601  -11.3940  -41.3374 H         1 UNK         0.0600 
    181 H181        0.7947  -14.3515  -41.9671 H         1 UNK         0.0600 
    182 H182       -0.1735  -13.3100  -40.9373 H         1 UNK         0.0600 
    183 H183        1.4462  -13.7586  -40.4388 H         1 UNK         0.0600 
    184 H184        3.0990  -13.3561  -42.5908 H         1 UNK         0.3000 
    185 H185        5.6584  -10.9794  -43.0483 H         1 UNK         0.0600 
    186 H186        6.0518  -11.6068  -40.6606 H         1 UNK         0.0600 
    187 H187        5.6152  -13.2742  -41.0138 H         1 UNK         0.0600 
    188 H188        7.0543  -12.5595  -41.7425 H         1 UNK         0.0600 
    189 H189        5.6312  -13.7888  -43.4475 H         1 UNK         0.3000 
    190 H190       -1.2410  -21.1553  -48.8003 H         1 UNK         0.3000 
    191 H191       -1.5563  -23.0612  -50.8558 H         1 UNK         0.0600 
    192 H192       -2.4880  -20.7391  -50.8865 H         1 UNK         0.0600 
    193 H193       -3.7096  -21.9456  -51.2535 H         1 UNK         0.0600 
    194 H194       -3.6740  -21.1966  -49.6634 H         1 UNK         0.0600 
    195 H195       -3.2532  -22.8131  -47.6747 H         1 UNK         0.3000 
    196 H196       -4.8874  -25.0927  -47.9830 H         1 UNK         0.0600 
    197 H197       -5.1289  -24.9491  -45.4988 H         1 UNK         0.0600 
    198 H198       -5.2768  -23.3648  -46.2424 H         1 UNK         0.0600 
    199 H199       -3.7846  -23.8169  -45.4248 H         1 UNK         0.0600 
    200 H200       -1.5508  -24.8396  -46.6940 H         1 UNK         0.3000 
    201 H201       -1.2451  -27.5811  -45.9843 H         1 UNK         0.0600 
    202 H202        0.2705  -25.7831  -45.1872 H         1 UNK         0.0600 
    203 H203        0.8634  -25.5230  -46.8256 H         1 UNK         0.0600 
    204 H204        1.1838  -27.0434  -46.0031 H         1 UNK         0.0600 
    205 H205       -1.0615  -25.9476  -49.0978 H         1 UNK         0.3000 
    206 H206       -0.0678  -28.3145  -50.5430 H         1 UNK         0.0600 
    207 H207        0.7008  -26.0088  -51.1560 H         1 UNK         0.0600 
    208 H208       -0.1245  -26.8025  -52.4873 H         1 UNK         0.0600 
    209 H209       -0.9549  -25.5635  -51.5576 H         1 UNK         0.0600 
    210 H210       -2.9267  -27.7386  -49.1415 H         1 UNK         0.3000 
    211 H211       -4.9317  -28.5782  -49.2309 H         1 UNK         0.0600 
    212 H212       -4.2006  -30.1705  -51.7361 H         1 UNK         0.0600 
    213 H213       -5.5281  -30.4833  -50.6312 H         1 UNK         0.0600 
    214 H214       -3.8743  -30.6880  -50.0814 H         1 UNK         0.0600 
    215 H215       -4.1324  -26.1181  -50.8862 H         1 UNK         0.3000 
    216 H216       -6.6401  -25.7973  -52.4881 H         1 UNK         0.0600 
    217 H217       -5.4757  -23.8316  -53.4341 H         1 UNK         0.0600 
    218 H218       -4.5165  -25.2782  -53.6940 H         1 UNK         0.0600 
    219 H219       -4.0588  -24.1379  -52.4343 H         1 UNK         0.0600 
    220 H220       -7.6018  -25.9815  -50.3189 H         1 UNK         0.3000 
    221 H221       -7.1793  -24.7434  -48.0062 H         1 UNK         0.0600 
    222 H222       -9.8857  -25.3460  -49.2812 H         1 UNK         0.0600 
    223 H223       -8.8818  -26.4546  -48.3472 H         1 UNK         0.0600 
    224 H224       -9.6219  -25.0686  -47.5636 H         1 UNK         0.0600 
    225 H225       -6.4178  -22.6967  -47.9726 H         1 UNK         0.3000 
    226 H226       -6.3393  -20.5355  -47.6970 H         1 UNK         0.0600 
    227 H227       -8.2512  -20.9220  -46.1349 H         1 UNK         0.0600 
    228 H228       -8.3069  -19.3192  -46.8467 H         1 UNK         0.0600 
    229 H229       -9.3891  -20.5738  -47.4364 H         1 UNK         0.0600 
    230 H230       -6.4621  -21.5299  -50.4390 H         1 UNK         0.3000 
    231 H231       -7.9080  -19.6789  -52.0779 H         1 UNK         0.0600 
    232 H232       -5.5177  -21.4717  -52.7493 H         1 UNK         0.0600 
    233 H233       -6.6029  -20.7240  -53.9129 H         1 UNK         0.0600 
    234 H234       -7.2128  -21.9541  -52.8181 H         1 UNK         0.0600 
    235 H235       -5.0628  -19.2182  -50.2987 H         1 UNK         0.3000 
    236 H236       -3.4570  -17.6761  -50.1380 H         1 UNK         0.0600 
    237 H237       -5.4743  -15.8225  -51.4932 H         1 UNK         0.0600 
    238 H238       -5.4643  -16.2405  -49.7796 H         1 UNK         0.0600 
    239 H239       -4.1292  -15.3337  -50.4677 H         1 UNK         0.0600 
    240 H240       -3.1921  -19.3650  -52.3542 H         1 UNK         0.3000 
    241 H241       -1.8836  -19.7932  -54.0555 H         1 UNK         0.0600 
    242 H242       -4.4233  -17.7590  -56.1866 H         1 UNK         0.3800 
    243 H243       -4.5508  -18.0547  -54.4716 H         1 UNK         0.3800 
    244 H244        0.0498  -18.4325  -54.6880 H         1 UNK         0.0800 
    245 H245       -0.5753  -17.0409  -53.8410 H         1 UNK         0.0800 
    246 H246        2.3886  -19.0603  -53.4582 H         1 UNK         0.0800 
    247 H247        2.0843  -17.3500  -53.2437 H         1 UNK         0.0800 
@<TRIPOS>BOND
     1    1    2 1    
     2    1  127 1    
     3    1  128 1    
     4    1  129 1    
     5    2    3 2    
     6    2    4 am   BACKBONE|DICT|INTERRES
     7    4    5 1    
     8    4  130 1    
     9    5    6 1    
    10    5   65 1    
    11    5  131 1    
    12    6    7 1    
    13    6  132 1    
    14    6  133 1    
    15    7    8 1    
    16    8    9 1    
    17    8  134 1    
    18    8  135 1    
    19    9   10 ar   
    20    9   14 ar   
    21   10   11 ar   
    22   10  136 1    
    23   11   12 ar   
    24   11  126 1    
    25   12   13 ar   
    26   12  137 1    
    27   13   14 ar   
    28   13   15 1    
    29   14  138 1    
    30   15   16 1    
    31   15  139 1    
    32   15  140 1    
    33   16   17 1    
    34   17   18 1    
    35   17  141 1    
    36   17  142 1    
    37   18   19 1    
    38   18   67 1    
    39   18  143 1    
    40   19   20 am   BACKBONE|DICT|INTERRES
    41   19  144 1    
    42   20   21 2    
    43   20   22 1    
    44   22   23 1    
    45   22   24 1    
    46   22  145 1    
    47   23  146 1    
    48   23  147 1    
    49   23  148 1    
    50   24   25 am   BACKBONE|DICT|INTERRES
    51   24  149 1    
    52   25   26 2    
    53   25   27 1    
    54   27   28 1    
    55   27   29 1    
    56   27  150 1    
    57   28  151 1    
    58   28  152 1    
    59   28  153 1    
    60   29   30 am   BACKBONE|DICT|INTERRES
    61   29  154 1    
    62   30   31 2    
    63   30   32 1    
    64   32   33 1    
    65   32   34 1    
    66   32  155 1    
    67   33  156 1    
    68   33  157 1    
    69   33  158 1    
    70   34   35 am   BACKBONE|DICT|INTERRES
    71   34  159 1    
    72   35   36 2    
    73   35   37 1    
    74   37   38 1    
    75   37   39 1    
    76   37  160 1    
    77   38  161 1    
    78   38  162 1    
    79   38  163 1    
    80   39   40 am   BACKBONE|DICT|INTERRES
    81   39  164 1    
    82   40   41 2    
    83   40   42 1    
    84   42   43 1    
    85   42   44 1    
    86   42  165 1    
    87   43  166 1    
    88   43  167 1    
    89   43  168 1    
    90   44   45 am   BACKBONE|DICT|INTERRES
    91   44  169 1    
    92   45   46 2    
    93   45   47 1    
    94   47   48 1    
    95   47   49 1    
    96   47  170 1    
    97   48  171 1    
    98   48  172 1    
    99   48  173 1    
   100   49   50 am   BACKBONE|DICT|INTERRES
   101   49  174 1    
   102   50   51 2    
   103   50   52 1    
   104   52   53 1    
   105   52   54 1    
   106   52  175 1    
   107   53  176 1    
   108   53  177 1    
   109   53  178 1    
   110   54   55 am   BACKBONE|DICT|INTERRES
   111   54  179 1    
   112   55   56 2    
   113   55   57 1    
   114   57   58 1    
   115   57   59 1    
   116   57  180 1    
   117   58  181 1    
   118   58  182 1    
   119   58  183 1    
   120   59   60 am   BACKBONE|DICT|INTERRES
   121   59  184 1    
   122   60   61 2    
   123   60   62 1    
   124   62   63 1    
   125   62   64 1    
   126   62  185 1    
   127   63  186 1    
   128   63  187 1    
   129   63  188 1    
   130   64   65 am   BACKBONE|DICT|INTERRES
   131   64  189 1    
   132   65   66 2    
   133   67   68 2    
   134   67   69 am   BACKBONE|DICT|INTERRES
   135   69   70 1    
   136   69  190 1    
   137   70   71 1    
   138   70   72 1    
   139   70  191 1    
   140   71  192 1    
   141   71  193 1    
   142   71  194 1    
   143   72   73 2    
   144   72   74 am   BACKBONE|DICT|INTERRES
   145   74   75 1    
   146   74  195 1    
   147   75   76 1    
   148   75   77 1    
   149   75  196 1    
   150   76  197 1    
   151   76  198 1    
   152   76  199 1    
   153   77   78 2    
   154   77   79 am   BACKBONE|DICT|INTERRES
   155   79   80 1    
   156   79  200 1    
   157   80   81 1    
   158   80   82 1    
   159   80  201 1    
   160   81  202 1    
   161   81  203 1    
   162   81  204 1    
   163   82   83 2    
   164   82   84 am   BACKBONE|DICT|INTERRES
   165   84   85 1    
   166   84  205 1    
   167   85   86 1    
   168   85   87 1    
   169   85  206 1    
   170   86  207 1    
   171   86  208 1    
   172   86  209 1    
   173   87   88 2    
   174   87   89 am   BACKBONE|DICT|INTERRES
   175   89   90 1    
   176   89  210 1    
   177   90   91 1    
   178   90   92 1    
   179   90  211 1    
   180   91  212 1    
   181   91  213 1    
   182   91  214 1    
   183   92   93 2    
   184   92   94 am   BACKBONE|DICT|INTERRES
   185   94   95 1    
   186   94  215 1    
   187   95   96 1    
   188   95   97 1    
   189   95  216 1    
   190   96  217 1    
   191   96  218 1    
   192   96  219 1    
   193   97   98 2    
   194   97   99 am   BACKBONE|DICT|INTERRES
   195   99  100 1    
   196   99  220 1    
   197  100  101 1    
   198  100  102 1    
   199  100  221 1    
   200  101  222 1    
   201  101  223 1    
   202  101  224 1    
   203  102  103 2    
   204  102  104 am   BACKBONE|DICT|INTERRES
   205  104  105 1    
   206  104  225 1    
   207  105  106 1    
   208  105  107 1    
   209  105  226 1    
   210  106  227 1    
   211  106  228 1    
   212  106  229 1    
   213  107  108 2    
   214  107  109 am   BACKBONE|DICT|INTERRES
   215  109  110 1    
   216  109  230 1    
   217  110  111 1    
   218  110  112 1    
   219  110  231 1    
   220  111  232 1    
   221  111  233 1    
   222  111  234 1    
   223  112  113 2    
   224  112  114 am   BACKBONE|DICT|INTERRES
   225  114  115 1    
   226  114  235 1    
   227  115  116 1    
   228  115  117 1    
   229  115  236 1    
   230  116  237 1    
   231  116  238 1    
   232  116  239 1    
   233  117  118 2    
   234  117  119 am   BACKBONE|DICT|INTERRES
   235  119  120 1    
   236  119  240 1    
   237  120  121 1    
   238  120  124 1    
   239  120  241 1    
   240  121  122 am   BACKBONE|DICT|INTERRES
   241  121  123 2    
   242  122  242 1    
   243  122  243 1    
   244  124  125 1    
   245  124  244 1    
   246  124  245 1    
   247  125  126 1    
   248  126  246 1    
   249  126  247 1    
@<TRIPOS>SUBSTRUCTURE
     1 UNK         1 GROUP             0       ****    0 ROOT    
