@<TRIPOS>MOLECULE
3R540
247   249    1
SMALL
USER_CHARGES


@<TRIPOS>ATOM
      1 CA         -1.1361  -10.5461  -50.3703 C.3       0 UNK        -0.1800 
      2 C          -0.8863  -11.2459  -49.0420 C.2       0 UNK         0.5000 
      3 O          -1.4519  -10.8465  -48.0244 O.2       0 UNK        -0.5000 
      4 N          -0.0383  -12.2825  -49.0506 N.am      1 UNK        -0.5000 
      5 CA          0.2984  -13.1241  -47.8954 C.3       1 UNK         0.1400 
      6 C6          1.5386  -14.0223  -48.1484 C.3       23 UNK        -0.0398 
      7 S7          1.6547  -14.7392  -49.8283 S.3       23 UNK        -0.2404 
      8 C8          1.1457  -16.4703  -49.5946 C.3       23 UNK        -0.0205 
      9 C9          1.8367  -17.3633  -50.6147 C.ar      23 UNK        -0.0193 
     10 C10         1.4657  -17.3208  -51.9632 C.ar      23 UNK        -0.1150 
     11 C11         2.1476  -18.0889  -52.9129 C.ar      23 UNK        -0.0193 
     12 C12         3.1823  -18.9323  -52.4973 C.ar      23 UNK        -0.1150 
     13 C13         3.5582  -18.9899  -51.1520 C.ar      23 UNK        -0.0193 
     14 C14         2.8851  -18.1977  -50.2171 C.ar      23 UNK        -0.1150 
     15 C15         4.7295  -19.8647  -50.7273 C.3       23 UNK        -0.0205 
     16 S16         4.2087  -21.5516  -50.2854 S.3       23 UNK        -0.2404 
     17 C17         3.7111  -21.3228  -48.5451 C.3       23 UNK        -0.0398 
     18 CA          2.6900  -22.3724  -48.0476 C.3       11 UNK         0.1400 
     19 N           2.5841  -22.3236  -46.5883 N.am      11 UNK        -0.5000 
     20 C           2.7389  -23.3647  -45.7599 C.2       10 UNK         0.5000 
     21 O           3.0216  -24.5027  -46.1360 O.2       10 UNK        -0.5000 
     22 CA          2.5445  -23.0997  -44.2498 C.3       10 UNK         0.1400 
     23 CB          3.9036  -22.8787  -43.5683 C.3       10 UNK        -0.1800 
     24 N           1.6768  -21.9584  -43.9491 N.am      10 UNK        -0.5000 
     25 C           0.3903  -21.8556  -44.3071 C.2       9 UNK         0.5000 
     26 O          -0.2325  -22.7578  -44.8635 O.2       9 UNK        -0.5000 
     27 CA         -0.3037  -20.5027  -44.0678 C.3       9 UNK         0.1400 
     28 CB         -1.0860  -20.5211  -42.7482 C.3       9 UNK        -0.1800 
     29 N           0.6013  -19.3483  -44.0807 N.am      9 UNK        -0.5000 
     30 C           1.3884  -18.9724  -45.1000 C.2       8 UNK         0.5000 
     31 O           1.4985  -19.6011  -46.1510 O.2       8 UNK        -0.5000 
     32 CA          2.2150  -17.6962  -44.8969 C.3       8 UNK         0.1400 
     33 CB          1.3238  -16.4459  -44.9812 C.3       8 UNK        -0.1800 
     34 N           2.9143  -17.7354  -43.6153 N.am      8 UNK        -0.5000 
     35 C           4.0404  -18.4301  -43.3972 C.2       7 UNK         0.5000 
     36 O           4.6586  -19.0260  -44.2794 O.2       7 UNK        -0.5000 
     37 CA          4.5525  -18.4893  -41.9451 C.3       7 UNK         0.1400 
     38 CB          5.5177  -17.3272  -41.6669 C.3       7 UNK        -0.1800 
     39 N           3.4757  -18.4656  -40.9535 N.am      7 UNK        -0.5000 
     40 C           2.5707  -19.4401  -40.7846 C.2       6 UNK         0.5000 
     41 O           2.5574  -20.4846  -41.4358 O.2       6 UNK        -0.5000 
     42 CA          1.4621  -19.1729  -39.7475 C.3       6 UNK         0.1400 
     43 CB          1.9262  -19.5910  -38.3444 C.3       6 UNK        -0.1800 
     44 N           1.0061  -17.7778  -39.7133 N.am      6 UNK        -0.5000 
     45 C           0.4936  -17.1145  -40.7577 C.2       5 UNK         0.5000 
     46 O           0.3898  -17.5962  -41.8894 O.2       5 UNK        -0.5000 
     47 CA          0.0695  -15.6612  -40.5147 C.3       5 UNK         0.1400 
     48 CB          1.2950  -14.7340  -40.4546 C.3       5 UNK        -0.1800 
     49 N          -0.7889  -15.2514  -41.6185 N.am      5 UNK        -0.5000 
     50 C          -1.8490  -14.4436  -41.5396 C.2       4 UNK         0.5000 
     51 O          -2.1949  -13.8719  -40.5046 O.2       4 UNK        -0.5000 
     52 CA         -2.6642  -14.2302  -42.8316 C.3       4 UNK         0.1400 
     53 CB         -2.4116  -12.8238  -43.3967 C.3       4 UNK        -0.1800 
     54 N          -2.4001  -15.2174  -43.8852 N.am      4 UNK        -0.5000 
     55 C          -2.8128  -16.4943  -43.8610 C.2       3 UNK         0.5000 
     56 O          -3.3897  -16.9939  -42.8941 O.2       3 UNK        -0.5000 
     57 CA         -2.5385  -17.3538  -45.1201 C.3       3 UNK         0.1400 
     58 CB         -3.5420  -18.5178  -45.2657 C.3       3 UNK        -0.1800 
     59 N          -2.4577  -16.5840  -46.3708 N.am      3 UNK        -0.5000 
     60 C          -3.4139  -15.7995  -46.8919 C.2       2 UNK         0.5000 
     61 O          -4.5303  -15.6654  -46.3884 O.2       2 UNK        -0.5000 
     62 CA         -3.0590  -15.0234  -48.1842 C.3       2 UNK         0.1400 
     63 CB         -4.0322  -13.8558  -48.4424 C.3       2 UNK        -0.1800 
     64 N          -1.6821  -14.5152  -48.3072 N.am      2 UNK        -0.5000 
     65 C          -0.9169  -13.9202  -47.3767 C.2       1 UNK         0.5000 
     66 O          -1.1431  -13.9410  -46.1674 O.2       1 UNK        -0.5000 
     67 C           1.3001  -22.1724  -48.6876 C.2       11 UNK         0.5000 
     68 O           0.9420  -22.9024  -49.6118 O.2       11 UNK        -0.5000 
     69 N           0.5362  -21.1981  -48.1742 N.am      12 UNK        -0.5000 
     70 CA         -0.7783  -20.7947  -48.6715 C.3       12 UNK         0.1400 
     71 CB         -1.1236  -19.4238  -48.0692 C.3       12 UNK        -0.1800 
     72 C          -1.9079  -21.7984  -48.3822 C.2       12 UNK         0.5000 
     73 O          -2.9352  -21.7376  -49.0598 O.2       12 UNK        -0.5000 
     74 N          -1.6985  -22.6869  -47.4011 N.am      13 UNK        -0.5000 
     75 CA         -2.6368  -23.6641  -46.8421 C.3       13 UNK         0.1400 
     76 CB         -3.1927  -24.6055  -47.9303 C.3       13 UNK        -0.1800 
     77 C          -3.7604  -23.0075  -46.0165 C.2       13 UNK         0.5000 
     78 O          -3.8953  -21.7807  -45.9851 O.2       13 UNK        -0.5000 
     79 N          -4.5515  -23.8521  -45.3414 N.am      14 UNK        -0.5000 
     80 CA         -5.7143  -23.4545  -44.5482 C.3       14 UNK         0.1400 
     81 CB         -6.3228  -24.6969  -43.8808 C.3       14 UNK        -0.1800 
     82 C          -6.7608  -22.7326  -45.4146 C.2       14 UNK         0.5000 
     83 O          -7.0997  -23.2255  -46.4924 O.2       14 UNK        -0.5000 
     84 N          -7.2100  -21.5607  -44.9457 N.am      15 UNK        -0.5000 
     85 CA         -8.1437  -20.6472  -45.6176 C.3       15 UNK         0.1400 
     86 CB         -9.5508  -21.2766  -45.6984 C.3       15 UNK        -0.1800 
     87 C          -7.6446  -20.1325  -46.9888 C.2       15 UNK         0.5000 
     88 O          -8.4637  -19.7503  -47.8260 O.2       15 UNK        -0.5000 
     89 N          -6.3157  -20.1303  -47.1911 N.am      16 UNK        -0.5000 
     90 CA         -5.6069  -19.7287  -48.4115 C.3       16 UNK         0.1400 
     91 CB         -5.8341  -18.2302  -48.7055 C.3       16 UNK        -0.1800 
     92 C          -5.9204  -20.6321  -49.6257 C.2       16 UNK         0.5000 
     93 O          -5.8835  -20.1623  -50.7641 O.2       16 UNK        -0.5000 
     94 N          -6.2268  -21.9129  -49.3674 N.am      17 UNK        -0.5000 
     95 CA         -6.6630  -22.8895  -50.3675 C.3       17 UNK         0.1400 
     96 CB         -7.0858  -24.1862  -49.6613 C.3       17 UNK        -0.1800 
     97 C          -5.6368  -23.1902  -51.4770 C.2       17 UNK         0.5000 
     98 O          -6.0461  -23.4334  -52.6127 O.2       17 UNK        -0.5000 
     99 N          -4.3374  -23.1632  -51.1497 N.am      18 UNK        -0.5000 
    100 CA        -3.2569  -23.3495  -52.1199 C.3       18 UNK         0.1400 
    101 CB        -2.0621  -24.0557  -51.4642 C.3       18 UNK        -0.1800 
    102 C         -2.8342  -22.0114  -52.7430 C.2       18 UNK         0.5000 
    103 O         -2.5158  -21.9824  -53.9310 O.2       18 UNK        -0.5000 
    104 N         -2.8949  -20.9203  -51.9619 N.am      19 UNK        -0.5000 
    105 CA        -2.6184  -19.5442  -52.4001 C.3       19 UNK         0.1400 
    106 CB        -2.5516  -18.6045  -51.1878 C.3       19 UNK        -0.1800 
    107 C         -3.5831  -19.0039  -53.4756 C.2       19 UNK         0.5000 
    108 O         -3.2691  -18.0089  -54.1288 O.2       19 UNK        -0.5000 
    109 N         -4.7169  -19.6872  -53.6747 N.am      20 UNK        -0.5000 
    110 CA        -5.6371  -19.4919  -54.7935 C.3       20 UNK         0.1400 
    111 CB        -6.8975  -20.3328  -54.5399 C.3       20 UNK        -0.1800 
    112 C         -5.0220  -19.8380  -56.1692 C.2       20 UNK         0.5000 
    113 O         -5.5457  -19.3782  -57.1851 O.2       20 UNK        -0.5000 
    114 N         -3.9387  -20.6285  -56.1859 N.am      21 UNK        -0.5000 
    115 CA        -3.1854  -21.0017  -57.3786 C.3       21 UNK         0.1400 
    116 CB        -3.4083  -22.4958  -57.6780 C.3       21 UNK        -0.1800 
    117 C         -1.7010  -20.6542  -57.1798 C.2       21 UNK         0.5000 
    118 O         -1.2273  -19.6888  -57.7785 O.2       21 UNK        -0.5000 
    119 N         -1.0145  -21.4515  -56.3478 N.am      22 UNK        -0.5000 
    120 CA         0.4009  -21.3722  -55.9290 C.3       22 UNK         0.1400 
    121 C          1.4845  -21.1808  -57.0373 C.2       22 UNK         0.5000 
    122 N          1.2127  -21.5233  -58.2900 N.am      22 UNK        -0.7600 
    123 O          2.6059  -20.7651  -56.7574 O.2       22 UNK        -0.5000 
    124 C124        0.6172  -20.5070  -54.6550 C.3       23 UNK        -0.0398 
    125 S125        0.2327  -18.7312  -54.8357 S.3       23 UNK        -0.2404 
    126 C126        1.8162  -17.9556  -54.3944 C.3       23 UNK        -0.0205 
    127 H127       -0.8543   -9.4955  -50.3001 H         1 UNK         0.0600 
    128 H128       -2.1936  -10.6004  -50.6290 H         1 UNK         0.0600 
    129 H129       -0.5642  -10.9982  -51.1810 H         1 UNK         0.0600 
    130 H130        0.4039  -12.5554  -49.9178 H         1 UNK         0.3000 
    131 H131        0.5683  -12.4422  -47.0856 H         1 UNK         0.0600 
    132 H132        1.6346  -14.8019  -47.3935 H         1 UNK         0.0800 
    133 H133        2.4318  -13.4087  -48.0239 H         1 UNK         0.0800 
    134 H134        1.3844  -16.8009  -48.5828 H         1 UNK         0.0800 
    135 H135        0.0636  -16.5515  -49.7047 H         1 UNK         0.0800 
    136 H136        0.6713  -16.6595  -52.2801 H         1 UNK         0.1150 
    137 H137        3.7176  -19.5245  -53.2264 H         1 UNK         0.1150 
    138 H138        3.1920  -18.2096  -49.1814 H         1 UNK         0.1150 
    139 H139        5.4511  -19.9282  -51.5432 H         1 UNK         0.0800 
    140 H140        5.2638  -19.4094  -49.8919 H         1 UNK         0.0800 
    141 H141        3.3269  -20.3157  -48.3873 H         1 UNK         0.0800 
    142 H142        4.6212  -21.3876  -47.9468 H         1 UNK         0.0800 
    143 H143        3.0470  -23.3572  -48.3566 H         1 UNK         0.0600 
    144 H144        2.3335  -21.4251  -46.1909 H         1 UNK         0.3000 
    145 H145        2.0835  -23.9904  -43.8184 H         1 UNK         0.0600 
    146 H146        3.7931  -22.7927  -42.4872 H         1 UNK         0.0600 
    147 H147        4.5797  -23.7130  -43.7595 H         1 UNK         0.0600 
    148 H148        4.3895  -21.9707  -43.9284 H         1 UNK         0.0600 
    149 H149        2.0916  -21.1982  -43.4227 H         1 UNK         0.3000 
    150 H150       -1.0227  -20.3658  -44.8764 H         1 UNK         0.0600 
    151 H151       -1.8341  -21.3149  -42.7503 H         1 UNK         0.0600 
    152 H152       -1.6112  -19.5797  -42.5839 H         1 UNK         0.0600 
    153 H153       -0.4269  -20.6924  -41.8979 H         1 UNK         0.0600 
    154 H154        0.5852  -18.7643  -43.2465 H         1 UNK         0.3000 
    155 H155        2.9483  -17.6391  -45.7045 H         1 UNK         0.0600 
    156 H156        0.5917  -16.4033  -44.1768 H         1 UNK         0.0600 
    157 H157        0.7701  -16.4277  -45.9199 H         1 UNK         0.0600 
    158 H158        1.9202  -15.5347  -44.9341 H         1 UNK         0.0600 
    159 H159        2.4352  -17.3291  -42.8242 H         1 UNK         0.3000 
    160 H160        5.1003  -19.4266  -41.8264 H         1 UNK         0.0600 
    161 H161        5.0186  -16.3606  -41.7470 H         1 UNK         0.0600 
    162 H162        6.3459  -17.3291  -42.3768 H         1 UNK         0.0600 
    163 H163        5.9478  -17.4020  -40.6679 H         1 UNK         0.0600 
    164 H164        3.4068  -17.6419  -40.3745 H         1 UNK         0.3000 
    165 H165        0.6045  -19.7913  -40.0158 H         1 UNK         0.0600 
    166 H166        1.1183  -19.5000  -37.6180 H         1 UNK         0.0600 
    167 H167        2.2532  -20.6317  -38.3352 H         1 UNK         0.0600 
    168 H168        2.7612  -18.9812  -37.9971 H         1 UNK         0.0600 
    169 H169        1.0700  -17.3090  -38.8210 H         1 UNK         0.3000 
    170 H170       -0.4801  -15.6163  -39.5722 H         1 UNK         0.0600 
    171 H171        1.9579  -15.0070  -39.6328 H         1 UNK         0.0600 
    172 H172        1.8767  -14.7759  -41.3765 H         1 UNK         0.0600 
    173 H173        0.9954  -13.6977  -40.2969 H         1 UNK         0.0600 
    174 H174       -0.6212  -15.7459  -42.4837 H         1 UNK         0.3000 
    175 H175       -3.7200  -14.3005  -42.5622 H         1 UNK         0.0600 
    176 H176       -1.3665  -12.6871  -43.6776 H         1 UNK         0.0600 
    177 H177       -3.0224  -12.6379  -44.2806 H         1 UNK         0.0600 
    178 H178       -2.6583  -12.0550  -42.6634 H         1 UNK         0.0600 
    179 H179       -1.9457  -14.8618  -44.7238 H         1 UNK         0.3000 
    180 H180       -1.5514  -17.7891  -44.9714 H         1 UNK         0.0600 
    181 H181       -3.3430  -19.1060  -46.1595 H         1 UNK         0.0600 
    182 H182       -4.5705  -18.1612  -45.3267 H         1 UNK         0.0600 
    183 H183       -3.4831  -19.1987  -44.4160 H         1 UNK         0.0600 
    184 H184       -1.5643  -16.5933  -46.8389 H         1 UNK         0.3000 
    185 H185       -3.1881  -15.7407  -48.9961 H         1 UNK         0.0600 
    186 H186       -5.0661  -14.2000  -48.4892 H         1 UNK         0.0600 
    187 H187       -3.9676  -13.1038  -47.6548 H         1 UNK         0.0600 
    188 H188       -3.8161  -13.3635  -49.3906 H         1 UNK         0.0600 
    189 H189       -1.3507  -14.4431  -49.2586 H         1 UNK         0.3000 
    190 H190        0.9126  -20.6260  -47.4201 H         1 UNK         0.3000 
    191 H191       -0.7094  -20.6929  -49.7561 H         1 UNK         0.0600 
    192 H192       -2.1150  -19.0884  -48.3729 H         1 UNK         0.0600 
    193 H193       -0.4078  -18.6659  -48.3838 H         1 UNK         0.0600 
    194 H194       -1.1169  -19.4549  -46.9818 H         1 UNK         0.0600 
    195 H195       -0.8372  -22.6051  -46.8750 H         1 UNK         0.3000 
    196 H196       -2.0512  -24.2698  -46.1495 H         1 UNK         0.0600 
    197 H197       -3.9164  -24.1038  -48.5700 H         1 UNK         0.0600 
    198 H198       -2.3932  -24.9947  -48.5602 H         1 UNK         0.0600 
    199 H199       -3.6984  -25.4641  -47.4882 H         1 UNK         0.0600 
    200 H200       -4.3928  -24.8446  -45.4292 H         1 UNK         0.3000 
    201 H201       -5.3669  -22.7766  -43.7656 H         1 UNK         0.0600 
    202 H202       -6.6625  -25.4245  -44.6193 H         1 UNK         0.0600 
    203 H203       -7.1828  -24.4276  -43.2663 H         1 UNK         0.0600 
    204 H204       -5.6006  -25.1901  -43.2299 H         1 UNK         0.0600 
    205 H205       -6.8520  -21.2324  -44.0594 H         1 UNK         0.3000 
    206 H206       -8.2157  -19.7657  -44.9790 H         1 UNK         0.0600 
    207 H207       -9.8836  -21.6262  -44.7211 H         1 UNK         0.0600 
    208 H208      -10.2863  -20.5512  -46.0481 H         1 UNK         0.0600 
    209 H209       -9.5767  -22.1236  -46.3846 H         1 UNK         0.0600 
    210 H210       -5.7230  -20.5084  -46.4614 H         1 UNK         0.3000 
    211 H211       -4.5471  -19.8611  -48.1967 H         1 UNK         0.0600 
    212 H212       -5.1581  -17.8664  -49.4781 H         1 UNK         0.0600 
    213 H213       -5.6646  -17.6272  -47.8151 H         1 UNK         0.0600 
    214 H214       -6.8494  -18.0340  -49.0505 H         1 UNK         0.0600 
    215 H215       -6.2563  -22.2154  -48.4019 H         1 UNK         0.3000 
    216 H216       -7.5459  -22.4732  -50.8568 H         1 UNK         0.0600 
    217 H217       -6.2707  -24.6113  -49.0750 H         1 UNK         0.0600 
    218 H218       -7.4028  -24.9417  -50.3815 H         1 UNK         0.0600 
    219 H219       -7.9255  -24.0106  -48.9888 H         1 UNK         0.0600 
    220 H220       -4.0650  -22.8790  -50.2138 H         1 UNK         0.3000 
    221 H221       -3.6025  -23.9937  -52.9314 H         1 UNK         0.0600 
    222 H222       -1.2768  -24.2471  -52.1963 H         1 UNK         0.0600 
    223 H223       -2.3559  -25.0179  -51.0453 H         1 UNK         0.0600 
    224 H224       -1.6192  -23.4620  -50.6670 H         1 UNK         0.0600 
    225 H225       -3.1756  -21.0435  -50.9961 H         1 UNK         0.3000 
    226 H226       -1.6309  -19.5450  -52.8569 H         1 UNK         0.0600 
    227 H227       -1.5927  -18.7042  -50.6841 H         1 UNK         0.0600 
    228 H228       -2.6380  -17.5570  -51.4799 H         1 UNK         0.0600 
    229 H229       -3.3435  -18.8153  -50.4720 H         1 UNK         0.0600 
    230 H230       -4.9303  -20.4421  -53.0373 H         1 UNK         0.3000 
    231 H231       -5.9227  -18.4384  -54.8149 H         1 UNK         0.0600 
    232 H232       -6.6683  -21.3988  -54.5097 H         1 UNK         0.0600 
    233 H233       -7.6370  -20.1773  -55.3263 H         1 UNK         0.0600 
    234 H234       -7.3675  -20.0647  -53.5932 H         1 UNK         0.0600 
    235 H235       -3.5497  -20.9459  -55.3034 H         1 UNK         0.3000 
    236 H236       -3.5293  -20.4331  -58.2452 H         1 UNK         0.0600 
    237 H237       -4.4469  -22.6850  -57.9498 H         1 UNK         0.0600 
    238 H238       -2.7895  -22.8253  -58.5135 H         1 UNK         0.0600 
    239 H239       -3.1737  -23.1274  -56.8203 H         1 UNK         0.0600 
    240 H240       -1.5456  -22.1609  -55.8591 H         1 UNK         0.3000 
    241 H241        0.6058  -22.3912  -55.5991 H         1 UNK         0.0600 
    242 H242        1.9201  -21.4115  -58.9992 H         1 UNK         0.3800 
    243 H243        0.2967  -21.8571  -58.5427 H         1 UNK         0.3800 
    244 H244        1.6391  -20.6271  -54.2940 H         1 UNK         0.0800 
    245 H245       -0.0054  -20.8972  -53.8506 H         1 UNK         0.0800 
    246 H246        2.6090  -18.3806  -55.0124 H         1 UNK         0.0800 
    247 H247        1.7681  -16.8967  -54.6518 H         1 UNK         0.0800 
@<TRIPOS>BOND
     1    1    2 1    
     2    1  127 1    
     3    1  128 1    
     4    1  129 1    
     5    2    3 2    
     6    2    4 am   BACKBONE|DICT|INTERRES
     7    4    5 1    
     8    4  130 1    
     9    5    6 1    
    10    5   65 1    
    11    5  131 1    
    12    6    7 1    
    13    6  132 1    
    14    6  133 1    
    15    7    8 1    
    16    8    9 1    
    17    8  134 1    
    18    8  135 1    
    19    9   10 ar   
    20    9   14 ar   
    21   10   11 ar   
    22   10  136 1    
    23   11   12 ar   
    24   11  126 1    
    25   12   13 ar   
    26   12  137 1    
    27   13   14 ar   
    28   13   15 1    
    29   14  138 1    
    30   15   16 1    
    31   15  139 1    
    32   15  140 1    
    33   16   17 1    
    34   17   18 1    
    35   17  141 1    
    36   17  142 1    
    37   18   19 1    
    38   18   67 1    
    39   18  143 1    
    40   19   20 am   BACKBONE|DICT|INTERRES
    41   19  144 1    
    42   20   21 2    
    43   20   22 1    
    44   22   23 1    
    45   22   24 1    
    46   22  145 1    
    47   23  146 1    
    48   23  147 1    
    49   23  148 1    
    50   24   25 am   BACKBONE|DICT|INTERRES
    51   24  149 1    
    52   25   26 2    
    53   25   27 1    
    54   27   28 1    
    55   27   29 1    
    56   27  150 1    
    57   28  151 1    
    58   28  152 1    
    59   28  153 1    
    60   29   30 am   BACKBONE|DICT|INTERRES
    61   29  154 1    
    62   30   31 2    
    63   30   32 1    
    64   32   33 1    
    65   32   34 1    
    66   32  155 1    
    67   33  156 1    
    68   33  157 1    
    69   33  158 1    
    70   34   35 am   BACKBONE|DICT|INTERRES
    71   34  159 1    
    72   35   36 2    
    73   35   37 1    
    74   37   38 1    
    75   37   39 1    
    76   37  160 1    
    77   38  161 1    
    78   38  162 1    
    79   38  163 1    
    80   39   40 am   BACKBONE|DICT|INTERRES
    81   39  164 1    
    82   40   41 2    
    83   40   42 1    
    84   42   43 1    
    85   42   44 1    
    86   42  165 1    
    87   43  166 1    
    88   43  167 1    
    89   43  168 1    
    90   44   45 am   BACKBONE|DICT|INTERRES
    91   44  169 1    
    92   45   46 2    
    93   45   47 1    
    94   47   48 1    
    95   47   49 1    
    96   47  170 1    
    97   48  171 1    
    98   48  172 1    
    99   48  173 1    
   100   49   50 am   BACKBONE|DICT|INTERRES
   101   49  174 1    
   102   50   51 2    
   103   50   52 1    
   104   52   53 1    
   105   52   54 1    
   106   52  175 1    
   107   53  176 1    
   108   53  177 1    
   109   53  178 1    
   110   54   55 am   BACKBONE|DICT|INTERRES
   111   54  179 1    
   112   55   56 2    
   113   55   57 1    
   114   57   58 1    
   115   57   59 1    
   116   57  180 1    
   117   58  181 1    
   118   58  182 1    
   119   58  183 1    
   120   59   60 am   BACKBONE|DICT|INTERRES
   121   59  184 1    
   122   60   61 2    
   123   60   62 1    
   124   62   63 1    
   125   62   64 1    
   126   62  185 1    
   127   63  186 1    
   128   63  187 1    
   129   63  188 1    
   130   64   65 am   BACKBONE|DICT|INTERRES
   131   64  189 1    
   132   65   66 2    
   133   67   68 2    
   134   67   69 am   BACKBONE|DICT|INTERRES
   135   69   70 1    
   136   69  190 1    
   137   70   71 1    
   138   70   72 1    
   139   70  191 1    
   140   71  192 1    
   141   71  193 1    
   142   71  194 1    
   143   72   73 2    
   144   72   74 am   BACKBONE|DICT|INTERRES
   145   74   75 1    
   146   74  195 1    
   147   75   76 1    
   148   75   77 1    
   149   75  196 1    
   150   76  197 1    
   151   76  198 1    
   152   76  199 1    
   153   77   78 2    
   154   77   79 am   BACKBONE|DICT|INTERRES
   155   79   80 1    
   156   79  200 1    
   157   80   81 1    
   158   80   82 1    
   159   80  201 1    
   160   81  202 1    
   161   81  203 1    
   162   81  204 1    
   163   82   83 2    
   164   82   84 am   BACKBONE|DICT|INTERRES
   165   84   85 1    
   166   84  205 1    
   167   85   86 1    
   168   85   87 1    
   169   85  206 1    
   170   86  207 1    
   171   86  208 1    
   172   86  209 1    
   173   87   88 2    
   174   87   89 am   BACKBONE|DICT|INTERRES
   175   89   90 1    
   176   89  210 1    
   177   90   91 1    
   178   90   92 1    
   179   90  211 1    
   180   91  212 1    
   181   91  213 1    
   182   91  214 1    
   183   92   93 2    
   184   92   94 am   BACKBONE|DICT|INTERRES
   185   94   95 1    
   186   94  215 1    
   187   95   96 1    
   188   95   97 1    
   189   95  216 1    
   190   96  217 1    
   191   96  218 1    
   192   96  219 1    
   193   97   98 2    
   194   97   99 am   BACKBONE|DICT|INTERRES
   195   99  100 1    
   196   99  220 1    
   197  100  101 1    
   198  100  102 1    
   199  100  221 1    
   200  101  222 1    
   201  101  223 1    
   202  101  224 1    
   203  102  103 2    
   204  102  104 am   BACKBONE|DICT|INTERRES
   205  104  105 1    
   206  104  225 1    
   207  105  106 1    
   208  105  107 1    
   209  105  226 1    
   210  106  227 1    
   211  106  228 1    
   212  106  229 1    
   213  107  108 2    
   214  107  109 am   BACKBONE|DICT|INTERRES
   215  109  110 1    
   216  109  230 1    
   217  110  111 1    
   218  110  112 1    
   219  110  231 1    
   220  111  232 1    
   221  111  233 1    
   222  111  234 1    
   223  112  113 2    
   224  112  114 am   BACKBONE|DICT|INTERRES
   225  114  115 1    
   226  114  235 1    
   227  115  116 1    
   228  115  117 1    
   229  115  236 1    
   230  116  237 1    
   231  116  238 1    
   232  116  239 1    
   233  117  118 2    
   234  117  119 am   BACKBONE|DICT|INTERRES
   235  119  120 1    
   236  119  240 1    
   237  120  121 1    
   238  120  124 1    
   239  120  241 1    
   240  121  122 am   BACKBONE|DICT|INTERRES
   241  121  123 2    
   242  122  242 1    
   243  122  243 1    
   244  124  125 1    
   245  124  244 1    
   246  124  245 1    
   247  125  126 1    
   248  126  246 1    
   249  126  247 1    
@<TRIPOS>SUBSTRUCTURE
     1 UNK         1 GROUP             0       ****    0 ROOT    
