@<TRIPOS>MOLECULE
3R540
247   249    1
SMALL
USER_CHARGES


@<TRIPOS>ATOM
      1 CA          0.9395  -13.3902  -50.2190 C.3       0 UNK        -0.1800 
      2 C           2.4134  -13.4499  -50.5909 C.2       0 UNK         0.5000 
      3 O           2.7501  -13.4632  -51.7750 O.2       0 UNK        -0.5000 
      4 N           3.2792  -13.4831  -49.5744 N.am      1 UNK        -0.5000 
      5 CA          4.7391  -13.4559  -49.6967 C.3       1 UNK         0.1400 
      6 C6          5.4047  -14.6878  -49.0251 C.3       23 UNK        -0.0398 
      7 S7          4.9734  -16.2426  -49.8742 S.3       23 UNK        -0.2404 
      8 C8          3.6603  -16.8672  -48.7837 C.3       23 UNK        -0.0205 
      9 C9          2.8789  -17.9841  -49.4521 C.ar      23 UNK        -0.0193 
     10 C10         1.8208  -17.6758  -50.3101 C.ar      23 UNK        -0.1150 
     11 C11         1.0739  -18.6925  -50.9099 C.ar      23 UNK        -0.0193 
     12 C12         1.3949  -20.0271  -50.6431 C.ar      23 UNK        -0.1150 
     13 C13         2.4654  -20.3526  -49.8031 C.ar      23 UNK        -0.0193 
     14 C14         3.2082  -19.3211  -49.2156 C.ar      23 UNK        -0.1150 
     15 C15         2.8147  -21.8227  -49.5738 C.3       23 UNK        -0.0205 
     16 S16         3.3684  -22.2357  -47.8802 S.3       23 UNK        -0.2404 
     17 C17         2.0042  -21.5967  -46.8502 C.3       23 UNK        -0.0398 
     18 CA          0.9498  -22.6587  -46.4627 C.3       11 UNK         0.1400 
     19 N           0.1182  -22.2055  -45.3464 N.am      11 UNK        -0.5000 
     20 C          -0.8067  -22.9427  -44.7156 C.2       10 UNK         0.5000 
     21 O          -1.0132  -24.1318  -44.9525 O.2       10 UNK        -0.5000 
     22 CA         -1.6922  -22.2109  -43.6900 C.3       10 UNK         0.1400 
     23 CB         -0.9819  -22.0933  -42.3340 C.3       10 UNK        -0.1800 
     24 N          -2.0973  -20.8829  -44.1543 N.am      10 UNK        -0.5000 
     25 C          -2.8517  -20.6582  -45.2402 C.2       9 UNK         0.5000 
     26 O          -3.3490  -21.5543  -45.9212 O.2       9 UNK        -0.5000 
     27 CA         -3.0358  -19.1917  -45.6674 C.3       9 UNK         0.1400 
     28 CB         -4.1650  -18.5206  -44.8721 C.3       9 UNK        -0.1800 
     29 N          -1.7975  -18.4242  -45.5285 N.am      9 UNK        -0.5000 
     30 C          -0.7246  -18.5899  -46.3159 C.2       8 UNK         0.5000 
     31 O          -0.6930  -19.3737  -47.2640 O.2       8 UNK        -0.5000 
     32 CA          0.5472  -17.8093  -45.9326 C.3       8 UNK         0.1400 
     33 CB          0.5627  -16.4104  -46.5634 C.3       8 UNK        -0.1800 
     34 N           0.7094  -17.6977  -44.4807 N.am      8 UNK        -0.5000 
     35 C           1.0585  -18.7273  -43.6957 C.2       7 UNK         0.5000 
     36 O           1.2846  -19.8570  -44.1251 O.2       7 UNK        -0.5000 
     37 CA          1.1343  -18.4790  -42.1773 C.3       7 UNK         0.1400 
     38 CB          2.5314  -17.9771  -41.7844 C.3       7 UNK        -0.1800 
     39 N           0.1286  -17.5405  -41.6818 N.am      7 UNK        -0.5000 
     40 C          -1.1972  -17.7065  -41.7744 C.2       6 UNK         0.5000 
     41 O          -1.7259  -18.6926  -42.2894 O.2       6 UNK        -0.5000 
     42 CA         -2.0903  -16.5606  -41.2547 C.3       6 UNK         0.1400 
     43 CB         -1.3570  -15.5604  -40.3329 C.3       6 UNK        -0.1800 
     44 N          -2.7497  -15.8443  -42.3524 N.am      6 UNK        -0.5000 
     45 C          -2.1576  -15.2733  -43.4121 C.2       5 UNK         0.5000 
     46 O          -0.9418  -15.3207  -43.6209 O.2       5 UNK        -0.5000 
     47 CA         -3.0965  -14.5838  -44.4244 C.3       5 UNK         0.1400 
     48 CB         -4.0907  -13.6094  -43.7559 C.3       5 UNK        -0.1800 
     49 N          -2.3617  -13.9395  -45.5157 N.am      5 UNK        -0.5000 
     50 C          -1.5702  -12.8623  -45.4512 C.2       4 UNK         0.5000 
     51 O          -1.4428  -12.1482  -44.4517 O.2       4 UNK        -0.5000 
     52 CA         -0.8040  -12.5197  -46.7402 C.3       4 UNK         0.1400 
     53 CB         -1.7365  -11.8444  -47.7598 C.3       4 UNK        -0.1800 
     54 N           0.2862  -11.6034  -46.4132 N.am      4 UNK        -0.5000 
     55 C           1.5875  -11.8909  -46.4886 C.2       3 UNK         0.5000 
     56 O           2.0460  -12.9190  -47.0011 O.2       3 UNK        -0.5000 
     57 CA          2.5393  -10.8524  -45.8726 C.3       3 UNK         0.1400 
     58 CB          2.4810  -10.8773  -44.3351 C.3       3 UNK        -0.1800 
     59 N           3.8890  -11.1667  -46.3139 N.am      3 UNK        -0.5000 
     60 C           4.8916  -10.3075  -46.5225 C.2       2 UNK         0.5000 
     61 O           4.8406   -9.1091  -46.2432 O.2       2 UNK        -0.5000 
     62 CA          6.1601  -10.8914  -47.1820 C.3       2 UNK         0.1400 
     63 CB          7.2172  -11.2243  -46.1180 C.3       2 UNK        -0.1800 
     64 N           5.8748  -12.0983  -47.9682 N.am      2 UNK        -0.5000 
     65 C           5.1902  -12.0990  -49.1226 C.2       1 UNK         0.5000 
     66 O           4.8671  -11.0651  -49.7115 O.2       1 UNK        -0.5000 
     67 C           0.0921  -23.0805  -47.6729 C.2       11 UNK         0.5000 
     68 O           0.2957  -24.1730  -48.1994 O.2       11 UNK        -0.5000 
     69 N          -0.8743  -22.2374  -48.0669 N.am      12 UNK        -0.5000 
     70 CA         -1.8207  -22.5152  -49.1501 C.3       12 UNK         0.1400 
     71 CB         -2.6972  -21.2801  -49.3972 C.3       12 UNK        -0.1800 
     72 C          -2.6900  -23.7578  -48.8831 C.2       12 UNK         0.5000 
     73 O          -2.8835  -24.5704  -49.7886 O.2       12 UNK        -0.5000 
     74 N          -3.1630  -23.9052  -47.6385 N.am      13 UNK        -0.5000 
     75 CA         -3.9088  -25.0716  -47.1703 C.3       13 UNK         0.1400 
     76 CB         -4.4754  -24.7999  -45.7694 C.3       13 UNK        -0.1800 
     77 C          -3.0642  -26.3589  -47.1918 C.2       13 UNK         0.5000 
     78 O          -3.5377  -27.3798  -47.6902 O.2       13 UNK        -0.5000 
     79 N          -1.8183  -26.2807  -46.7011 N.am      14 UNK        -0.5000 
     80 CA         -0.8431  -27.3760  -46.7087 C.3       14 UNK         0.1400 
     81 CB          0.3850  -26.9770  -45.8767 C.3       14 UNK        -0.1800 
     82 C          -0.4227  -27.8035  -48.1283 C.2       14 UNK         0.5000 
     83 O          -0.2420  -28.9959  -48.3769 O.2       14 UNK        -0.5000 
     84 N          -0.3170  -26.8291  -49.0414 N.am      15 UNK        -0.5000 
     85 CA         -0.0686  -27.0255  -50.4713 C.3       15 UNK         0.1400 
     86 CB          0.3908  -25.6905  -51.0808 C.3       15 UNK        -0.1800 
     87 C          -1.2871  -27.5786  -51.2416 C.2       15 UNK         0.5000 
     88 O          -1.1395  -27.9377  -52.4105 O.2       15 UNK        -0.5000 
     89 N          -2.4573  -27.6303  -50.5868 N.am      16 UNK        -0.5000 
     90 CA         -3.7549  -28.0727  -51.1012 C.3       16 UNK         0.1400 
     91 CB         -3.7282  -29.5721  -51.4644 C.3       16 UNK        -0.1800 
     92 C          -4.2856  -27.1747  -52.2371 C.2       16 UNK         0.5000 
     93 O          -4.8896  -27.6722  -53.1892 O.2       16 UNK        -0.5000 
     94 N          -4.0577  -25.8601  -52.1065 N.am      17 UNK        -0.5000 
     95 CA         -4.5640  -24.8230  -53.0053 C.3       17 UNK         0.1400 
     96 CB         -3.9554  -23.4585  -52.6458 C.3       17 UNK        -0.1800 
     97 C          -6.1072  -24.7444  -53.0939 C.2       17 UNK         0.5000 
     98 O          -6.6154  -24.6714  -54.2113 O.2       17 UNK        -0.5000 
     99 N          -6.8859  -24.7778  -51.9985 N.am      18 UNK        -0.5000 
    100 CA        -6.5257  -24.7180  -50.5750 C.3       18 UNK         0.1400 
    101 CB        -7.0906  -25.9686  -49.8791 C.3       18 UNK        -0.1800 
    102 C         -7.0461  -23.4313  -49.9037 C.2       18 UNK         0.5000 
    103 O         -6.9134  -23.2907  -48.6882 O.2       18 UNK        -0.5000 
    104 N         -7.6240  -22.5183  -50.6939 N.am      19 UNK        -0.5000 
    105 CA        -8.2014  -21.2514  -50.2492 C.3       19 UNK         0.1400 
    106 CB        -9.7178  -21.4217  -50.0377 C.3       19 UNK        -0.1800 
    107 C         -7.8436  -20.1495  -51.2600 C.2       19 UNK         0.5000 
    108 O         -8.7218  -19.4371  -51.7504 O.2       19 UNK        -0.5000 
    109 N         -6.5468  -20.0592  -51.5810 N.am      20 UNK        -0.5000 
    110 CA        -5.9669  -19.0395  -52.4545 C.3       20 UNK         0.1400 
    111 CB        -4.5334  -19.4614  -52.8125 C.3       20 UNK        -0.1800 
    112 C         -5.9770  -17.6401  -51.8084 C.2       20 UNK         0.5000 
    113 O         -6.0795  -17.5198  -50.5844 O.2       20 UNK        -0.5000 
    114 N         -5.8228  -16.6056  -52.6469 N.am      21 UNK        -0.5000 
    115 CA        -5.8322  -15.1853  -52.2703 C.3       21 UNK         0.1400 
    116 CB        -5.7279  -14.3340  -53.5453 C.3       21 UNK        -0.1800 
    117 C         -4.7422  -14.7735  -51.2580 C.2       21 UNK         0.5000 
    118 O         -4.9059  -13.7650  -50.5703 O.2       21 UNK        -0.5000 
    119 N         -3.6680  -15.5664  -51.1697 N.am      22 UNK        -0.5000 
    120 CA        -2.6402  -15.4827  -50.1241 C.3       22 UNK         0.1400 
    121 C         -3.1132  -15.9094  -48.7029 C.2       22 UNK         0.5000 
    122 N         -4.2558  -16.5650  -48.5348 N.am      22 UNK        -0.7600 
    123 O         -2.4342  -15.6106  -47.7269 O.2       22 UNK        -0.5000 
    124 C124       -1.3437  -16.2222  -50.5380 C.3       23 UNK        -0.0398 
    125 S125       -1.6069  -17.9670  -51.0061 S.3       23 UNK        -0.2404 
    126 C126       -0.0551  -18.3527  -51.8727 C.3       23 UNK        -0.0205 
    127 H127        0.7205  -14.0515  -49.3803 H         1 UNK         0.0600 
    128 H128        0.3163  -13.6846  -51.0626 H         1 UNK         0.0600 
    129 H129        0.6705  -12.3730  -49.9365 H         1 UNK         0.0600 
    130 H130        2.9126  -13.4078  -48.6286 H         1 UNK         0.3000 
    131 H131        5.0365  -13.4509  -50.7473 H         1 UNK         0.0600 
    132 H132        5.1314  -14.7643  -47.9713 H         1 UNK         0.0800 
    133 H133        6.4918  -14.5983  -49.0609 H         1 UNK         0.0800 
    134 H134        2.9784  -16.0571  -48.5226 H         1 UNK         0.0800 
    135 H135        4.0988  -17.2144  -47.8468 H         1 UNK         0.0800 
    136 H136        1.5863  -16.6415  -50.5164 H         1 UNK         0.1150 
    137 H137        0.8182  -20.8153  -51.1065 H         1 UNK         0.1150 
    138 H138        4.0423  -19.5561  -48.5700 H         1 UNK         0.1150 
    139 H139        1.9634  -22.4572  -49.8236 H         1 UNK         0.0800 
    140 H140        3.6084  -22.0965  -50.2697 H         1 UNK         0.0800 
    141 H141        1.5383  -20.7316  -47.3198 H         1 UNK         0.0800 
    142 H142        2.4792  -21.2156  -45.9465 H         1 UNK         0.0800 
    143 H143        1.4798  -23.5470  -46.1123 H         1 UNK         0.0600 
    144 H144        0.2708  -21.2518  -45.0336 H         1 UNK         0.3000 
    145 H145       -2.5982  -22.8035  -43.5484 H         1 UNK         0.0600 
    146 H146       -1.6168  -21.6014  -41.5967 H         1 UNK         0.0600 
    147 H147       -0.7285  -23.0788  -41.9414 H         1 UNK         0.0600 
    148 H148       -0.0560  -21.5243  -42.4113 H         1 UNK         0.0600 
    149 H149       -1.7828  -20.0882  -43.6046 H         1 UNK         0.3000 
    150 H150       -3.3215  -19.1891  -46.7219 H         1 UNK         0.0600 
    151 H151       -5.0825  -19.1078  -44.9295 H         1 UNK         0.0600 
    152 H152       -4.3923  -17.5339  -45.2717 H         1 UNK         0.0600 
    153 H153       -3.9129  -18.4108  -43.8174 H         1 UNK         0.0600 
    154 H154       -1.7184  -17.8139  -44.7291 H         1 UNK         0.3000 
    155 H155        1.4021  -18.3588  -46.3331 H         1 UNK         0.0600 
    156 H156       -0.2530  -15.7940  -46.1897 H         1 UNK         0.0600 
    157 H157        0.4603  -16.4715  -47.6467 H         1 UNK         0.0600 
    158 H158        1.4968  -15.8895  -46.3529 H         1 UNK         0.0600 
    159 H159        0.4663  -16.8078  -44.0575 H         1 UNK         0.3000 
    160 H160        0.9648  -19.4350  -41.6785 H         1 UNK         0.0600 
    161 H161        2.7482  -17.0035  -42.2259 H         1 UNK         0.0600 
    162 H162        3.3039  -18.6699  -42.1210 H         1 UNK         0.0600 
    163 H163        2.6284  -17.8853  -40.7025 H         1 UNK         0.0600 
    164 H164        0.4727  -16.6794  -41.2830 H         1 UNK         0.3000 
    165 H165       -2.8794  -17.0334  -40.6681 H         1 UNK         0.0600 
    166 H166       -2.0576  -14.8395  -39.9113 H         1 UNK         0.0600 
    167 H167       -0.8822  -16.0713  -39.4942 H         1 UNK         0.0600 
    168 H168       -0.5878  -14.9956  -40.8610 H         1 UNK         0.0600 
    169 H169       -3.7561  -15.7933  -42.2847 H         1 UNK         0.3000 
    170 H170       -3.6768  -15.3739  -44.8992 H         1 UNK         0.0600 
    171 H171       -4.8065  -14.1420  -43.1294 H         1 UNK         0.0600 
    172 H172       -3.5849  -12.8806  -43.1220 H         1 UNK         0.0600 
    173 H173       -4.6669  -13.0616  -44.5018 H         1 UNK         0.0600 
    174 H174       -2.3651  -14.4759  -46.3839 H         1 UNK         0.3000 
    175 H175       -0.4185  -13.4466  -47.1701 H         1 UNK         0.0600 
    176 H176       -2.5400  -12.5176  -48.0617 H         1 UNK         0.0600 
    177 H177       -2.1974  -10.9449  -47.3499 H         1 UNK         0.0600 
    178 H178       -1.1970  -11.5599  -48.6625 H         1 UNK         0.0600 
    179 H179        0.0029  -10.7749  -45.9085 H         1 UNK         0.3000 
    180 H180        2.2542   -9.8642  -46.2399 H         1 UNK         0.0600 
    181 H181        2.7477  -11.8586  -43.9405 H         1 UNK         0.0600 
    182 H182        1.4800  -10.6389  -43.9736 H         1 UNK         0.0600 
    183 H183        3.1639  -10.1460  -43.9025 H         1 UNK         0.0600 
    184 H184        3.9987  -12.1267  -46.6115 H         1 UNK         0.3000 
    185 H185        6.5709  -10.1295  -47.8479 H         1 UNK         0.0600 
    186 H186        6.8642  -11.9875  -45.4233 H         1 UNK         0.0600 
    187 H187        8.1382  -11.5854  -46.5759 H         1 UNK         0.0600 
    188 H188        7.4719  -10.3402  -45.5320 H         1 UNK         0.0600 
    189 H189        6.1318  -12.9762  -47.5419 H         1 UNK         0.3000 
    190 H190       -0.9544  -21.3310  -47.6158 H         1 UNK         0.3000 
    191 H191       -1.2376  -22.7033  -50.0536 H         1 UNK         0.0600 
    192 H192       -3.3509  -21.0671  -48.5517 H         1 UNK         0.0600 
    193 H193       -3.3283  -21.4158  -50.2748 H         1 UNK         0.0600 
    194 H194       -2.0827  -20.3984  -49.5694 H         1 UNK         0.0600 
    195 H195       -3.0097  -23.1583  -46.9665 H         1 UNK         0.3000 
    196 H196       -4.7505  -25.2167  -47.8492 H         1 UNK         0.0600 
    197 H197       -5.0615  -25.6483  -45.4144 H         1 UNK         0.0600 
    198 H198       -5.1322  -23.9296  -45.7753 H         1 UNK         0.0600 
    199 H199       -3.6856  -24.6172  -45.0410 H         1 UNK         0.0600 
    200 H200       -1.5146  -25.4102  -46.2715 H         1 UNK         0.3000 
    201 H201       -1.3107  -28.2389  -46.2303 H         1 UNK         0.0600 
    202 H202        0.1072  -26.7554  -44.8462 H         1 UNK         0.0600 
    203 H203        0.8794  -26.0957  -46.2863 H         1 UNK         0.0600 
    204 H204        1.1187  -27.7835  -45.8498 H         1 UNK         0.0600 
    205 H205       -0.3958  -25.8642  -48.7292 H         1 UNK         0.3000 
    206 H206        0.7419  -27.7484  -50.5824 H         1 UNK         0.0600 
    207 H207        1.2853  -25.3159  -50.5828 H         1 UNK         0.0600 
    208 H208        0.6319  -25.8025  -52.1385 H         1 UNK         0.0600 
    209 H209       -0.3826  -24.9263  -50.9997 H         1 UNK         0.0600 
    210 H210       -2.4702  -27.2984  -49.6304 H         1 UNK         0.3000 
    211 H211       -4.4569  -27.9538  -50.2752 H         1 UNK         0.0600 
    212 H212       -3.0976  -29.7703  -52.3314 H         1 UNK         0.0600 
    213 H213       -4.7295  -29.9339  -51.7004 H         1 UNK         0.0600 
    214 H214       -3.3554  -30.1712  -50.6336 H         1 UNK         0.0600 
    215 H215       -3.5467  -25.5337  -51.2897 H         1 UNK         0.3000 
    216 H216       -4.2013  -25.0809  -54.0025 H         1 UNK         0.0600 
    217 H217       -4.2195  -22.7142  -53.3965 H         1 UNK         0.0600 
    218 H218       -2.8669  -23.5075  -52.6071 H         1 UNK         0.0600 
    219 H219       -4.3082  -23.0913  -51.6834 H         1 UNK         0.0600 
    220 H220       -7.8824  -24.7931  -52.1611 H         1 UNK         0.3000 
    221 H221       -5.4516  -24.6992  -50.4210 H         1 UNK         0.0600 
    222 H222       -8.1796  -25.9972  -49.9299 H         1 UNK         0.0600 
    223 H223       -6.7138  -26.8816  -50.3388 H         1 UNK         0.0600 
    224 H224       -6.8117  -25.9990  -48.8255 H         1 UNK         0.0600 
    225 H225       -7.6545  -22.6883  -51.6896 H         1 UNK         0.3000 
    226 H226       -7.7563  -20.9492  -49.2988 H         1 UNK         0.0600 
    227 H227       -9.9266  -22.1852  -49.2882 H         1 UNK         0.0600 
    228 H228      -10.1720  -20.4934  -49.6893 H         1 UNK         0.0600 
    229 H229      -10.2218  -21.7115  -50.9604 H         1 UNK         0.0600 
    230 H230       -5.8958  -20.6674  -51.1088 H         1 UNK         0.3000 
    231 H231       -6.5579  -18.9943  -53.3718 H         1 UNK         0.0600 
    232 H232       -4.5303  -20.3898  -53.3816 H         1 UNK         0.0600 
    233 H233       -3.9253  -19.6124  -51.9206 H         1 UNK         0.0600 
    234 H234       -4.0351  -18.7099  -53.4261 H         1 UNK         0.0600 
    235 H235       -5.7249  -16.7963  -53.6338 H         1 UNK         0.3000 
    236 H236       -6.7963  -14.9798  -51.8008 H         1 UNK         0.0600 
    237 H237       -5.7630  -13.2694  -53.3097 H         1 UNK         0.0600 
    238 H238       -4.7946  -14.5215  -54.0778 H         1 UNK         0.0600 
    239 H239       -6.5528  -14.5404  -54.2275 H         1 UNK         0.0600 
    240 H240       -3.6206  -16.3808  -51.7635 H         1 UNK         0.3000 
    241 H241       -2.3771  -14.4274  -50.0278 H         1 UNK         0.0600 
    242 H242       -4.5465  -16.8113  -47.6052 H         1 UNK         0.3800 
    243 H243       -4.8371  -16.8300  -49.3254 H         1 UNK         0.3800 
    244 H244       -0.9001  -15.7078  -51.3906 H         1 UNK         0.0800 
    245 H245       -0.6035  -16.1773  -49.7393 H         1 UNK         0.0800 
    246 H246        0.2348  -17.5195  -52.5144 H         1 UNK         0.0800 
    247 H247       -0.2367  -19.1954  -52.5413 H         1 UNK         0.0800 
@<TRIPOS>BOND
     1    1    2 1    
     2    1  127 1    
     3    1  128 1    
     4    1  129 1    
     5    2    3 2    
     6    2    4 am   BACKBONE|DICT|INTERRES
     7    4    5 1    
     8    4  130 1    
     9    5    6 1    
    10    5   65 1    
    11    5  131 1    
    12    6    7 1    
    13    6  132 1    
    14    6  133 1    
    15    7    8 1    
    16    8    9 1    
    17    8  134 1    
    18    8  135 1    
    19    9   10 ar   
    20    9   14 ar   
    21   10   11 ar   
    22   10  136 1    
    23   11   12 ar   
    24   11  126 1    
    25   12   13 ar   
    26   12  137 1    
    27   13   14 ar   
    28   13   15 1    
    29   14  138 1    
    30   15   16 1    
    31   15  139 1    
    32   15  140 1    
    33   16   17 1    
    34   17   18 1    
    35   17  141 1    
    36   17  142 1    
    37   18   19 1    
    38   18   67 1    
    39   18  143 1    
    40   19   20 am   BACKBONE|DICT|INTERRES
    41   19  144 1    
    42   20   21 2    
    43   20   22 1    
    44   22   23 1    
    45   22   24 1    
    46   22  145 1    
    47   23  146 1    
    48   23  147 1    
    49   23  148 1    
    50   24   25 am   BACKBONE|DICT|INTERRES
    51   24  149 1    
    52   25   26 2    
    53   25   27 1    
    54   27   28 1    
    55   27   29 1    
    56   27  150 1    
    57   28  151 1    
    58   28  152 1    
    59   28  153 1    
    60   29   30 am   BACKBONE|DICT|INTERRES
    61   29  154 1    
    62   30   31 2    
    63   30   32 1    
    64   32   33 1    
    65   32   34 1    
    66   32  155 1    
    67   33  156 1    
    68   33  157 1    
    69   33  158 1    
    70   34   35 am   BACKBONE|DICT|INTERRES
    71   34  159 1    
    72   35   36 2    
    73   35   37 1    
    74   37   38 1    
    75   37   39 1    
    76   37  160 1    
    77   38  161 1    
    78   38  162 1    
    79   38  163 1    
    80   39   40 am   BACKBONE|DICT|INTERRES
    81   39  164 1    
    82   40   41 2    
    83   40   42 1    
    84   42   43 1    
    85   42   44 1    
    86   42  165 1    
    87   43  166 1    
    88   43  167 1    
    89   43  168 1    
    90   44   45 am   BACKBONE|DICT|INTERRES
    91   44  169 1    
    92   45   46 2    
    93   45   47 1    
    94   47   48 1    
    95   47   49 1    
    96   47  170 1    
    97   48  171 1    
    98   48  172 1    
    99   48  173 1    
   100   49   50 am   BACKBONE|DICT|INTERRES
   101   49  174 1    
   102   50   51 2    
   103   50   52 1    
   104   52   53 1    
   105   52   54 1    
   106   52  175 1    
   107   53  176 1    
   108   53  177 1    
   109   53  178 1    
   110   54   55 am   BACKBONE|DICT|INTERRES
   111   54  179 1    
   112   55   56 2    
   113   55   57 1    
   114   57   58 1    
   115   57   59 1    
   116   57  180 1    
   117   58  181 1    
   118   58  182 1    
   119   58  183 1    
   120   59   60 am   BACKBONE|DICT|INTERRES
   121   59  184 1    
   122   60   61 2    
   123   60   62 1    
   124   62   63 1    
   125   62   64 1    
   126   62  185 1    
   127   63  186 1    
   128   63  187 1    
   129   63  188 1    
   130   64   65 am   BACKBONE|DICT|INTERRES
   131   64  189 1    
   132   65   66 2    
   133   67   68 2    
   134   67   69 am   BACKBONE|DICT|INTERRES
   135   69   70 1    
   136   69  190 1    
   137   70   71 1    
   138   70   72 1    
   139   70  191 1    
   140   71  192 1    
   141   71  193 1    
   142   71  194 1    
   143   72   73 2    
   144   72   74 am   BACKBONE|DICT|INTERRES
   145   74   75 1    
   146   74  195 1    
   147   75   76 1    
   148   75   77 1    
   149   75  196 1    
   150   76  197 1    
   151   76  198 1    
   152   76  199 1    
   153   77   78 2    
   154   77   79 am   BACKBONE|DICT|INTERRES
   155   79   80 1    
   156   79  200 1    
   157   80   81 1    
   158   80   82 1    
   159   80  201 1    
   160   81  202 1    
   161   81  203 1    
   162   81  204 1    
   163   82   83 2    
   164   82   84 am   BACKBONE|DICT|INTERRES
   165   84   85 1    
   166   84  205 1    
   167   85   86 1    
   168   85   87 1    
   169   85  206 1    
   170   86  207 1    
   171   86  208 1    
   172   86  209 1    
   173   87   88 2    
   174   87   89 am   BACKBONE|DICT|INTERRES
   175   89   90 1    
   176   89  210 1    
   177   90   91 1    
   178   90   92 1    
   179   90  211 1    
   180   91  212 1    
   181   91  213 1    
   182   91  214 1    
   183   92   93 2    
   184   92   94 am   BACKBONE|DICT|INTERRES
   185   94   95 1    
   186   94  215 1    
   187   95   96 1    
   188   95   97 1    
   189   95  216 1    
   190   96  217 1    
   191   96  218 1    
   192   96  219 1    
   193   97   98 2    
   194   97   99 am   BACKBONE|DICT|INTERRES
   195   99  100 1    
   196   99  220 1    
   197  100  101 1    
   198  100  102 1    
   199  100  221 1    
   200  101  222 1    
   201  101  223 1    
   202  101  224 1    
   203  102  103 2    
   204  102  104 am   BACKBONE|DICT|INTERRES
   205  104  105 1    
   206  104  225 1    
   207  105  106 1    
   208  105  107 1    
   209  105  226 1    
   210  106  227 1    
   211  106  228 1    
   212  106  229 1    
   213  107  108 2    
   214  107  109 am   BACKBONE|DICT|INTERRES
   215  109  110 1    
   216  109  230 1    
   217  110  111 1    
   218  110  112 1    
   219  110  231 1    
   220  111  232 1    
   221  111  233 1    
   222  111  234 1    
   223  112  113 2    
   224  112  114 am   BACKBONE|DICT|INTERRES
   225  114  115 1    
   226  114  235 1    
   227  115  116 1    
   228  115  117 1    
   229  115  236 1    
   230  116  237 1    
   231  116  238 1    
   232  116  239 1    
   233  117  118 2    
   234  117  119 am   BACKBONE|DICT|INTERRES
   235  119  120 1    
   236  119  240 1    
   237  120  121 1    
   238  120  124 1    
   239  120  241 1    
   240  121  122 am   BACKBONE|DICT|INTERRES
   241  121  123 2    
   242  122  242 1    
   243  122  243 1    
   244  124  125 1    
   245  124  244 1    
   246  124  245 1    
   247  125  126 1    
   248  126  246 1    
   249  126  247 1    
@<TRIPOS>SUBSTRUCTURE
     1 UNK         1 GROUP             0       ****    0 ROOT    
