@<TRIPOS>MOLECULE
3R540
247   249    1
SMALL
USER_CHARGES


@<TRIPOS>ATOM
      1 CA         -3.8853  -13.1031  -48.1252 C.3       0 UNK        -0.1800 
      2 C          -2.5217  -12.6476  -47.6278 C.2       0 UNK         0.5000 
      3 O          -2.0654  -13.1276  -46.5930 O.2       0 UNK        -0.5000 
      4 N          -1.8835  -11.7268  -48.3627 N.am      1 UNK        -0.5000 
      5 CA         -0.5659  -11.1246  -48.1097 C.3       1 UNK         0.1400 
      6 C6          0.6135  -11.9393  -48.7212 C.3       23 UNK        -0.0398 
      7 S7          1.0683  -13.5087  -47.8959 S.3       23 UNK        -0.2404 
      8 C8          1.6779  -14.4949  -49.3110 C.3       23 UNK        -0.0205 
      9 C9          0.7139  -15.5495  -49.8599 C.ar      23 UNK        -0.0193 
     10 C10         1.2188  -16.5064  -50.7476 C.ar      23 UNK        -0.1150 
     11 C11         0.4186  -17.5572  -51.2089 C.ar      23 UNK        -0.0193 
     12 C12        -0.9110  -17.6402  -50.7892 C.ar      23 UNK        -0.1150 
     13 C13        -1.4394  -16.6797  -49.9218 C.ar      23 UNK        -0.0193 
     14 C14        -0.6303  -15.6323  -49.4734 C.ar      23 UNK        -0.1150 
     15 C15        -2.8752  -16.7887  -49.4407 C.3       23 UNK        -0.0205 
     16 S16        -2.9428  -17.2537  -47.6790 S.3       23 UNK        -0.2404 
     17 C17        -4.3772  -18.3836  -47.6522 C.3       23 UNK        -0.0398 
     18 CA         -4.0192  -19.8773  -47.4175 C.3       11 UNK         0.1400 
     19 N          -2.7458  -20.2825  -48.0286 N.am      11 UNK        -0.5000 
     20 C          -2.3626  -21.5483  -48.2323 C.2       10 UNK         0.5000 
     21 O          -3.0830  -22.5170  -47.9937 O.2       10 UNK        -0.5000 
     22 CA         -0.9320  -21.7875  -48.7501 C.3       10 UNK         0.1400 
     23 CB         -0.9428  -21.9079  -50.2792 C.3       10 UNK        -0.1800 
     24 N           0.0578  -20.7779  -48.3623 N.am      10 UNK        -0.5000 
     25 C           0.3519  -20.3904  -47.1141 C.2       9 UNK         0.5000 
     26 O          -0.2672  -20.7602  -46.1147 O.2       9 UNK        -0.5000 
     27 CA          1.4937  -19.3730  -46.9838 C.3       9 UNK         0.1400 
     28 CB          0.9721  -17.9751  -47.3224 C.3       9 UNK        -0.1800 
     29 N           2.0757  -19.3715  -45.6417 N.am      9 UNK        -0.5000 
     30 C           2.9855  -20.2642  -45.2296 C.2       8 UNK         0.5000 
     31 O           3.4056  -21.1776  -45.9423 O.2       8 UNK        -0.5000 
     32 CA          3.5642  -20.1121  -43.8102 C.3       8 UNK         0.1400 
     33 CB          4.9465  -19.4421  -43.8651 C.3       8 UNK        -0.1800 
     34 N           2.7150  -19.3584  -42.8877 N.am      8 UNK        -0.5000 
     35 C           1.6747  -19.8912  -42.2273 C.2       7 UNK         0.5000 
     36 O           1.2883  -21.0452  -42.4176 O.2       7 UNK        -0.5000 
     37 CA          0.9714  -19.0436  -41.1433 C.3       7 UNK         0.1400 
     38 CB          0.9268  -19.8061  -39.8015 C.3       7 UNK        -0.1800 
     39 N           1.5944  -17.7319  -40.9619 N.am      7 UNK        -0.5000 
     40 C           1.0825  -16.6824  -40.3110 C.2       6 UNK         0.5000 
     41 O           0.0330  -16.7182  -39.6675 O.2       6 UNK        -0.5000 
     42 CA          1.8722  -15.3580  -40.4031 C.3       6 UNK         0.1400 
     43 CB          3.1463  -15.3929  -39.5372 C.3       6 UNK        -0.1800 
     44 N           2.1604  -14.9442  -41.7826 N.am      6 UNK        -0.5000 
     45 C           2.9248  -15.5501  -42.7027 C.2       5 UNK         0.5000 
     46 O           3.6428  -16.5275  -42.4746 O.2       5 UNK        -0.5000 
     47 CA          2.7317  -15.0422  -44.1456 C.3       5 UNK         0.1400 
     48 CB          3.5778  -15.8053  -45.1835 C.3       5 UNK        -0.1800 
     49 N           1.3130  -15.0675  -44.5206 N.am      5 UNK        -0.5000 
     50 C           0.4745  -16.1144  -44.4509 C.2       4 UNK         0.5000 
     51 O           0.8248  -17.2567  -44.1516 O.2       4 UNK        -0.5000 
     52 CA         -1.0053  -15.8239  -44.7655 C.3       4 UNK         0.1400 
     53 CB         -1.9561  -16.9256  -44.2538 C.3       4 UNK        -0.1800 
     54 N          -1.4273  -14.4989  -44.3055 N.am      4 UNK        -0.5000 
     55 C          -1.4638  -14.0404  -43.0472 C.2       3 UNK         0.5000 
     56 O          -1.2000  -14.7209  -42.0561 O.2       3 UNK        -0.5000 
     57 CA         -1.8010  -12.5424  -42.8959 C.3       3 UNK         0.1400 
     58 CB         -1.8072  -12.0728  -41.4260 C.3       3 UNK        -0.1800 
     59 N          -0.9178  -11.6865  -43.6980 N.am      3 UNK        -0.5000 
     60 C           0.4214  -11.6308  -43.6586 C.2       2 UNK         0.5000 
     61 O           1.1159  -12.3432  -42.9301 O.2       2 UNK        -0.5000 
     62 CA          1.0894  -10.6344  -44.6310 C.3       2 UNK         0.1400 
     63 CB          2.6219  -10.6032  -44.4869 C.3       2 UNK        -0.1800 
     64 N           0.7614  -10.9429  -46.0233 N.am      2 UNK        -0.5000 
     65 C          -0.3784  -10.6288  -46.6514 C.2       1 UNK         0.5000 
     66 O          -1.2744   -9.9682  -46.1186 O.2       1 UNK        -0.5000 
     67 C          -4.1697  -20.3133  -45.9415 C.2       11 UNK         0.5000 
     68 O          -5.3031  -20.4240  -45.4726 O.2       11 UNK        -0.5000 
     69 N          -3.0551  -20.6051  -45.2585 N.am      12 UNK        -0.5000 
     70 CA         -3.0323  -21.2237  -43.9355 C.3       12 UNK         0.1400 
     71 CB         -2.1508  -20.3853  -42.9967 C.3       12 UNK        -0.1800 
     72 C          -2.5177  -22.6697  -44.0261 C.2       12 UNK         0.5000 
     73 O          -3.1742  -23.5828  -43.5256 O.2       12 UNK        -0.5000 
     74 N          -1.3565  -22.8545  -44.6672 N.am      13 UNK        -0.5000 
     75 CA         -0.5916  -24.1022  -44.6879 C.3       13 UNK         0.1400 
     76 CB          0.8285  -23.8011  -45.1919 C.3       13 UNK        -0.1800 
     77 C          -1.2232  -25.2336  -45.5196 C.2       13 UNK         0.5000 
     78 O          -0.9680  -26.4022  -45.2258 O.2       13 UNK        -0.5000 
     79 N          -2.0192  -24.8798  -46.5358 N.am      14 UNK        -0.5000 
     80 CA         -2.6810  -25.8141  -47.4501 C.3       14 UNK         0.1400 
     81 CB         -2.0445  -25.6839  -48.8467 C.3       14 UNK        -0.1800 
     82 C          -4.2014  -25.5770  -47.4923 C.2       14 UNK         0.5000 
     83 O          -4.8534  -26.0082  -48.4438 O.2       14 UNK        -0.5000 
     84 N          -4.7398  -24.8647  -46.4884 N.am      15 UNK        -0.5000 
     85 CA         -6.1546  -24.5067  -46.3129 C.3       15 UNK         0.1400 
     86 CB         -6.9667  -25.7546  -45.9096 C.3       15 UNK        -0.1800 
     87 C          -6.7731  -23.7639  -47.5210 C.2       15 UNK         0.5000 
     88 O          -7.9704  -23.8969  -47.7788 O.2       15 UNK        -0.5000 
     89 N          -5.9329  -23.0131  -48.2481 N.am      16 UNK        -0.5000 
     90 CA         -6.2250  -22.2658  -49.4738 C.3       16 UNK         0.1400 
     91 CB         -7.3187  -21.2006  -49.2462 C.3       16 UNK        -0.1800 
     92 C          -6.4962  -23.1382  -50.7155 C.2       16 UNK         0.5000 
     93 O          -6.9310  -22.5991  -51.7337 O.2       16 UNK        -0.5000 
     94 N          -6.1939  -24.4444  -50.6556 N.am      17 UNK        -0.5000 
     95 CA         -6.3250  -25.3565  -51.7952 C.3       17 UNK         0.1400 
     96 CB         -6.2580  -26.8119  -51.3086 C.3       17 UNK        -0.1800 
     97 C          -5.2565  -25.0910  -52.8715 C.2       17 UNK         0.5000 
     98 O          -5.5754  -25.0773  -54.0606 O.2       17 UNK        -0.5000 
     99 N          -4.0128  -24.8590  -52.4286 N.am      18 UNK        -0.5000 
    100 CA        -2.8681  -24.5708  -53.2962 C.3       18 UNK         0.1400 
    101 CB        -1.5904  -25.1135  -52.6375 C.3       18 UNK        -0.1800 
    102 C         -2.7156  -23.0720  -53.6156 C.2       18 UNK         0.5000 
    103 O         -1.9860  -22.7299  -54.5459 O.2       18 UNK        -0.5000 
    104 N         -3.4006  -22.1974  -52.8625 N.am      19 UNK        -0.5000 
    105 CA        -3.3020  -20.7324  -52.9485 C.3       19 UNK         0.1400 
    106 CB        -4.0781  -20.1026  -51.7819 C.3       19 UNK        -0.1800 
    107 C         -3.7561  -20.1244  -54.2904 C.2       19 UNK         0.5000 
    108 O         -3.4346  -18.9697  -54.5694 O.2       19 UNK        -0.5000 
    109 N         -4.4676  -20.9114  -55.1075 N.am      20 UNK        -0.5000 
    110 CA        -4.8309  -20.5767  -56.4836 C.3       20 UNK         0.1400 
    111 CB        -5.8571  -21.6045  -56.9851 C.3       20 UNK        -0.1800 
    112 C         -3.6202  -20.5130  -57.4400 C.2       20 UNK         0.5000 
    113 O         -3.7169  -19.8529  -58.4757 O.2       20 UNK        -0.5000 
    114 N         -2.5190  -21.1947  -57.0908 N.am      21 UNK        -0.5000 
    115 CA        -1.2903  -21.2567  -57.8847 C.3       21 UNK         0.1400 
    116 CB        -1.1615  -22.6646  -58.4888 C.3       21 UNK        -0.1800 
    117 C         -0.0314  -20.9069  -57.0712 C.2       21 UNK         0.5000 
    118 O          0.9345  -20.4195  -57.6596 O.2       21 UNK        -0.5000 
    119 N         -0.0436  -21.1777  -55.7575 N.am      22 UNK        -0.5000 
    120 CA         1.1000  -21.0689  -54.8310 C.3       22 UNK         0.1400 
    121 C          2.2410  -22.1009  -55.1027 C.2       22 UNK         0.5000 
    122 N          1.9911  -23.1886  -55.8223 N.am      22 UNK        -0.7600 
    123 O          3.3627  -21.9395  -54.6295 O.2       22 UNK        -0.5000 
    124 C124        1.6263  -19.6144  -54.6519 C.3       23 UNK        -0.0398 
    125 S125        0.4258  -18.5137  -53.8252 S.3       23 UNK        -0.2404 
    126 C126        1.0123  -18.6344  -52.1050 C.3       23 UNK        -0.0205 
    127 H127       -4.6739  -12.5634  -47.6013 H         1 UNK         0.0600 
    128 H128       -4.0188  -14.1679  -47.9347 H         1 UNK         0.0600 
    129 H129       -4.0002  -12.9327  -49.1958 H         1 UNK         0.0600 
    130 H130       -2.3546  -11.3676  -49.1807 H         1 UNK         0.3000 
    131 H131       -0.5975  -10.1973  -48.6838 H         1 UNK         0.0600 
    132 H132        0.3717  -12.1580  -49.7622 H         1 UNK         0.0800 
    133 H133        1.5081  -11.3160  -48.7642 H         1 UNK         0.0800 
    134 H134        2.5810  -15.0059  -48.9739 H         1 UNK         0.0800 
    135 H135        1.9913  -13.8367  -50.1222 H         1 UNK         0.0800 
    136 H136        2.2553  -16.4535  -51.0506 H         1 UNK         0.1150 
    137 H137       -1.5280  -18.4577  -51.1331 H         1 UNK         0.1150 
    138 H138       -1.0519  -14.9138  -48.7873 H         1 UNK         0.1150 
    139 H139       -3.3855  -15.8363  -49.5860 H         1 UNK         0.0800 
    140 H140       -3.4099  -17.5172  -50.0495 H         1 UNK         0.0800 
    141 H141       -4.9176  -18.2946  -48.5949 H         1 UNK         0.0800 
    142 H142       -5.0818  -18.0190  -46.9023 H         1 UNK         0.0800 
    143 H143       -4.7908  -20.4435  -47.9327 H         1 UNK         0.0600 
    144 H144       -2.0956  -19.5340  -48.2223 H         1 UNK         0.3000 
    145 H145       -0.6015  -22.7415  -48.3351 H         1 UNK         0.0600 
    146 H146        0.0115  -22.2760  -50.6562 H         1 UNK         0.0600 
    147 H147       -1.7129  -22.6039  -50.6095 H         1 UNK         0.0600 
    148 H148       -1.1443  -20.9480  -50.7533 H         1 UNK         0.0600 
    149 H149        0.6077  -20.3952  -49.1169 H         1 UNK         0.3000 
    150 H150        2.2746  -19.6271  -47.7037 H         1 UNK         0.0600 
    151 H151        0.6971  -17.9297  -48.3723 H         1 UNK         0.0600 
    152 H152        1.7207  -17.2028  -47.1482 H         1 UNK         0.0600 
    153 H153        0.0777  -17.7302  -46.7523 H         1 UNK         0.0600 
    154 H154        1.7148  -18.6803  -44.9877 H         1 UNK         0.3000 
    155 H155        3.7035  -21.1193  -43.4113 H         1 UNK         0.0600 
    156 H156        4.8869  -18.4238  -44.2492 H         1 UNK         0.0600 
    157 H157        5.6263  -19.9976  -44.5123 H         1 UNK         0.0600 
    158 H158        5.4030  -19.3990  -42.8761 H         1 UNK         0.0600 
    159 H159        2.9598  -18.3835  -42.7670 H         1 UNK         0.3000 
    160 H160       -0.0503  -18.8806  -41.4906 H         1 UNK         0.0600 
    161 H161        1.9284  -19.9581  -39.3982 H         1 UNK         0.0600 
    162 H162        0.4671  -20.7882  -39.9192 H         1 UNK         0.0600 
    163 H163        0.3413  -19.2752  -39.0517 H         1 UNK         0.0600 
    164 H164        2.4614  -17.5644  -41.4607 H         1 UNK         0.3000 
    165 H165        1.2239  -14.5789  -39.9986 H         1 UNK         0.0600 
    166 H166        3.8464  -16.1623  -39.8630 H         1 UNK         0.0600 
    167 H167        3.6654  -14.4349  -39.5633 H         1 UNK         0.0600 
    168 H168        2.8991  -15.6010  -38.4956 H         1 UNK         0.0600 
    169 H169        1.5948  -14.1663  -42.1107 H         1 UNK         0.3000 
    170 H170        3.0489  -13.9990  -44.1582 H         1 UNK         0.0600 
    171 H171        4.6399  -15.7399  -44.9454 H         1 UNK         0.0600 
    172 H172        3.3155  -16.8615  -45.2231 H         1 UNK         0.0600 
    173 H173        3.4406  -15.3905  -46.1821 H         1 UNK         0.0600 
    174 H174        0.9087  -14.1719  -44.7514 H         1 UNK         0.3000 
    175 H175       -1.0810  -15.7952  -45.8528 H         1 UNK         0.0600 
    176 H176       -1.8731  -17.0636  -43.1756 H         1 UNK         0.0600 
    177 H177       -2.9948  -16.6920  -44.4869 H         1 UNK         0.0600 
    178 H178       -1.7273  -17.8826  -44.7244 H         1 UNK         0.0600 
    179 H179       -1.6621  -13.8550  -45.0631 H         1 UNK         0.3000 
    180 H180       -2.8090  -12.4099  -43.2918 H         1 UNK         0.0600 
    181 H181       -0.8297  -12.1923  -40.9574 H         1 UNK         0.0600 
    182 H182       -2.5244  -12.6454  -40.8368 H         1 UNK         0.0600 
    183 H183       -2.0892  -11.0228  -41.3492 H         1 UNK         0.0600 
    184 H184       -1.3782  -11.1000  -44.3864 H         1 UNK         0.3000 
    185 H185        0.7125   -9.6393  -44.3857 H         1 UNK         0.0600 
    186 H186        2.9147  -10.3613  -43.4643 H         1 UNK         0.0600 
    187 H187        3.0719  -11.5635  -44.7406 H         1 UNK         0.0600 
    188 H188        3.0622   -9.8462  -45.1361 H         1 UNK         0.0600 
    189 H189        1.4140  -11.5422  -46.5100 H         1 UNK         0.3000 
    190 H190       -2.1555  -20.5093  -45.7195 H         1 UNK         0.3000 
    191 H191       -4.0340  -21.2623  -43.5026 H         1 UNK         0.0600 
    192 H192       -1.9991  -20.8873  -42.0403 H         1 UNK         0.0600 
    193 H193       -2.6139  -19.4218  -42.7867 H         1 UNK         0.0600 
    194 H194       -1.1685  -20.1958  -43.4307 H         1 UNK         0.0600 
    195 H195       -0.8919  -22.0462  -45.0784 H         1 UNK         0.3000 
    196 H196       -0.5147  -24.4597  -43.6590 H         1 UNK         0.0600 
    197 H197        0.8223  -23.4339  -46.2187 H         1 UNK         0.0600 
    198 H198        1.3152  -23.0474  -44.5719 H         1 UNK         0.0600 
    199 H199        1.4526  -24.6951  -45.1661 H         1 UNK         0.0600 
    200 H200       -2.2009  -23.8981  -46.7082 H         1 UNK         0.3000 
    201 H201       -2.5464  -26.8431  -47.1120 H         1 UNK         0.0600 
    202 H202       -2.2304  -24.7034  -49.2832 H         1 UNK         0.0600 
    203 H203       -2.4456  -26.4301  -49.5337 H         1 UNK         0.0600 
    204 H204       -0.9656  -25.8326  -48.8041 H         1 UNK         0.0600 
    205 H205       -4.1179  -24.5537  -45.7547 H         1 UNK         0.3000 
    206 H206       -6.1892  -23.8035  -45.4794 H         1 UNK         0.0600 
    207 H207       -6.5256  -26.2488  -45.0440 H         1 UNK         0.0600 
    208 H208       -7.9902  -25.4895  -45.6421 H         1 UNK         0.0600 
    209 H209       -7.0172  -26.4813  -46.7212 H         1 UNK         0.0600 
    210 H210       -4.9554  -23.0005  -47.9686 H         1 UNK         0.3000 
    211 H211       -5.3022  -21.7386  -49.7074 H         1 UNK         0.0600 
    212 H212       -7.3632  -20.5025  -50.0829 H         1 UNK         0.0600 
    213 H213       -7.1293  -20.6153  -48.3468 H         1 UNK         0.0600 
    214 H214       -8.3070  -21.6503  -49.1484 H         1 UNK         0.0600 
    215 H215       -5.8367  -24.8402  -49.7914 H         1 UNK         0.3000 
    216 H216       -7.3061  -25.1997  -52.2488 H         1 UNK         0.0600 
    217 H217       -5.2839  -27.0529  -50.8816 H         1 UNK         0.0600 
    218 H218       -6.4340  -27.5053  -52.1319 H         1 UNK         0.0600 
    219 H219       -7.0142  -27.0092  -50.5486 H         1 UNK         0.0600 
    220 H220       -3.8379  -24.9075  -51.4357 H         1 UNK         0.3000 
    221 H221       -2.9952  -25.0899  -54.2486 H         1 UNK         0.0600 
    222 H222       -1.6561  -26.1907  -52.4834 H         1 UNK         0.0600 
    223 H223       -1.3994  -24.6508  -51.6703 H         1 UNK         0.0600 
    224 H224       -0.7174  -24.9303  -53.2657 H         1 UNK         0.0600 
    225 H225       -4.0241  -22.5682  -52.1630 H         1 UNK         0.3000 
    226 H226       -2.2484  -20.4684  -52.8368 H         1 UNK         0.0600 
    227 H227       -5.1334  -20.3746  -51.8099 H         1 UNK         0.0600 
    228 H228       -3.6685  -20.4099  -50.8210 H         1 UNK         0.0600 
    229 H229       -4.0241  -19.0143  -51.8205 H         1 UNK         0.0600 
    230 H230       -4.7030  -21.8398  -54.7888 H         1 UNK         0.3000 
    231 H231       -5.3028  -19.5919  -56.4822 H         1 UNK         0.0600 
    232 H232       -5.4448  -22.6145  -56.9906 H         1 UNK         0.0600 
    233 H233       -6.1764  -21.3743  -58.0024 H         1 UNK         0.0600 
    234 H234       -6.7495  -21.6093  -56.3590 H         1 UNK         0.0600 
    235 H235       -2.5216  -21.7079  -56.2170 H         1 UNK         0.3000 
    236 H236       -1.3327  -20.5393  -58.7068 H         1 UNK         0.0600 
    237 H237       -1.9998  -22.8856  -59.1498 H         1 UNK         0.0600 
    238 H238       -0.2492  -22.7572  -59.0796 H         1 UNK         0.0600 
    239 H239       -1.1344  -23.4329  -57.7151 H         1 UNK         0.0600 
    240 H240       -0.8549  -21.6441  -55.3599 H         1 UNK         0.3000 
    241 H241        0.7052  -21.3806  -53.8633 H         1 UNK         0.0600 
    242 H242        2.7295  -23.8553  -55.9840 H         1 UNK         0.3800 
    243 H243        1.0726  -23.3556  -56.1992 H         1 UNK         0.3800 
    244 H244        1.8910  -19.1758  -55.6137 H         1 UNK         0.0800 
    245 H245        2.5501  -19.6004  -54.0728 H         1 UNK         0.0800 
    246 H246        2.1009  -18.5665  -52.0841 H         1 UNK         0.0800 
    247 H247        0.7609  -19.6193  -51.7107 H         1 UNK         0.0800 
@<TRIPOS>BOND
     1    1    2 1    
     2    1  127 1    
     3    1  128 1    
     4    1  129 1    
     5    2    3 2    
     6    2    4 am   BACKBONE|DICT|INTERRES
     7    4    5 1    
     8    4  130 1    
     9    5    6 1    
    10    5   65 1    
    11    5  131 1    
    12    6    7 1    
    13    6  132 1    
    14    6  133 1    
    15    7    8 1    
    16    8    9 1    
    17    8  134 1    
    18    8  135 1    
    19    9   10 ar   
    20    9   14 ar   
    21   10   11 ar   
    22   10  136 1    
    23   11   12 ar   
    24   11  126 1    
    25   12   13 ar   
    26   12  137 1    
    27   13   14 ar   
    28   13   15 1    
    29   14  138 1    
    30   15   16 1    
    31   15  139 1    
    32   15  140 1    
    33   16   17 1    
    34   17   18 1    
    35   17  141 1    
    36   17  142 1    
    37   18   19 1    
    38   18   67 1    
    39   18  143 1    
    40   19   20 am   BACKBONE|DICT|INTERRES
    41   19  144 1    
    42   20   21 2    
    43   20   22 1    
    44   22   23 1    
    45   22   24 1    
    46   22  145 1    
    47   23  146 1    
    48   23  147 1    
    49   23  148 1    
    50   24   25 am   BACKBONE|DICT|INTERRES
    51   24  149 1    
    52   25   26 2    
    53   25   27 1    
    54   27   28 1    
    55   27   29 1    
    56   27  150 1    
    57   28  151 1    
    58   28  152 1    
    59   28  153 1    
    60   29   30 am   BACKBONE|DICT|INTERRES
    61   29  154 1    
    62   30   31 2    
    63   30   32 1    
    64   32   33 1    
    65   32   34 1    
    66   32  155 1    
    67   33  156 1    
    68   33  157 1    
    69   33  158 1    
    70   34   35 am   BACKBONE|DICT|INTERRES
    71   34  159 1    
    72   35   36 2    
    73   35   37 1    
    74   37   38 1    
    75   37   39 1    
    76   37  160 1    
    77   38  161 1    
    78   38  162 1    
    79   38  163 1    
    80   39   40 am   BACKBONE|DICT|INTERRES
    81   39  164 1    
    82   40   41 2    
    83   40   42 1    
    84   42   43 1    
    85   42   44 1    
    86   42  165 1    
    87   43  166 1    
    88   43  167 1    
    89   43  168 1    
    90   44   45 am   BACKBONE|DICT|INTERRES
    91   44  169 1    
    92   45   46 2    
    93   45   47 1    
    94   47   48 1    
    95   47   49 1    
    96   47  170 1    
    97   48  171 1    
    98   48  172 1    
    99   48  173 1    
   100   49   50 am   BACKBONE|DICT|INTERRES
   101   49  174 1    
   102   50   51 2    
   103   50   52 1    
   104   52   53 1    
   105   52   54 1    
   106   52  175 1    
   107   53  176 1    
   108   53  177 1    
   109   53  178 1    
   110   54   55 am   BACKBONE|DICT|INTERRES
   111   54  179 1    
   112   55   56 2    
   113   55   57 1    
   114   57   58 1    
   115   57   59 1    
   116   57  180 1    
   117   58  181 1    
   118   58  182 1    
   119   58  183 1    
   120   59   60 am   BACKBONE|DICT|INTERRES
   121   59  184 1    
   122   60   61 2    
   123   60   62 1    
   124   62   63 1    
   125   62   64 1    
   126   62  185 1    
   127   63  186 1    
   128   63  187 1    
   129   63  188 1    
   130   64   65 am   BACKBONE|DICT|INTERRES
   131   64  189 1    
   132   65   66 2    
   133   67   68 2    
   134   67   69 am   BACKBONE|DICT|INTERRES
   135   69   70 1    
   136   69  190 1    
   137   70   71 1    
   138   70   72 1    
   139   70  191 1    
   140   71  192 1    
   141   71  193 1    
   142   71  194 1    
   143   72   73 2    
   144   72   74 am   BACKBONE|DICT|INTERRES
   145   74   75 1    
   146   74  195 1    
   147   75   76 1    
   148   75   77 1    
   149   75  196 1    
   150   76  197 1    
   151   76  198 1    
   152   76  199 1    
   153   77   78 2    
   154   77   79 am   BACKBONE|DICT|INTERRES
   155   79   80 1    
   156   79  200 1    
   157   80   81 1    
   158   80   82 1    
   159   80  201 1    
   160   81  202 1    
   161   81  203 1    
   162   81  204 1    
   163   82   83 2    
   164   82   84 am   BACKBONE|DICT|INTERRES
   165   84   85 1    
   166   84  205 1    
   167   85   86 1    
   168   85   87 1    
   169   85  206 1    
   170   86  207 1    
   171   86  208 1    
   172   86  209 1    
   173   87   88 2    
   174   87   89 am   BACKBONE|DICT|INTERRES
   175   89   90 1    
   176   89  210 1    
   177   90   91 1    
   178   90   92 1    
   179   90  211 1    
   180   91  212 1    
   181   91  213 1    
   182   91  214 1    
   183   92   93 2    
   184   92   94 am   BACKBONE|DICT|INTERRES
   185   94   95 1    
   186   94  215 1    
   187   95   96 1    
   188   95   97 1    
   189   95  216 1    
   190   96  217 1    
   191   96  218 1    
   192   96  219 1    
   193   97   98 2    
   194   97   99 am   BACKBONE|DICT|INTERRES
   195   99  100 1    
   196   99  220 1    
   197  100  101 1    
   198  100  102 1    
   199  100  221 1    
   200  101  222 1    
   201  101  223 1    
   202  101  224 1    
   203  102  103 2    
   204  102  104 am   BACKBONE|DICT|INTERRES
   205  104  105 1    
   206  104  225 1    
   207  105  106 1    
   208  105  107 1    
   209  105  226 1    
   210  106  227 1    
   211  106  228 1    
   212  106  229 1    
   213  107  108 2    
   214  107  109 am   BACKBONE|DICT|INTERRES
   215  109  110 1    
   216  109  230 1    
   217  110  111 1    
   218  110  112 1    
   219  110  231 1    
   220  111  232 1    
   221  111  233 1    
   222  111  234 1    
   223  112  113 2    
   224  112  114 am   BACKBONE|DICT|INTERRES
   225  114  115 1    
   226  114  235 1    
   227  115  116 1    
   228  115  117 1    
   229  115  236 1    
   230  116  237 1    
   231  116  238 1    
   232  116  239 1    
   233  117  118 2    
   234  117  119 am   BACKBONE|DICT|INTERRES
   235  119  120 1    
   236  119  240 1    
   237  120  121 1    
   238  120  124 1    
   239  120  241 1    
   240  121  122 am   BACKBONE|DICT|INTERRES
   241  121  123 2    
   242  122  242 1    
   243  122  243 1    
   244  124  125 1    
   245  124  244 1    
   246  124  245 1    
   247  125  126 1    
   248  126  246 1    
   249  126  247 1    
@<TRIPOS>SUBSTRUCTURE
     1 UNK         1 GROUP             0       ****    0 ROOT    
