@<TRIPOS>MOLECULE
3R540
247   249    1
SMALL
USER_CHARGES


@<TRIPOS>ATOM
      1 CA          4.8908  -11.2183  -47.4092 C.3       0 UNK        -0.1800 
      2 C           3.9780  -12.4273  -47.2706 C.2       0 UNK         0.5000 
      3 O           3.8805  -13.0018  -46.1857 O.2       0 UNK        -0.5000 
      4 N           3.2911  -12.8098  -48.3557 N.am      1 UNK        -0.5000 
      5 CA          2.3722  -13.9545  -48.3978 C.3       1 UNK         0.1400 
      6 C6          1.9359  -14.3221  -49.8379 C.3       23 UNK        -0.0398 
      7 S7          1.1461  -12.9723  -50.7935 S.3       23 UNK        -0.2404 
      8 C8         -0.6396  -13.1913  -50.4766 C.3       23 UNK        -0.0205 
      9 C9         -1.1750  -14.5310  -50.9595 C.ar      23 UNK        -0.0193 
     10 C10        -1.5719  -14.6967  -52.2886 C.ar      23 UNK        -0.1150 
     11 C11        -2.0913  -15.9189  -52.7260 C.ar      23 UNK        -0.0193 
     12 C12        -2.1829  -16.9891  -51.8299 C.ar      23 UNK        -0.1150 
     13 C13        -1.7940  -16.8341  -50.4951 C.ar      23 UNK        -0.0193 
     14 C14        -1.3050  -15.5974  -50.0661 C.ar      23 UNK        -0.1150 
     15 C15        -1.8554  -17.9942  -49.5108 C.3       23 UNK        -0.0205 
     16 S16        -3.4543  -18.8672  -49.5014 S.3       23 UNK        -0.2404 
     17 C17        -3.5238  -19.5344  -47.8025 C.3       23 UNK        -0.0398 
     18 CA         -2.5416  -20.7056  -47.5376 C.3       11 UNK         0.1400 
     19 N          -1.1576  -20.2413  -47.3890 N.am      11 UNK        -0.5000 
     20 C          -0.0752  -21.0178  -47.2499 C.2       10 UNK         0.5000 
     21 O          -0.1219  -22.2470  -47.2008 O.2       10 UNK        -0.5000 
     22 CA          1.2891  -20.3137  -47.0864 C.3       10 UNK         0.1400 
     23 CB          1.2390  -18.7787  -47.2624 C.3       10 UNK        -0.1800 
     24 N           1.9292  -20.6517  -45.8103 N.am      10 UNK        -0.5000 
     25 C           1.3919  -20.5328  -44.5878 C.2       9 UNK         0.5000 
     26 O           0.2398  -20.1423  -44.3808 O.2       9 UNK        -0.5000 
     27 CA          2.2889  -20.9490  -43.4115 C.3       9 UNK         0.1400 
     28 CB          3.5314  -20.0499  -43.2745 C.3       9 UNK        -0.1800 
     29 N           1.5205  -20.9107  -42.1721 N.am      9 UNK        -0.5000 
     30 C           1.6906  -21.7204  -41.1227 C.2       8 UNK         0.5000 
     31 O           2.5454  -22.6075  -41.0857 O.2       8 UNK        -0.5000 
     32 CA          0.7724  -21.4758  -39.9046 C.3       8 UNK         0.1400 
     33 CB          1.0799  -22.4185  -38.7268 C.3       8 UNK        -0.1800 
     34 N           0.8736  -20.0915  -39.4358 N.am      8 UNK        -0.5000 
     35 C           0.1834  -19.0630  -39.9417 C.2       7 UNK         0.5000 
     36 O          -0.6749  -19.2041  -40.8143 O.2       7 UNK        -0.5000 
     37 CA          0.5174  -17.6613  -39.3932 C.3       7 UNK         0.1400 
     38 CB          2.0335  -17.3879  -39.4048 C.3       7 UNK        -0.1800 
     39 N          -0.1331  -16.6503  -40.2206 N.am      7 UNK        -0.5000 
     40 C          -1.2226  -15.9454  -39.8944 C.2       6 UNK         0.5000 
     41 O          -1.7525  -15.9830  -38.7827 O.2       6 UNK        -0.5000 
     42 CA         -1.8335  -15.0433  -40.9882 C.3       6 UNK         0.1400 
     43 CB         -1.5126  -13.5651  -40.7171 C.3       6 UNK        -0.1800 
     44 N          -1.3786  -15.3917  -42.3356 N.am      6 UNK        -0.5000 
     45 C          -1.8209  -16.4418  -43.0410 C.2       5 UNK         0.5000 
     46 O          -2.7552  -17.1578  -42.6804 O.2       5 UNK        -0.5000 
     47 CA         -1.1048  -16.7503  -44.3717 C.3       5 UNK         0.1400 
     48 CB         -1.9144  -16.2001  -45.5551 C.3       5 UNK        -0.1800 
     49 N           0.2678  -16.2395  -44.4527 N.am      5 UNK        -0.5000 
     50 C           1.2844  -16.6465  -43.6786 C.2       4 UNK         0.5000 
     51 O           1.1697  -17.4836  -42.7876 O.2       4 UNK        -0.5000 
     52 CA          2.6446  -15.9573  -43.8874 C.3       4 UNK         0.1400 
     53 CB          3.3426  -16.4697  -45.1554 C.3       4 UNK        -0.1800 
     54 N           2.5181  -14.5018  -43.9424 N.am      4 UNK        -0.5000 
     55 C           2.1141  -13.7397  -42.9155 C.2       3 UNK         0.5000 
     56 O           1.8897  -14.1744  -41.7864 O.2       3 UNK        -0.5000 
     57 CA          1.8717  -12.2504  -43.2137 C.3       3 UNK         0.1400 
     58 CB          3.1733  -11.4429  -43.0975 C.3       3 UNK        -0.1800 
     59 N           1.2835  -12.0542  -44.5387 N.am      3 UNK        -0.5000 
     60 C           0.0212  -12.3756  -44.8575 C.2       2 UNK         0.5000 
     61 O          -0.7967  -12.8158  -44.0508 O.2       2 UNK        -0.5000 
     62 CA         -0.3820  -12.2126  -46.3336 C.3       2 UNK         0.1400 
     63 CB         -0.8512  -10.7782  -46.6164 C.3       2 UNK        -0.1800 
     64 N           0.7072  -12.5535  -47.2482 N.am      2 UNK        -0.5000 
     65 C           1.1643  -13.7974  -47.4506 C.2       1 UNK         0.5000 
     66 O           0.6940  -14.7922  -46.9009 O.2       1 UNK        -0.5000 
     67 C          -3.0283  -21.5494  -46.3407 C.2       11 UNK         0.5000 
     68 O          -3.8403  -22.4506  -46.5507 O.2       11 UNK        -0.5000 
     69 N          -2.5273  -21.2752  -45.1269 N.am      12 UNK        -0.5000 
     70 CA         -2.8927  -22.0193  -43.9201 C.3       12 UNK         0.1400 
     71 CB         -2.5059  -21.2092  -42.6758 C.3       12 UNK        -0.1800 
     72 C          -2.2471  -23.4151  -43.8780 C.2       12 UNK         0.5000 
     73 O          -2.8831  -24.3630  -43.4174 O.2       12 UNK        -0.5000 
     74 N          -1.0085  -23.5206  -44.3776 N.am      13 UNK        -0.5000 
     75 CA         -0.2694  -24.7792  -44.4804 C.3       13 UNK         0.1400 
     76 CB          1.2360  -24.4864  -44.5487 C.3       13 UNK        -0.1800 
     77 C          -0.7217  -25.6111  -45.6917 C.2       13 UNK         0.5000 
     78 O          -0.8410  -26.8318  -45.5840 O.2       13 UNK        -0.5000 
     79 N          -0.9820  -24.9322  -46.8166 N.am      14 UNK        -0.5000 
     80 CA         -1.4357  -25.5302  -48.0720 C.3       14 UNK         0.1400 
     81 CB         -1.1666  -24.5331  -49.2102 C.3       14 UNK        -0.1800 
     82 C          -2.9214  -25.9398  -48.0645 C.2       14 UNK         0.5000 
     83 O          -3.3473  -26.6350  -48.9854 O.2       14 UNK        -0.5000 
     84 N          -3.6896  -25.4778  -47.0658 N.am      15 UNK        -0.5000 
     85 CA         -5.1417  -25.6389  -46.9204 C.3       15 UNK         0.1400 
     86 CB         -5.5142  -27.1149  -46.6691 C.3       15 UNK        -0.1800 
     87 C          -5.8990  -25.0071  -48.1073 C.2       15 UNK         0.5000 
     88 O          -6.7227  -25.6587  -48.7506 O.2       15 UNK        -0.5000 
     89 N          -5.5450  -23.7462  -48.3911 N.am      16 UNK        -0.5000 
     90 CA         -6.0210  -22.8750  -49.4714 C.3       16 UNK         0.1400 
     91 CB         -7.5472  -22.6705  -49.4033 C.3       16 UNK        -0.1800 
     92 C          -5.5581  -23.2709  -50.8894 C.2       16 UNK         0.5000 
     93 O          -5.8465  -22.5320  -51.8313 O.2       16 UNK        -0.5000 
     94 N          -4.7997  -24.3681  -51.0444 N.am      17 UNK        -0.5000 
     95 CA         -4.2626  -24.8161  -52.3368 C.3       17 UNK         0.1400 
     96 CB         -3.6746  -26.2271  -52.2025 C.3       17 UNK        -0.1800 
     97 C          -3.2265  -23.8474  -52.9423 C.2       17 UNK         0.5000 
     98 O          -3.0369  -23.8441  -54.1575 O.2       17 UNK        -0.5000 
     99 N          -2.6133  -23.0025  -52.1018 N.am      18 UNK        -0.5000 
    100 CA        -1.7461  -21.9046  -52.5264 C.3       18 UNK         0.1400 
    101 CB        -1.0225  -21.3198  -51.3058 C.3       18 UNK        -0.1800 
    102 C         -2.5094  -20.8102  -53.2988 C.2       18 UNK         0.5000 
    103 O         -1.9493  -20.2374  -54.2296 O.2       18 UNK        -0.5000 
    104 N         -3.7845  -20.5721  -52.9540 N.am      19 UNK        -0.5000 
    105 CA        -4.6579  -19.6477  -53.6818 C.3       19 UNK         0.1400 
    106 CB        -5.8647  -19.2665  -52.8129 C.3       19 UNK        -0.1800 
    107 C         -5.1046  -20.2231  -55.0375 C.2       19 UNK         0.5000 
    108 O         -5.2304  -19.4730  -56.0066 O.2       19 UNK        -0.5000 
    109 N         -5.2775  -21.5510  -55.1042 N.am      20 UNK        -0.5000 
    110 CA        -5.5179  -22.2810  -56.3507 C.3       20 UNK         0.1400 
    111 CB        -5.9644  -23.7173  -56.0372 C.3       20 UNK        -0.1800 
    112 C         -4.2899  -22.2662  -57.2844 C.2       20 UNK         0.5000 
    113 O         -4.4617  -22.2452  -58.5034 O.2       20 UNK        -0.5000 
    114 N         -3.0812  -22.2407  -56.7021 N.am      21 UNK        -0.5000 
    115 CA        -1.8178  -22.0646  -57.4191 C.3       21 UNK         0.1400 
    116 CB        -0.6403  -22.4737  -56.5210 C.3       21 UNK        -0.1800 
    117 C         -1.6380  -20.6337  -57.9663 C.2       21 UNK         0.5000 
    118 O         -1.0897  -20.4839  -59.0595 O.2       21 UNK        -0.5000 
    119 N         -2.1201  -19.6161  -57.2335 N.am      22 UNK        -0.5000 
    120 CA        -2.2421  -18.2326  -57.7324 C.3       22 UNK         0.1400 
    121 C         -3.2374  -18.1212  -58.9221 C.2       22 UNK         0.5000 
    122 N         -4.4363  -18.6797  -58.8019 N.am      22 UNK        -0.7600 
    123 O         -2.9243  -17.5231  -59.9479 O.2       22 UNK        -0.5000 
    124 C124       -2.6559  -17.2083  -56.6439 C.3       23 UNK        -0.0398 
    125 S125       -1.5564  -17.1053  -55.1963 S.3       23 UNK        -0.2404 
    126 C126       -2.6154  -16.0617  -54.1455 C.3       23 UNK        -0.0205 
    127 H127        4.8574  -10.7983  -48.4147 H         1 UNK         0.0600 
    128 H128        5.9207  -11.5008  -47.1913 H         1 UNK         0.0600 
    129 H129        4.5930  -10.4417  -46.7048 H         1 UNK         0.0600 
    130 H130        3.3941  -12.2985  -49.2214 H         1 UNK         0.3000 
    131 H131        2.9358  -14.8096  -48.0191 H         1 UNK         0.0600 
    132 H132        2.8222  -14.6206  -50.3991 H         1 UNK         0.0800 
    133 H133        1.3073  -15.2110  -49.8340 H         1 UNK         0.0800 
    134 H134       -1.1774  -12.3875  -50.9815 H         1 UNK         0.0800 
    135 H135       -0.8540  -13.0618  -49.4166 H         1 UNK         0.0800 
    136 H136       -1.4944  -13.8661  -52.9762 H         1 UNK         0.1150 
    137 H137       -2.5690  -17.9394  -52.1690 H         1 UNK         0.1150 
    138 H138       -1.0068  -15.4666  -49.0351 H         1 UNK         0.1150 
    139 H139       -1.0653  -18.7010  -49.7632 H         1 UNK         0.0800 
    140 H140       -1.6468  -17.6318  -48.5053 H         1 UNK         0.0800 
    141 H141       -4.5565  -19.8600  -47.6603 H         1 UNK         0.0800 
    142 H142       -3.3718  -18.7257  -47.0858 H         1 UNK         0.0800 
    143 H143       -2.5672  -21.3728  -48.4004 H         1 UNK         0.0600 
    144 H144       -1.0230  -19.2434  -47.3572 H         1 UNK         0.3000 
    145 H145        1.9291  -20.7157  -47.8729 H         1 UNK         0.0600 
    146 H146        0.8413  -18.5005  -48.2382 H         1 UNK         0.0600 
    147 H147        0.6346  -18.2920  -46.4967 H         1 UNK         0.0600 
    148 H148        2.2412  -18.3557  -47.2057 H         1 UNK         0.0600 
    149 H149        2.8643  -21.0257  -45.8871 H         1 UNK         0.3000 
    150 H150        2.6189  -21.9699  -43.6072 H         1 UNK         0.0600 
    151 H151        4.1203  -20.0343  -44.1919 H         1 UNK         0.0600 
    152 H152        4.1863  -20.4084  -42.4802 H         1 UNK         0.0600 
    153 H153        3.2623  -19.0217  -43.0377 H         1 UNK         0.0600 
    154 H154        0.7767  -20.2181  -42.1557 H         1 UNK         0.3000 
    155 H155       -0.2509  -21.6794  -40.2272 H         1 UNK         0.0600 
    156 H156        2.0949  -22.2797  -38.3524 H         1 UNK         0.0600 
    157 H157        0.9780  -23.4630  -39.0243 H         1 UNK         0.0600 
    158 H158        0.3913  -22.2509  -37.8985 H         1 UNK         0.0600 
    159 H159        1.5835  -19.9080  -38.7419 H         1 UNK         0.3000 
    160 H160        0.1571  -17.6072  -38.3643 H         1 UNK         0.0600 
    161 H161        2.4657  -17.5525  -40.3927 H         1 UNK         0.0600 
    162 H162        2.5619  -18.0314  -38.7012 H         1 UNK         0.0600 
    163 H163        2.2481  -16.3581  -39.1182 H         1 UNK         0.0600 
    164 H164        0.1807  -16.6330  -41.1849 H         1 UNK         0.3000 
    165 H165       -2.9177  -15.1654  -40.9450 H         1 UNK         0.0600 
    166 H166       -1.9807  -12.9172  -41.4585 H         1 UNK         0.0600 
    167 H167       -1.8825  -13.2583  -39.7381 H         1 UNK         0.0600 
    168 H168       -0.4396  -13.3750  -40.7357 H         1 UNK         0.0600 
    169 H169       -0.6458  -14.8180  -42.7311 H         1 UNK         0.3000 
    170 H170       -1.0592  -17.8363  -44.4666 H         1 UNK         0.0600 
    171 H171       -2.9277  -16.6032  -45.5601 H         1 UNK         0.0600 
    172 H172       -1.9918  -15.1132  -45.5138 H         1 UNK         0.0600 
    173 H173       -1.4522  -16.4646  -46.5047 H         1 UNK         0.0600 
    174 H174        0.4537  -15.5700  -45.1949 H         1 UNK         0.3000 
    175 H175        3.2772  -16.2056  -43.0325 H         1 UNK         0.0600 
    176 H176        2.7673  -16.2448  -46.0521 H         1 UNK         0.0600 
    177 H177        4.3292  -16.0207  -45.2709 H         1 UNK         0.0600 
    178 H178        3.4783  -17.5509  -45.1163 H         1 UNK         0.0600 
    179 H179        2.7411  -14.0509  -44.8231 H         1 UNK         0.3000 
    180 H180        1.1707  -11.8703  -42.4672 H         1 UNK         0.0600 
    181 H181        2.9952  -10.3811  -43.2682 H         1 UNK         0.0600 
    182 H182        3.9251  -11.7764  -43.8130 H         1 UNK         0.0600 
    183 H183        3.6042  -11.5438  -42.1006 H         1 UNK         0.0600 
    184 H184        1.9069  -11.7467  -45.2705 H         1 UNK         0.3000 
    185 H185       -1.2172  -12.8888  -46.5282 H         1 UNK         0.0600 
    186 H186       -1.2018  -10.6741  -47.6434 H         1 UNK         0.0600 
    187 H187       -1.6791  -10.5030  -45.9615 H         1 UNK         0.0600 
    188 H188       -0.0521  -10.0529  -46.4586 H         1 UNK         0.0600 
    189 H189        1.1515  -11.7919  -47.7402 H         1 UNK         0.3000 
    190 H190       -1.8079  -20.5685  -45.0244 H         1 UNK         0.3000 
    191 H191       -3.9771  -22.1503  -43.9106 H         1 UNK         0.0600 
    192 H192       -2.8555  -21.6986  -41.7662 H         1 UNK         0.0600 
    193 H193       -2.9426  -20.2103  -42.6972 H         1 UNK         0.0600 
    194 H194       -1.4259  -21.0980  -42.5890 H         1 UNK         0.0600 
    195 H195       -0.5806  -22.6994  -44.7815 H         1 UNK         0.3000 
    196 H196       -0.4533  -25.3737  -43.5826 H         1 UNK         0.0600 
    197 H197        1.4824  -23.8111  -45.3690 H         1 UNK         0.0600 
    198 H198        1.5837  -24.0381  -43.6187 H         1 UNK         0.0600 
    199 H199        1.8074  -25.4040  -44.6946 H         1 UNK         0.0600 
    200 H200       -0.7904  -23.9331  -46.8413 H         1 UNK         0.3000 
    201 H201       -0.8476  -26.4308  -48.2597 H         1 UNK         0.0600 
    202 H202       -0.1158  -24.2443  -49.2410 H         1 UNK         0.0600 
    203 H203       -1.7590  -23.6253  -49.0949 H         1 UNK         0.0600 
    204 H204       -1.4068  -24.9667  -50.1802 H         1 UNK         0.0600 
    205 H205       -3.2494  -24.8750  -46.3846 H         1 UNK         0.3000 
    206 H206       -5.4279  -25.0713  -46.0335 H         1 UNK         0.0600 
    207 H207       -4.9688  -27.5175  -45.8155 H         1 UNK         0.0600 
    208 H208       -6.5781  -27.2151  -46.4518 H         1 UNK         0.0600 
    209 H209       -5.2976  -27.7448  -47.5323 H         1 UNK         0.0600 
    210 H210       -4.8640  -23.3166  -47.7662 H         1 UNK         0.3000 
    211 H211       -5.5602  -21.9050  -49.2783 H         1 UNK         0.0600 
    212 H212       -7.8684  -21.8977  -50.1029 H         1 UNK         0.0600 
    213 H213       -7.8591  -22.3545  -48.4079 H         1 UNK         0.0600 
    214 H214       -8.0926  -23.5802  -49.6550 H         1 UNK         0.0600 
    215 H215       -4.6139  -24.9560  -50.2427 H         1 UNK         0.3000 
    216 H216       -5.0989  -24.8707  -53.0368 H         1 UNK         0.0600 
    217 H217       -2.7895  -26.2398  -51.5679 H         1 UNK         0.0600 
    218 H218       -3.3799  -26.6184  -53.1771 H         1 UNK         0.0600 
    219 H219       -4.4014  -26.9211  -51.7799 H         1 UNK         0.0600 
    220 H220       -2.8232  -23.0707  -51.1187 H         1 UNK         0.3000 
    221 H221       -0.9901  -22.3131  -53.2005 H         1 UNK         0.0600 
    222 H222       -0.3764  -22.0611  -50.8358 H         1 UNK         0.0600 
    223 H223       -1.7280  -20.9678  -50.5566 H         1 UNK         0.0600 
    224 H224       -0.3941  -20.4747  -51.5905 H         1 UNK         0.0600 
    225 H225       -4.2182  -21.1214  -52.2239 H         1 UNK         0.3000 
    226 H226       -4.0945  -18.7369  -53.8858 H         1 UNK         0.0600 
    227 H227       -6.5035  -20.1240  -52.6024 H         1 UNK         0.0600 
    228 H228       -5.5467  -18.8411  -51.8610 H         1 UNK         0.0600 
    229 H229       -6.4798  -18.5179  -53.3135 H         1 UNK         0.0600 
    230 H230       -5.1696  -22.0968  -54.2609 H         1 UNK         0.3000 
    231 H231       -6.3367  -21.7844  -56.8758 H         1 UNK         0.0600 
    232 H232       -5.1750  -24.2959  -55.5595 H         1 UNK         0.0600 
    233 H233       -6.2420  -24.2427  -56.9517 H         1 UNK         0.0600 
    234 H234       -6.8342  -23.7271  -55.3800 H         1 UNK         0.0600 
    235 H235       -3.0265  -22.3451  -55.6966 H         1 UNK         0.3000 
    236 H236       -1.8275  -22.7433  -58.2747 H         1 UNK         0.0600 
    237 H237       -0.5163  -21.7988  -55.6759 H         1 UNK         0.0600 
    238 H238       -0.7728  -23.4824  -56.1290 H         1 UNK         0.0600 
    239 H239        0.2945  -22.4623  -57.0826 H         1 UNK         0.0600 
    240 H240       -2.4769  -19.8017  -56.3046 H         1 UNK         0.3000 
    241 H241       -1.2586  -17.9365  -58.1026 H         1 UNK         0.0600 
    242 H242       -5.0925  -18.6217  -59.5641 H         1 UNK         0.3800 
    243 H243       -4.7127  -19.1193  -57.9302 H         1 UNK         0.3800 
    244 H244       -3.6634  -17.4277  -56.2897 H         1 UNK         0.0800 
    245 H245       -2.7049  -16.2076  -57.0778 H         1 UNK         0.0800 
    246 H246       -2.7165  -15.0816  -54.6145 H         1 UNK         0.0800 
    247 H247       -3.6222  -16.4777  -54.1020 H         1 UNK         0.0800 
@<TRIPOS>BOND
     1    1    2 1    
     2    1  127 1    
     3    1  128 1    
     4    1  129 1    
     5    2    3 2    
     6    2    4 am   BACKBONE|DICT|INTERRES
     7    4    5 1    
     8    4  130 1    
     9    5    6 1    
    10    5   65 1    
    11    5  131 1    
    12    6    7 1    
    13    6  132 1    
    14    6  133 1    
    15    7    8 1    
    16    8    9 1    
    17    8  134 1    
    18    8  135 1    
    19    9   10 ar   
    20    9   14 ar   
    21   10   11 ar   
    22   10  136 1    
    23   11   12 ar   
    24   11  126 1    
    25   12   13 ar   
    26   12  137 1    
    27   13   14 ar   
    28   13   15 1    
    29   14  138 1    
    30   15   16 1    
    31   15  139 1    
    32   15  140 1    
    33   16   17 1    
    34   17   18 1    
    35   17  141 1    
    36   17  142 1    
    37   18   19 1    
    38   18   67 1    
    39   18  143 1    
    40   19   20 am   BACKBONE|DICT|INTERRES
    41   19  144 1    
    42   20   21 2    
    43   20   22 1    
    44   22   23 1    
    45   22   24 1    
    46   22  145 1    
    47   23  146 1    
    48   23  147 1    
    49   23  148 1    
    50   24   25 am   BACKBONE|DICT|INTERRES
    51   24  149 1    
    52   25   26 2    
    53   25   27 1    
    54   27   28 1    
    55   27   29 1    
    56   27  150 1    
    57   28  151 1    
    58   28  152 1    
    59   28  153 1    
    60   29   30 am   BACKBONE|DICT|INTERRES
    61   29  154 1    
    62   30   31 2    
    63   30   32 1    
    64   32   33 1    
    65   32   34 1    
    66   32  155 1    
    67   33  156 1    
    68   33  157 1    
    69   33  158 1    
    70   34   35 am   BACKBONE|DICT|INTERRES
    71   34  159 1    
    72   35   36 2    
    73   35   37 1    
    74   37   38 1    
    75   37   39 1    
    76   37  160 1    
    77   38  161 1    
    78   38  162 1    
    79   38  163 1    
    80   39   40 am   BACKBONE|DICT|INTERRES
    81   39  164 1    
    82   40   41 2    
    83   40   42 1    
    84   42   43 1    
    85   42   44 1    
    86   42  165 1    
    87   43  166 1    
    88   43  167 1    
    89   43  168 1    
    90   44   45 am   BACKBONE|DICT|INTERRES
    91   44  169 1    
    92   45   46 2    
    93   45   47 1    
    94   47   48 1    
    95   47   49 1    
    96   47  170 1    
    97   48  171 1    
    98   48  172 1    
    99   48  173 1    
   100   49   50 am   BACKBONE|DICT|INTERRES
   101   49  174 1    
   102   50   51 2    
   103   50   52 1    
   104   52   53 1    
   105   52   54 1    
   106   52  175 1    
   107   53  176 1    
   108   53  177 1    
   109   53  178 1    
   110   54   55 am   BACKBONE|DICT|INTERRES
   111   54  179 1    
   112   55   56 2    
   113   55   57 1    
   114   57   58 1    
   115   57   59 1    
   116   57  180 1    
   117   58  181 1    
   118   58  182 1    
   119   58  183 1    
   120   59   60 am   BACKBONE|DICT|INTERRES
   121   59  184 1    
   122   60   61 2    
   123   60   62 1    
   124   62   63 1    
   125   62   64 1    
   126   62  185 1    
   127   63  186 1    
   128   63  187 1    
   129   63  188 1    
   130   64   65 am   BACKBONE|DICT|INTERRES
   131   64  189 1    
   132   65   66 2    
   133   67   68 2    
   134   67   69 am   BACKBONE|DICT|INTERRES
   135   69   70 1    
   136   69  190 1    
   137   70   71 1    
   138   70   72 1    
   139   70  191 1    
   140   71  192 1    
   141   71  193 1    
   142   71  194 1    
   143   72   73 2    
   144   72   74 am   BACKBONE|DICT|INTERRES
   145   74   75 1    
   146   74  195 1    
   147   75   76 1    
   148   75   77 1    
   149   75  196 1    
   150   76  197 1    
   151   76  198 1    
   152   76  199 1    
   153   77   78 2    
   154   77   79 am   BACKBONE|DICT|INTERRES
   155   79   80 1    
   156   79  200 1    
   157   80   81 1    
   158   80   82 1    
   159   80  201 1    
   160   81  202 1    
   161   81  203 1    
   162   81  204 1    
   163   82   83 2    
   164   82   84 am   BACKBONE|DICT|INTERRES
   165   84   85 1    
   166   84  205 1    
   167   85   86 1    
   168   85   87 1    
   169   85  206 1    
   170   86  207 1    
   171   86  208 1    
   172   86  209 1    
   173   87   88 2    
   174   87   89 am   BACKBONE|DICT|INTERRES
   175   89   90 1    
   176   89  210 1    
   177   90   91 1    
   178   90   92 1    
   179   90  211 1    
   180   91  212 1    
   181   91  213 1    
   182   91  214 1    
   183   92   93 2    
   184   92   94 am   BACKBONE|DICT|INTERRES
   185   94   95 1    
   186   94  215 1    
   187   95   96 1    
   188   95   97 1    
   189   95  216 1    
   190   96  217 1    
   191   96  218 1    
   192   96  219 1    
   193   97   98 2    
   194   97   99 am   BACKBONE|DICT|INTERRES
   195   99  100 1    
   196   99  220 1    
   197  100  101 1    
   198  100  102 1    
   199  100  221 1    
   200  101  222 1    
   201  101  223 1    
   202  101  224 1    
   203  102  103 2    
   204  102  104 am   BACKBONE|DICT|INTERRES
   205  104  105 1    
   206  104  225 1    
   207  105  106 1    
   208  105  107 1    
   209  105  226 1    
   210  106  227 1    
   211  106  228 1    
   212  106  229 1    
   213  107  108 2    
   214  107  109 am   BACKBONE|DICT|INTERRES
   215  109  110 1    
   216  109  230 1    
   217  110  111 1    
   218  110  112 1    
   219  110  231 1    
   220  111  232 1    
   221  111  233 1    
   222  111  234 1    
   223  112  113 2    
   224  112  114 am   BACKBONE|DICT|INTERRES
   225  114  115 1    
   226  114  235 1    
   227  115  116 1    
   228  115  117 1    
   229  115  236 1    
   230  116  237 1    
   231  116  238 1    
   232  116  239 1    
   233  117  118 2    
   234  117  119 am   BACKBONE|DICT|INTERRES
   235  119  120 1    
   236  119  240 1    
   237  120  121 1    
   238  120  124 1    
   239  120  241 1    
   240  121  122 am   BACKBONE|DICT|INTERRES
   241  121  123 2    
   242  122  242 1    
   243  122  243 1    
   244  124  125 1    
   245  124  244 1    
   246  124  245 1    
   247  125  126 1    
   248  126  246 1    
   249  126  247 1    
@<TRIPOS>SUBSTRUCTURE
     1 UNK         1 GROUP             0       ****    0 ROOT    
