@<TRIPOS>MOLECULE
3R540
247   249    1
SMALL
USER_CHARGES


@<TRIPOS>ATOM
      1 CA          2.0362  -16.2533  -46.8725 C.3       0 UNK        -0.1800 
      2 C           1.3029  -15.1003  -47.5394 C.2       0 UNK         0.5000 
      3 O           1.9331  -14.1180  -47.9294 O.2       0 UNK        -0.5000 
      4 N          -0.0234  -15.2236  -47.6767 N.am      1 UNK        -0.5000 
      5 CA         -0.9409  -14.2830  -48.3340 C.3       1 UNK         0.1400 
      6 C6         -0.7343  -14.1786  -49.8722 C.3       23 UNK        -0.0398 
      7 S7         -0.8348  -15.8056  -50.6942 S.3       23 UNK        -0.2404 
      8 C8          0.8926  -16.0272  -51.2285 C.3       23 UNK        -0.0205 
      9 C9          1.2308  -17.4934  -51.4439 C.ar      23 UNK        -0.0193 
     10 C10         0.8573  -18.1387  -52.6260 C.ar      23 UNK        -0.1150 
     11 C11         1.1794  -19.4831  -52.8319 C.ar      23 UNK        -0.0193 
     12 C12         1.8768  -20.1818  -51.8414 C.ar      23 UNK        -0.1150 
     13 C13         2.2565  -19.5515  -50.6515 C.ar      23 UNK        -0.0193 
     14 C14         1.9357  -18.2016  -50.4658 C.ar      23 UNK        -0.1150 
     15 C15         3.0237  -20.3451  -49.5916 C.3       23 UNK        -0.0205 
     16 S16         2.5518  -19.9793  -47.8616 S.3       23 UNK        -0.2404 
     17 C17         0.7620  -20.3185  -47.8887 C.3       23 UNK        -0.0398 
     18 CA          0.3889  -21.6940  -47.2989 C.3       11 UNK         0.1400 
     19 N           0.5610  -21.7448  -45.8453 N.am      11 UNK        -0.5000 
     20 C           0.4959  -22.8664  -45.1164 C.2       10 UNK         0.5000 
     21 O           0.3091  -23.9820  -45.5997 O.2       10 UNK        -0.5000 
     22 CA          0.5925  -22.7140  -43.5890 C.3       10 UNK         0.1400 
     23 CB          2.0427  -22.4695  -43.1465 C.3       10 UNK        -0.1800 
     24 N          -0.2764  -21.6515  -43.0814 N.am      10 UNK        -0.5000 
     25 C          -1.6144  -21.6640  -43.1772 C.2       9 UNK         0.5000 
     26 O          -2.2555  -22.5960  -43.6636 O.2       9 UNK        -0.5000 
     27 CA         -2.3622  -20.4124  -42.6839 C.3       9 UNK         0.1400 
     28 CB         -2.5257  -20.4456  -41.1572 C.3       9 UNK        -0.1800 
     29 N          -1.7121  -19.1640  -43.0859 N.am      9 UNK        -0.5000 
     30 C          -1.5477  -18.7663  -44.3558 C.2       8 UNK         0.5000 
     31 O          -1.9606  -19.3941  -45.3286 O.2       8 UNK        -0.5000 
     32 CA         -0.7259  -17.4877  -44.5908 C.3       8 UNK         0.1400 
     33 CB         -1.5612  -16.2244  -44.3405 C.3       8 UNK        -0.1800 
     34 N           0.4928  -17.4475  -43.7855 N.am      8 UNK        -0.5000 
     35 C           1.4844  -18.3461  -43.8651 C.2       7 UNK         0.5000 
     36 O           1.4938  -19.2865  -44.6576 O.2       7 UNK        -0.5000 
     37 CA          2.6305  -18.1964  -42.8530 C.3       7 UNK         0.1400 
     38 CB          3.6216  -17.1075  -43.2944 C.3       7 UNK        -0.1800 
     39 N           2.1258  -17.8993  -41.5128 N.am      7 UNK        -0.5000 
     40 C           1.4481  -18.7712  -40.7522 C.2       6 UNK         0.5000 
     41 O           1.2145  -19.9332  -41.0849 O.2       6 UNK        -0.5000 
     42 CA          0.9063  -18.2408  -39.4123 C.3       6 UNK         0.1400 
     43 CB          2.0029  -18.2594  -38.3369 C.3       6 UNK        -0.1800 
     44 N           0.3574  -16.8884  -39.5239 N.am      6 UNK        -0.5000 
     45 C          -0.7396  -16.5752  -40.2276 C.2       5 UNK         0.5000 
     46 O          -1.4223  -17.4001  -40.8322 O.2       5 UNK        -0.5000 
     47 CA         -1.1124  -15.0838  -40.3086 C.3       5 UNK         0.1400 
     48 CB         -1.9812  -14.6802  -39.1082 C.3       5 UNK        -0.1800 
     49 N           0.0427  -14.1856  -40.3968 N.am      5 UNK        -0.5000 
     50 C           0.9680  -14.2166  -41.3650 C.2       4 UNK         0.5000 
     51 O           1.0033  -15.0704  -42.2541 O.2       4 UNK        -0.5000 
     52 CA          2.0647  -13.1374  -41.2914 C.3       4 UNK         0.1400 
     53 CB          3.2333  -13.6382  -40.4282 C.3       4 UNK        -0.1800 
     54 N           2.5858  -12.7523  -42.6051 N.am      4 UNK        -0.5000 
     55 C           1.8645  -12.2531  -43.6187 C.2       3 UNK         0.5000 
     56 O           0.6544  -12.0266  -43.5397 O.2       3 UNK        -0.5000 
     57 CA          2.6443  -11.9413  -44.9186 C.3       3 UNK         0.1400 
     58 CB          3.6636  -13.0434  -45.2660 C.3       3 UNK        -0.1800 
     59 N           1.7631  -11.7364  -46.0705 N.am      3 UNK        -0.5000 
     60 C           1.0296  -10.6367  -46.2990 C.2       2 UNK         0.5000 
     61 O           1.0833   -9.6256  -45.5964 O.2       2 UNK        -0.5000 
     62 CA          0.0909  -10.6449  -47.5239 C.3       2 UNK         0.1400 
     63 CB          0.6319   -9.7168  -48.6235 C.3       2 UNK        -0.1800 
     64 N          -0.1038  -11.9777  -48.0964 N.am      2 UNK        -0.5000 
     65 C          -0.9437  -12.9094  -47.6248 C.2       1 UNK         0.5000 
     66 O          -1.6930  -12.7291  -46.6645 O.2       1 UNK        -0.5000 
     67 C          -1.0342  -22.0999  -47.7384 C.2       11 UNK         0.5000 
     68 O          -1.1759  -22.7795  -48.7551 O.2       11 UNK        -0.5000 
     69 N          -2.0656  -21.7057  -46.9794 N.am      12 UNK        -0.5000 
     70 CA         -3.4555  -22.0975  -47.2243 C.3       12 UNK         0.1400 
     71 CB         -4.3989  -21.2888  -46.3230 C.3       12 UNK        -0.1800 
     72 C          -3.6886  -23.6095  -47.0558 C.2       12 UNK         0.5000 
     73 O          -4.4734  -24.1863  -47.8073 O.2       12 UNK        -0.5000 
     74 N          -2.9840  -24.2312  -46.1026 N.am      13 UNK        -0.5000 
     75 CA         -2.9894  -25.6764  -45.8968 C.3       13 UNK         0.1400 
     76 CB         -2.4698  -25.9937  -44.4855 C.3       13 UNK        -0.1800 
     77 C          -2.1707  -26.4219  -46.9678 C.2       13 UNK         0.5000 
     78 O          -2.6608  -27.4004  -47.5326 O.2       13 UNK        -0.5000 
     79 N          -0.9337  -25.9667  -47.2078 N.am      14 UNK        -0.5000 
     80 CA          0.0480  -26.6638  -48.0381 C.3       14 UNK         0.1400 
     81 CB          1.4622  -26.2231  -47.6278 C.3       14 UNK        -0.1800 
     82 C          -0.1514  -26.4625  -49.5493 C.2       14 UNK         0.5000 
     83 O          -0.0571  -27.4340  -50.3009 O.2       14 UNK        -0.5000 
     84 N          -0.3772  -25.2128  -49.9724 N.am      15 UNK        -0.5000 
     85 CA         -0.3723  -24.8024  -51.3793 C.3       15 UNK         0.1400 
     86 CB          0.6019  -23.6217  -51.5392 C.3       15 UNK        -0.1800 
     87 C          -1.7641  -24.4089  -51.8998 C.2       15 UNK         0.5000 
     88 O          -1.9089  -24.2280  -53.1069 O.2       15 UNK        -0.5000 
     89 N          -2.7491  -24.2687  -51.0003 N.am      16 UNK        -0.5000 
     90 CA         -4.0936  -23.7339  -51.2541 C.3       16 UNK         0.1400 
     91 CB         -4.8767  -24.6061  -52.2551 C.3       16 UNK        -0.1800 
     92 C          -4.0679  -22.2329  -51.6184 C.2       16 UNK         0.5000 
     93 O          -4.8677  -21.7616  -52.4324 O.2       16 UNK        -0.5000 
     94 N          -3.1465  -21.5020  -50.9768 N.am      17 UNK        -0.5000 
     95 CA         -3.0354  -20.0465  -51.0324 C.3       17 UNK         0.1400 
     96 CB         -1.6871  -19.6447  -50.4350 C.3       17 UNK        -0.1800 
     97 C          -4.1823  -19.3462  -50.2782 C.2       17 UNK         0.5000 
     98 O          -4.9984  -20.0062  -49.6309 O.2       17 UNK        -0.5000 
     99 N          -4.2447  -18.0123  -50.4038 N.am      18 UNK        -0.5000 
    100 CA        -5.2734  -17.0918  -49.8850 C.3       18 UNK         0.1400 
    101 CB        -5.4154  -17.1828  -48.3529 C.3       18 UNK        -0.1800 
    102 C         -6.6327  -17.2382  -50.6014 C.2       18 UNK         0.5000 
    103 O         -7.2221  -16.2343  -51.0015 O.2       18 UNK        -0.5000 
    104 N         -7.0555  -18.4872  -50.8335 N.am      19 UNK        -0.5000 
    105 CA        -8.0810  -18.8794  -51.8020 C.3       19 UNK         0.1400 
    106 CB        -8.4939  -20.3316  -51.5156 C.3       19 UNK        -0.1800 
    107 C         -7.5923  -18.7412  -53.2614 C.2       19 UNK         0.5000 
    108 O         -8.4188  -18.7095  -54.1734 O.2       19 UNK        -0.5000 
    109 N         -6.2637  -18.6550  -53.4421 N.am      20 UNK        -0.5000 
    110 CA        -5.5293  -18.4797  -54.6980 C.3       20 UNK         0.1400 
    111 CB        -5.8508  -17.1120  -55.3359 C.3       20 UNK        -0.1800 
    112 C         -5.7090  -19.6641  -55.6678 C.2       20 UNK         0.5000 
    113 O         -5.8289  -19.4636  -56.8776 O.2       20 UNK        -0.5000 
    114 N         -5.7025  -20.8832  -55.1148 N.am      21 UNK        -0.5000 
    115 CA        -5.8211  -22.1425  -55.8499 C.3       21 UNK         0.1400 
    116 CB        -6.8591  -23.0293  -55.1417 C.3       21 UNK        -0.1800 
    117 C         -4.4538  -22.8387  -56.0236 C.2       21 UNK         0.5000 
    118 O         -4.4146  -24.0437  -56.2783 O.2       21 UNK        -0.5000 
    119 N         -3.3623  -22.0692  -55.8995 N.am      22 UNK        -0.5000 
    120 CA        -1.9732  -22.4776  -56.1612 C.3       22 UNK         0.1400 
    121 C         -1.7666  -23.0420  -57.5967 C.2       22 UNK         0.5000 
    122 N         -1.0067  -24.1185  -57.7454 N.am      22 UNK        -0.7600 
    123 O         -2.2490  -22.4825  -58.5794 O.2       22 UNK        -0.5000 
    124 C124       -0.9879  -21.3043  -55.9225 C.3       23 UNK        -0.0398 
    125 S125       -0.9156  -20.7261  -54.1910 S.3       23 UNK        -0.2404 
    126 C126        0.8166  -20.1633  -54.1434 C.3       23 UNK        -0.0205 
    127 H127        1.5120  -17.1971  -47.0190 H         1 UNK         0.0600 
    128 H128        3.0378  -16.3605  -47.2890 H         1 UNK         0.0600 
    129 H129        2.1271  -16.0710  -45.8030 H         1 UNK         0.0600 
    130 H130       -0.4690  -16.0575  -47.3267 H         1 UNK         0.3000 
    131 H131       -1.9387  -14.6973  -48.1788 H         1 UNK         0.0600 
    132 H132       -1.5028  -13.5398  -50.3105 H         1 UNK         0.0800 
    133 H133        0.2206  -13.7124  -50.1171 H         1 UNK         0.0800 
    134 H134        1.5700  -15.6022  -50.4867 H         1 UNK         0.0800 
    135 H135        1.0589  -15.4673  -52.1499 H         1 UNK         0.0800 
    136 H136        0.3190  -17.5928  -53.3881 H         1 UNK         0.1150 
    137 H137        2.1341  -21.2186  -52.0039 H         1 UNK         0.1150 
    138 H138        2.2324  -17.7002  -49.5560 H         1 UNK         0.1150 
    139 H139        2.8940  -21.4160  -49.7565 H         1 UNK         0.0800 
    140 H140        4.0883  -20.1418  -49.7119 H         1 UNK         0.0800 
    141 H141        0.4374  -20.2558  -48.9225 H         1 UNK         0.0800 
    142 H142        0.2443  -19.5176  -47.3582 H         1 UNK         0.0800 
    143 H143        1.0642  -22.4359  -47.7311 H         1 UNK         0.0600 
    144 H144        0.7623  -20.8622  -45.3798 H         1 UNK         0.3000 
    145 H145        0.2602  -23.6537  -43.1429 H         1 UNK         0.0600 
    146 H146        2.1227  -22.4409  -42.0597 H         1 UNK         0.0600 
    147 H147        2.6974  -23.2669  -43.5001 H         1 UNK         0.0600 
    148 H148        2.4330  -21.5289  -43.5345 H         1 UNK         0.0600 
    149 H149        0.1795  -20.8641  -42.6334 H         1 UNK         0.3000 
    150 H150       -3.3585  -20.4251  -43.1302 H         1 UNK         0.0600 
    151 H151       -3.0094  -21.3686  -40.8351 H         1 UNK         0.0600 
    152 H152       -3.1432  -19.6172  -40.8098 H         1 UNK         0.0600 
    153 H153       -1.5637  -20.3820  -40.6477 H         1 UNK         0.0600 
    154 H154       -1.3836  -18.5632  -42.3343 H         1 UNK         0.3000 
    155 H155       -0.4255  -17.4884  -45.6390 H         1 UNK         0.0600 
    156 H156       -1.8992  -16.1649  -43.3064 H         1 UNK         0.0600 
    157 H157       -2.4469  -16.2096  -44.9769 H         1 UNK         0.0600 
    158 H158       -0.9884  -15.3219  -44.5576 H         1 UNK         0.0600 
    159 H159        0.5860  -16.6769  -43.1276 H         1 UNK         0.3000 
    160 H160        3.1679  -19.1463  -42.8130 H         1 UNK         0.0600 
    161 H161        4.4609  -17.0352  -42.6028 H         1 UNK         0.0600 
    162 H162        3.1524  -16.1254  -43.3544 H         1 UNK         0.0600 
    163 H163        4.0310  -17.3333  -44.2799 H         1 UNK         0.0600 
    164 H164        2.2114  -16.9444  -41.1978 H         1 UNK         0.3000 
    165 H165        0.1028  -18.9076  -39.0917 H         1 UNK         0.0600 
    166 H166        1.6074  -17.9612  -37.3658 H         1 UNK         0.0600 
    167 H167        2.4200  -19.2609  -38.2231 H         1 UNK         0.0600 
    168 H168        2.8251  -17.5874  -38.5858 H         1 UNK         0.0600 
    169 H169        0.8604  -16.1473  -39.0591 H         1 UNK         0.3000 
    170 H170       -1.7033  -14.9437  -41.2156 H         1 UNK         0.0600 
    171 H171       -2.8606  -15.3210  -39.0297 H         1 UNK         0.0600 
    172 H172       -1.4328  -14.7588  -38.1686 H         1 UNK         0.0600 
    173 H173       -2.3370  -13.6543  -39.2053 H         1 UNK         0.0600 
    174 H174        0.0986  -13.4631  -39.6935 H         1 UNK         0.3000 
    175 H175        1.6416  -12.2433  -40.8293 H         1 UNK         0.0600 
    176 H176        3.7062  -14.5194  -40.8644 H         1 UNK         0.0600 
    177 H177        3.9976  -12.8694  -40.3131 H         1 UNK         0.0600 
    178 H178        2.8960  -13.9089  -39.4267 H         1 UNK         0.0600 
    179 H179        3.5679  -12.9253  -42.7574 H         1 UNK         0.3000 
    180 H180        3.1978  -11.0158  -44.7478 H         1 UNK         0.0600 
    181 H181        3.1987  -14.0284  -45.2807 H         1 UNK         0.0600 
    182 H182        4.4799  -13.0759  -44.5441 H         1 UNK         0.0600 
    183 H183        4.1141  -12.8731  -46.2443 H         1 UNK         0.0600 
    184 H184        1.6709  -12.5189  -46.7093 H         1 UNK         0.3000 
    185 H185       -0.8760  -10.2570  -47.1965 H         1 UNK         0.0600 
    186 H186        0.7567   -8.6991  -48.2512 H         1 UNK         0.0600 
    187 H187        1.6020  -10.0528  -48.9920 H         1 UNK         0.0600 
    188 H188       -0.0520   -9.6688  -49.4712 H         1 UNK         0.0600 
    189 H189        0.5307  -12.2363  -48.8386 H         1 UNK         0.3000 
    190 H190       -1.9023  -21.0748  -46.1989 H         1 UNK         0.3000 
    191 H191       -3.6930  -21.8503  -48.2587 H         1 UNK         0.0600 
    192 H192       -4.1896  -21.4553  -45.2666 H         1 UNK         0.0600 
    193 H193       -5.4391  -21.5636  -46.5017 H         1 UNK         0.0600 
    194 H194       -4.3098  -20.2205  -46.5218 H         1 UNK         0.0600 
    195 H195       -2.3987  -23.6789  -45.4856 H         1 UNK         0.3000 
    196 H196       -4.0206  -26.0312  -45.9575 H         1 UNK         0.0600 
    197 H197       -2.4766  -27.0682  -44.2991 H         1 UNK         0.0600 
    198 H198       -3.0943  -25.5266  -43.7236 H         1 UNK         0.0600 
    199 H199       -1.4488  -25.6407  -44.3388 H         1 UNK         0.0600 
    200 H200       -0.5894  -25.1716  -46.6731 H         1 UNK         0.3000 
    201 H201       -0.0318  -27.7344  -47.8360 H         1 UNK         0.0600 
    202 H202        1.6499  -26.4329  -46.5745 H         1 UNK         0.0600 
    203 H203        1.6143  -25.1548  -47.7872 H         1 UNK         0.0600 
    204 H204        2.2210  -26.7528  -48.2052 H         1 UNK         0.0600 
    205 H205       -0.4946  -24.4638  -49.2961 H         1 UNK         0.3000 
    206 H206       -0.0150  -25.6151  -52.0149 H         1 UNK         0.0600 
    207 H207        1.6040  -23.8869  -51.2024 H         1 UNK         0.0600 
    208 H208        0.6800  -23.3181  -52.5841 H         1 UNK         0.0600 
    209 H209        0.2776  -22.7483  -50.9728 H         1 UNK         0.0600 
    210 H210       -2.5187  -24.4361  -50.0307 H         1 UNK         0.3000 
    211 H211       -4.6262  -23.7936  -50.3069 H         1 UNK         0.0600 
    212 H212       -4.5269  -24.4697  -53.2787 H         1 UNK         0.0600 
    213 H213       -5.9369  -24.3554  -52.2303 H         1 UNK         0.0600 
    214 H214       -4.7922  -25.6643  -52.0086 H         1 UNK         0.0600 
    215 H215       -2.5282  -21.9747  -50.3302 H         1 UNK         0.3000 
    216 H216       -3.0652  -19.7416  -52.0804 H         1 UNK         0.0600 
    217 H217       -1.4415  -18.6143  -50.6826 H         1 UNK         0.0600 
    218 H218       -0.8823  -20.2681  -50.8238 H         1 UNK         0.0600 
    219 H219       -1.7017  -19.7242  -49.3486 H         1 UNK         0.0600 
    220 H220       -3.5212  -17.5599  -50.9463 H         1 UNK         0.3000 
    221 H221       -4.9073  -16.0895  -50.1140 H         1 UNK         0.0600 
    222 H222       -5.8400  -18.1344  -48.0325 H         1 UNK         0.0600 
    223 H223       -4.4503  -17.0639  -47.8601 H         1 UNK         0.0600 
    224 H224       -6.0713  -16.3958  -47.9794 H         1 UNK         0.0600 
    225 H225       -6.5069  -19.2386  -50.4215 H         1 UNK         0.3000 
    226 H226       -8.9519  -18.2334  -51.6744 H         1 UNK         0.0600 
    227 H227       -8.8831  -20.4388  -50.5030 H         1 UNK         0.0600 
    228 H228       -9.2766  -20.6589  -52.2013 H         1 UNK         0.0600 
    229 H229       -7.6523  -21.0174  -51.6263 H         1 UNK         0.0600 
    230 H230       -5.6948  -18.7211  -52.6127 H         1 UNK         0.3000 
    231 H231       -4.4715  -18.4716  -54.4307 H         1 UNK         0.0600 
    232 H232       -5.6996  -16.3002  -54.6243 H         1 UNK         0.0600 
    233 H233       -6.8810  -17.0606  -55.6892 H         1 UNK         0.0600 
    234 H234       -5.2026  -16.9174  -56.1911 H         1 UNK         0.0600 
    235 H235       -5.5491  -20.9795  -54.1139 H         1 UNK         0.3000 
    236 H236       -6.1939  -21.9550  -56.8587 H         1 UNK         0.0600 
    237 H237       -6.9797  -23.9883  -55.6466 H         1 UNK         0.0600 
    238 H238       -6.5755  -23.2283  -54.1106 H         1 UNK         0.0600 
    239 H239       -7.8367  -22.5473  -55.1268 H         1 UNK         0.0600 
    240 H240       -3.4979  -21.0965  -55.6747 H         1 UNK         0.3000 
    241 H241       -1.7361  -23.2734  -55.4561 H         1 UNK         0.0600 
    242 H242       -0.8514  -24.4852  -58.6718 H         1 UNK         0.3800 
    243 H243       -0.6000  -24.5913  -56.9526 H         1 UNK         0.3800 
    244 H244        0.0189  -21.6071  -56.2170 H         1 UNK         0.0800 
    245 H245       -1.2432  -20.4548  -56.5586 H         1 UNK         0.0800 
    246 H246        1.4747  -21.0163  -54.3166 H         1 UNK         0.0800 
    247 H247        0.9916  -19.4696  -54.9673 H         1 UNK         0.0800 
@<TRIPOS>BOND
     1    1    2 1    
     2    1  127 1    
     3    1  128 1    
     4    1  129 1    
     5    2    3 2    
     6    2    4 am   BACKBONE|DICT|INTERRES
     7    4    5 1    
     8    4  130 1    
     9    5    6 1    
    10    5   65 1    
    11    5  131 1    
    12    6    7 1    
    13    6  132 1    
    14    6  133 1    
    15    7    8 1    
    16    8    9 1    
    17    8  134 1    
    18    8  135 1    
    19    9   10 ar   
    20    9   14 ar   
    21   10   11 ar   
    22   10  136 1    
    23   11   12 ar   
    24   11  126 1    
    25   12   13 ar   
    26   12  137 1    
    27   13   14 ar   
    28   13   15 1    
    29   14  138 1    
    30   15   16 1    
    31   15  139 1    
    32   15  140 1    
    33   16   17 1    
    34   17   18 1    
    35   17  141 1    
    36   17  142 1    
    37   18   19 1    
    38   18   67 1    
    39   18  143 1    
    40   19   20 am   BACKBONE|DICT|INTERRES
    41   19  144 1    
    42   20   21 2    
    43   20   22 1    
    44   22   23 1    
    45   22   24 1    
    46   22  145 1    
    47   23  146 1    
    48   23  147 1    
    49   23  148 1    
    50   24   25 am   BACKBONE|DICT|INTERRES
    51   24  149 1    
    52   25   26 2    
    53   25   27 1    
    54   27   28 1    
    55   27   29 1    
    56   27  150 1    
    57   28  151 1    
    58   28  152 1    
    59   28  153 1    
    60   29   30 am   BACKBONE|DICT|INTERRES
    61   29  154 1    
    62   30   31 2    
    63   30   32 1    
    64   32   33 1    
    65   32   34 1    
    66   32  155 1    
    67   33  156 1    
    68   33  157 1    
    69   33  158 1    
    70   34   35 am   BACKBONE|DICT|INTERRES
    71   34  159 1    
    72   35   36 2    
    73   35   37 1    
    74   37   38 1    
    75   37   39 1    
    76   37  160 1    
    77   38  161 1    
    78   38  162 1    
    79   38  163 1    
    80   39   40 am   BACKBONE|DICT|INTERRES
    81   39  164 1    
    82   40   41 2    
    83   40   42 1    
    84   42   43 1    
    85   42   44 1    
    86   42  165 1    
    87   43  166 1    
    88   43  167 1    
    89   43  168 1    
    90   44   45 am   BACKBONE|DICT|INTERRES
    91   44  169 1    
    92   45   46 2    
    93   45   47 1    
    94   47   48 1    
    95   47   49 1    
    96   47  170 1    
    97   48  171 1    
    98   48  172 1    
    99   48  173 1    
   100   49   50 am   BACKBONE|DICT|INTERRES
   101   49  174 1    
   102   50   51 2    
   103   50   52 1    
   104   52   53 1    
   105   52   54 1    
   106   52  175 1    
   107   53  176 1    
   108   53  177 1    
   109   53  178 1    
   110   54   55 am   BACKBONE|DICT|INTERRES
   111   54  179 1    
   112   55   56 2    
   113   55   57 1    
   114   57   58 1    
   115   57   59 1    
   116   57  180 1    
   117   58  181 1    
   118   58  182 1    
   119   58  183 1    
   120   59   60 am   BACKBONE|DICT|INTERRES
   121   59  184 1    
   122   60   61 2    
   123   60   62 1    
   124   62   63 1    
   125   62   64 1    
   126   62  185 1    
   127   63  186 1    
   128   63  187 1    
   129   63  188 1    
   130   64   65 am   BACKBONE|DICT|INTERRES
   131   64  189 1    
   132   65   66 2    
   133   67   68 2    
   134   67   69 am   BACKBONE|DICT|INTERRES
   135   69   70 1    
   136   69  190 1    
   137   70   71 1    
   138   70   72 1    
   139   70  191 1    
   140   71  192 1    
   141   71  193 1    
   142   71  194 1    
   143   72   73 2    
   144   72   74 am   BACKBONE|DICT|INTERRES
   145   74   75 1    
   146   74  195 1    
   147   75   76 1    
   148   75   77 1    
   149   75  196 1    
   150   76  197 1    
   151   76  198 1    
   152   76  199 1    
   153   77   78 2    
   154   77   79 am   BACKBONE|DICT|INTERRES
   155   79   80 1    
   156   79  200 1    
   157   80   81 1    
   158   80   82 1    
   159   80  201 1    
   160   81  202 1    
   161   81  203 1    
   162   81  204 1    
   163   82   83 2    
   164   82   84 am   BACKBONE|DICT|INTERRES
   165   84   85 1    
   166   84  205 1    
   167   85   86 1    
   168   85   87 1    
   169   85  206 1    
   170   86  207 1    
   171   86  208 1    
   172   86  209 1    
   173   87   88 2    
   174   87   89 am   BACKBONE|DICT|INTERRES
   175   89   90 1    
   176   89  210 1    
   177   90   91 1    
   178   90   92 1    
   179   90  211 1    
   180   91  212 1    
   181   91  213 1    
   182   91  214 1    
   183   92   93 2    
   184   92   94 am   BACKBONE|DICT|INTERRES
   185   94   95 1    
   186   94  215 1    
   187   95   96 1    
   188   95   97 1    
   189   95  216 1    
   190   96  217 1    
   191   96  218 1    
   192   96  219 1    
   193   97   98 2    
   194   97   99 am   BACKBONE|DICT|INTERRES
   195   99  100 1    
   196   99  220 1    
   197  100  101 1    
   198  100  102 1    
   199  100  221 1    
   200  101  222 1    
   201  101  223 1    
   202  101  224 1    
   203  102  103 2    
   204  102  104 am   BACKBONE|DICT|INTERRES
   205  104  105 1    
   206  104  225 1    
   207  105  106 1    
   208  105  107 1    
   209  105  226 1    
   210  106  227 1    
   211  106  228 1    
   212  106  229 1    
   213  107  108 2    
   214  107  109 am   BACKBONE|DICT|INTERRES
   215  109  110 1    
   216  109  230 1    
   217  110  111 1    
   218  110  112 1    
   219  110  231 1    
   220  111  232 1    
   221  111  233 1    
   222  111  234 1    
   223  112  113 2    
   224  112  114 am   BACKBONE|DICT|INTERRES
   225  114  115 1    
   226  114  235 1    
   227  115  116 1    
   228  115  117 1    
   229  115  236 1    
   230  116  237 1    
   231  116  238 1    
   232  116  239 1    
   233  117  118 2    
   234  117  119 am   BACKBONE|DICT|INTERRES
   235  119  120 1    
   236  119  240 1    
   237  120  121 1    
   238  120  124 1    
   239  120  241 1    
   240  121  122 am   BACKBONE|DICT|INTERRES
   241  121  123 2    
   242  122  242 1    
   243  122  243 1    
   244  124  125 1    
   245  124  244 1    
   246  124  245 1    
   247  125  126 1    
   248  126  246 1    
   249  126  247 1    
@<TRIPOS>SUBSTRUCTURE
     1 UNK         1 GROUP             0       ****    0 ROOT    
