@<TRIPOS>MOLECULE
3R540
247   249    1
SMALL
USER_CHARGES


@<TRIPOS>ATOM
      1 CA         -3.1147  -18.1012  -47.5463 C.3       0 UNK        -0.1800 
      2 C          -2.2910  -17.0834  -46.7714 C.2       0 UNK         0.5000 
      3 O          -2.7943  -16.4776  -45.8252 O.2       0 UNK        -0.5000 
      4 N          -1.0184  -16.9054  -47.1529 N.am      1 UNK        -0.5000 
      5 CA         -0.0775  -15.9211  -46.5929 C.3       1 UNK         0.1400 
      6 C6          1.2435  -15.8806  -47.3922 C.3       23 UNK        -0.0398 
      7 S7          1.0163  -15.2449  -49.0841 S.3       23 UNK        -0.2404 
      8 C8          2.1738  -16.2938  -50.0183 C.3       23 UNK        -0.0205 
      9 C9          1.6244  -17.6963  -50.2267 C.ar      23 UNK        -0.0193 
     10 C10         0.6636  -17.9255  -51.2135 C.ar      23 UNK        -0.1150 
     11 C11         0.1664  -19.2114  -51.4335 C.ar      23 UNK        -0.0193 
     12 C12         0.6179  -20.2699  -50.6401 C.ar      23 UNK        -0.1150 
     13 C13         1.5814  -20.0582  -49.6483 C.ar      23 UNK        -0.0193 
     14 C14         2.0890  -18.7669  -49.4570 C.ar      23 UNK        -0.1150 
     15 C15         2.0953  -21.2508  -48.8436 C.3       23 UNK        -0.0205 
     16 S16         2.5387  -20.8781  -47.1118 S.3       23 UNK        -0.2404 
     17 C17         0.9039  -20.5539  -46.3720 C.3       23 UNK        -0.0398 
     18 CA          0.2075  -21.8520  -45.8968 C.3       11 UNK         0.1400 
     19 N           1.0218  -22.6144  -44.9462 N.am      11 UNK        -0.5000 
     20 C           0.8879  -23.9269  -44.7103 C.2       10 UNK         0.5000 
     21 O           0.0441  -24.6296  -45.2663 O.2       10 UNK        -0.5000 
     22 CA          1.7943  -24.5463  -43.6272 C.3       10 UNK         0.1400 
     23 CB          3.0800  -25.0969  -44.2609 C.3       10 UNK        -0.1800 
     24 N           2.1498  -23.6100  -42.5578 N.am      10 UNK        -0.5000 
     25 C           1.2738  -22.9489  -41.7879 C.2       9 UNK         0.5000 
     26 O           0.0584  -23.1328  -41.8391 O.2       9 UNK        -0.5000 
     27 CA          1.8304  -21.8603  -40.8488 C.3       9 UNK         0.1400 
     28 CB          1.9125  -22.3896  -39.4094 C.3       9 UNK        -0.1800 
     29 N           3.1371  -21.3096  -41.2300 N.am      9 UNK        -0.5000 
     30 C           3.4443  -20.7320  -42.4002 C.2       8 UNK         0.5000 
     31 O           2.6784  -20.6810  -43.3657 O.2       8 UNK        -0.5000 
     32 CA          4.8767  -20.1785  -42.5174 C.3       8 UNK         0.1400 
     33 CB          5.8563  -21.3152  -42.8506 C.3       8 UNK        -0.1800 
     34 N           4.9995  -19.1440  -43.5437 N.am      8 UNK        -0.5000 
     35 C           4.4105  -17.9430  -43.5072 C.2       7 UNK         0.5000 
     36 O           3.7316  -17.5307  -42.5613 O.2       7 UNK        -0.5000 
     37 CA          4.6254  -17.0589  -44.7442 C.3       7 UNK         0.1400 
     38 CB          3.9775  -17.6789  -45.9931 C.3       7 UNK        -0.1800 
     39 N           4.0556  -15.7403  -44.4937 N.am      7 UNK        -0.5000 
     40 C           4.4967  -14.5853  -45.0043 C.2       6 UNK         0.5000 
     41 O           5.4138  -14.5126  -45.8232 O.2       6 UNK        -0.5000 
     42 CA          3.8141  -13.2908  -44.5211 C.3       6 UNK         0.1400 
     43 CB          3.0907  -12.5761  -45.6750 C.3       6 UNK        -0.1800 
     44 N           2.8431  -13.5388  -43.4565 N.am      6 UNK        -0.5000 
     45 C           3.0526  -13.3524  -42.1472 C.2       5 UNK         0.5000 
     46 O           4.1267  -12.9754  -41.6751 O.2       5 UNK        -0.5000 
     47 CA          1.8493  -13.6355  -41.2197 C.3       5 UNK         0.1400 
     48 CB          1.9434  -12.9072  -39.8631 C.3       5 UNK        -0.1800 
     49 N           0.5598  -13.3748  -41.8710 N.am      5 UNK        -0.5000 
     50 C           0.1037  -12.2080  -42.3567 C.2       4 UNK         0.5000 
     51 O           0.6810  -11.1302  -42.2103 O.2       4 UNK        -0.5000 
     52 CA         -1.1982  -12.2520  -43.1837 C.3       4 UNK         0.1400 
     53 CB         -0.9060  -11.9237  -44.6577 C.3       4 UNK        -0.1800 
     54 N          -1.8574  -13.5569  -43.1258 N.am      4 UNK        -0.5000 
     55 C          -2.7066  -13.9496  -42.1675 C.2       3 UNK         0.5000 
     56 O          -3.1009  -13.2189  -41.2584 O.2       3 UNK        -0.5000 
     57 CA         -3.1656  -15.4193  -42.2199 C.3       3 UNK         0.1400 
     58 CB         -4.4945  -15.5453  -42.9796 C.3       3 UNK        -0.1800 
     59 N          -2.1691  -16.2998  -42.8372 N.am      3 UNK        -0.5000 
     60 C          -1.0048  -16.6415  -42.2625 C.2       2 UNK         0.5000 
     61 O          -0.6534  -16.2482  -41.1510 O.2       2 UNK        -0.5000 
     62 CA         -0.0538  -17.5372  -43.0788 C.3       2 UNK         0.1400 
     63 CB         -0.3946  -19.0098  -42.8253 C.3       2 UNK        -0.1800 
     64 N          -0.1083  -17.2675  -44.5168 N.am      2 UNK        -0.5000 
     65 C           0.2183  -16.0991  -45.0864 C.2       1 UNK         0.5000 
     66 O           0.7042  -15.1572  -44.4584 O.2       1 UNK        -0.5000 
     67 C          -1.2228  -21.5733  -45.3833 C.2       11 UNK         0.5000 
     68 O          -2.0308  -21.0606  -46.1541 O.2       11 UNK        -0.5000 
     69 N          -1.5366  -21.9179  -44.1228 N.am      12 UNK        -0.5000 
     70 CA         -2.9098  -21.9299  -43.6103 C.3       12 UNK         0.1400 
     71 CB         -2.9054  -21.8196  -42.0775 C.3       12 UNK        -0.1800 
     72 C          -3.6593  -23.2004  -44.0533 C.2       12 UNK         0.5000 
     73 O          -4.8737  -23.1488  -44.2469 O.2       12 UNK        -0.5000 
     74 N          -2.9251  -24.3109  -44.2194 N.am      13 UNK        -0.5000 
     75 CA         -3.4332  -25.5578  -44.7872 C.3       13 UNK         0.1400 
     76 CB         -2.6032  -26.7435  -44.2696 C.3       13 UNK        -0.1800 
     77 C          -3.4106  -25.4828  -46.3215 C.2       13 UNK         0.5000 
     78 O          -4.4363  -25.7116  -46.9629 O.2       13 UNK        -0.5000 
     79 N          -2.2581  -25.0926  -46.8822 N.am      14 UNK        -0.5000 
     80 CA         -2.0414  -24.8528  -48.3097 C.3       14 UNK         0.1400 
     81 CB         -0.5621  -25.1234  -48.6398 C.3       14 UNK        -0.1800 
     82 C          -2.4932  -23.4362  -48.7249 C.2       14 UNK         0.5000 
     83 O          -1.7655  -22.7312  -49.4273 O.2       14 UNK        -0.5000 
     84 N          -3.6945  -23.0366  -48.2884 N.am      15 UNK        -0.5000 
     85 CA         -4.3015  -21.7238  -48.5153 C.3       15 UNK         0.1400 
     86 CB         -5.3190  -21.4427  -47.3963 C.3       15 UNK        -0.1800 
     87 C          -4.9145  -21.5997  -49.9250 C.2       15 UNK         0.5000 
     88 O          -6.0815  -21.2337  -50.0747 O.2       15 UNK        -0.5000 
     89 N          -4.1047  -21.9006  -50.9471 N.am      16 UNK        -0.5000 
     90 CA         -4.4747  -21.8689  -52.3638 C.3       16 UNK         0.1400 
     91 CB         -3.4341  -22.6676  -53.1645 C.3       16 UNK        -0.1800 
     92 C          -4.6436  -20.4445  -52.9316 C.2       16 UNK         0.5000 
     93 O          -5.1179  -20.3028  -54.0570 O.2       16 UNK        -0.5000 
     94 N          -4.2693  -19.4207  -52.1473 N.am      17 UNK        -0.5000 
     95 CA         -4.3535  -17.9890  -52.4608 C.3       17 UNK         0.1400 
     96 CB         -3.7491  -17.1954  -51.2891 C.3       17 UNK        -0.1800 
     97 C          -5.7801  -17.4777  -52.7458 C.2       17 UNK         0.5000 
     98 O          -5.9345  -16.4340  -53.3805 O.2       17 UNK        -0.5000 
     99 N          -6.7938  -18.2169  -52.2763 N.am      18 UNK        -0.5000 
    100 CA        -8.2130  -17.9583  -52.5196 C.3       18 UNK         0.1400 
    101 CB        -9.0332  -18.7951  -51.5245 C.3       18 UNK        -0.1800 
    102 C         -8.6617  -18.2479  -53.9691 C.2       18 UNK         0.5000 
    103 O         -9.7765  -17.8708  -54.3340 O.2       18 UNK        -0.5000 
    104 N         -7.8146  -18.9164  -54.7611 N.am      19 UNK        -0.5000 
    105 CA        -8.0672  -19.2988  -56.1454 C.3       19 UNK         0.1400 
    106 CB        -8.5121  -20.7744  -56.1646 C.3       19 UNK        -0.1800 
    107 C         -6.8038  -19.0739  -56.9950 C.2       19 UNK         0.5000 
    108 O         -5.7815  -18.6021  -56.4932 O.2       19 UNK        -0.5000 
    109 N         -6.8850  -19.4535  -58.2759 N.am      20 UNK        -0.5000 
    110 CA        -5.7621  -19.4765  -59.2203 C.3       20 UNK         0.1400 
    111 CB        -6.3274  -19.4019  -60.6488 C.3       20 UNK        -0.1800 
    112 C         -4.8505  -20.7148  -59.0505 C.2       20 UNK         0.5000 
    113 O         -3.9017  -20.8784  -59.8178 O.2       20 UNK        -0.5000 
    114 N         -5.1641  -21.5768  -58.0725 N.am      21 UNK        -0.5000 
    115 CA        -4.4730  -22.8300  -57.7689 C.3       21 UNK         0.1400 
    116 CB        -5.3296  -23.6277  -56.7724 C.3       21 UNK        -0.1800 
    117 C         -3.0407  -22.6540  -57.2268 C.2       21 UNK         0.5000 
    118 O         -2.2422  -23.5845  -57.3449 O.2       21 UNK        -0.5000 
    119 N         -2.7410  -21.4902  -56.6336 N.am      22 UNK        -0.5000 
    120 CA        -1.4036  -21.1311  -56.1399 C.3       22 UNK         0.1400 
    121 C         -0.3709  -20.9871  -57.2955 C.2       22 UNK         0.5000 
    122 N          0.7813  -21.6368  -57.2001 N.am      22 UNK        -0.7600 
    123 O         -0.5953  -20.2612  -58.2612 O.2       22 UNK        -0.5000 
    124 C124       -1.4545  -19.8524  -55.2661 C.3       23 UNK        -0.0398 
    125 S125       -0.0252  -19.7355  -54.1342 S.3       23 UNK        -0.2404 
    126 C126       -0.8460  -19.4527  -52.5389 C.3       23 UNK        -0.0205 
    127 H127       -3.4830  -18.8733  -46.8711 H         1 UNK         0.0600 
    128 H128       -2.5316  -18.5833  -48.3314 H         1 UNK         0.0600 
    129 H129       -3.9747  -17.6143  -48.0046 H         1 UNK         0.0600 
    130 H130       -0.6722  -17.4195  -47.9507 H         1 UNK         0.3000 
    131 H131       -0.5538  -14.9425  -46.6829 H         1 UNK         0.0600 
    132 H132        1.9905  -15.2515  -46.9076 H         1 UNK         0.0800 
    133 H133        1.6709  -16.8802  -47.4360 H         1 UNK         0.0800 
    134 H134        2.3592  -15.8327  -50.9896 H         1 UNK         0.0800 
    135 H135        3.1380  -16.3234  -49.5081 H         1 UNK         0.0800 
    136 H136        0.3140  -17.1029  -51.8218 H         1 UNK         0.1150 
    137 H137        0.2322  -21.2658  -50.8105 H         1 UNK         0.1150 
    138 H138        2.8533  -18.5937  -48.7133 H         1 UNK         0.1150 
    139 H139        1.3593  -22.0565  -48.8489 H         1 UNK         0.0800 
    140 H140        2.9804  -21.6415  -49.3466 H         1 UNK         0.0800 
    141 H141        0.2880  -20.0227  -47.0998 H         1 UNK         0.0800 
    142 H142        1.0507  -19.8694  -45.5365 H         1 UNK         0.0800 
    143 H143        0.0732  -22.4753  -46.7823 H         1 UNK         0.0600 
    144 H144        1.7171  -22.0818  -44.4308 H         1 UNK         0.3000 
    145 H145        1.2471  -25.3761  -43.1753 H         1 UNK         0.0600 
    146 H146        3.6950  -25.6125  -43.5231 H         1 UNK         0.0600 
    147 H147        2.8501  -25.8145  -45.0497 H         1 UNK         0.0600 
    148 H148        3.6812  -24.3021  -44.7047 H         1 UNK         0.0600 
    149 H149        3.1288  -23.3880  -42.4574 H         1 UNK         0.3000 
    150 H150        1.1168  -21.0347  -40.8661 H         1 UNK         0.0600 
    151 H151        2.6423  -23.1950  -39.3188 H         1 UNK         0.0600 
    152 H152        0.9488  -22.7811  -39.0801 H         1 UNK         0.0600 
    153 H153        2.1939  -21.5996  -38.7128 H         1 UNK         0.0600 
    154 H154        3.8443  -21.3312  -40.5092 H         1 UNK         0.3000 
    155 H155        5.1575  -19.7377  -41.5586 H         1 UNK         0.0600 
    156 H156        5.6162  -21.7855  -43.8053 H         1 UNK         0.0600 
    157 H157        5.8334  -22.0936  -42.0868 H         1 UNK         0.0600 
    158 H158        6.8819  -20.9493  -42.9053 H         1 UNK         0.0600 
    159 H159        5.5065  -19.4078  -44.3753 H         1 UNK         0.3000 
    160 H160        5.7018  -16.9634  -44.9017 H         1 UNK         0.0600 
    161 H161        2.9274  -17.9129  -45.8173 H         1 UNK         0.0600 
    162 H162        4.4744  -18.6080  -46.2730 H         1 UNK         0.0600 
    163 H163        4.0455  -17.0108  -46.8515 H         1 UNK         0.0600 
    164 H164        3.3433  -15.7209  -43.7752 H         1 UNK         0.3000 
    165 H165        4.6049  -12.6297  -44.1608 H         1 UNK         0.0600 
    166 H166        2.7173  -11.6031  -45.3553 H         1 UNK         0.0600 
    167 H167        3.7604  -12.4045  -46.5186 H         1 UNK         0.0600 
    168 H168        2.2392  -13.1500  -46.0388 H         1 UNK         0.0600 
    169 H169        1.9456  -13.9138  -43.7537 H         1 UNK         0.3000 
    170 H170        1.8727  -14.7076  -41.0186 H         1 UNK         0.0600 
    171 H171        2.8299  -13.2221  -39.3116 H         1 UNK         0.0600 
    172 H172        2.0030  -11.8254  -39.9851 H         1 UNK         0.0600 
    173 H173        1.0785  -13.1278  -39.2375 H         1 UNK         0.0600 
    174 H174       -0.0036  -14.1969  -42.0395 H         1 UNK         0.3000 
    175 H175       -1.8690  -11.4867  -42.7879 H         1 UNK         0.0600 
    176 H176       -0.4549  -10.9356  -44.7571 H         1 UNK         0.0600 
    177 H177       -0.2177  -12.6425  -45.1034 H         1 UNK         0.0600 
    178 H178       -1.8206  -11.9226  -45.2508 H         1 UNK         0.0600 
    179 H179       -1.5822  -14.2307  -43.8258 H         1 UNK         0.3000 
    180 H180       -3.3281  -15.7534  -41.1929 H         1 UNK         0.0600 
    181 H181       -4.4023  -15.2061  -44.0121 H         1 UNK         0.0600 
    182 H182       -5.2725  -14.9451  -42.5061 H         1 UNK         0.0600 
    183 H183       -4.8444  -16.5776  -42.9956 H         1 UNK         0.0600 
    184 H184       -2.3705  -16.6151  -43.7805 H         1 UNK         0.3000 
    185 H185        0.9657  -17.3509  -42.7350 H         1 UNK         0.0600 
    186 H186       -0.3610  -19.2418  -41.7603 H         1 UNK         0.0600 
    187 H187       -1.3958  -19.2496  -43.1837 H         1 UNK         0.0600 
    188 H188        0.3096  -19.6738  -43.3207 H         1 UNK         0.0600 
    189 H189       -0.5377  -17.9714  -45.0974 H         1 UNK         0.3000 
    190 H190       -0.8260  -22.3126  -43.5164 H         1 UNK         0.3000 
    191 H191       -3.4452  -21.0639  -44.0059 H         1 UNK         0.0600 
    192 H192       -2.3221  -20.9658  -41.7356 H         1 UNK         0.0600 
    193 H193       -3.9200  -21.6919  -41.6987 H         1 UNK         0.0600 
    194 H194       -2.4973  -22.7145  -41.6075 H         1 UNK         0.0600 
    195 H195       -1.9280  -24.2605  -44.0653 H         1 UNK         0.3000 
    196 H196       -4.4669  -25.7080  -44.4678 H         1 UNK         0.0600 
    197 H197       -2.9786  -27.6849  -44.6725 H         1 UNK         0.0600 
    198 H198       -2.6538  -26.8123  -43.1828 H         1 UNK         0.0600 
    199 H199       -1.5526  -26.6641  -44.5496 H         1 UNK         0.0600 
    200 H200       -1.4585  -24.9162  -46.2773 H         1 UNK         0.3000 
    201 H201       -2.6416  -25.5601  -48.8854 H         1 UNK         0.0600 
    202 H202       -0.3722  -25.0181  -49.7087 H         1 UNK         0.0600 
    203 H203       -0.2761  -26.1372  -48.3593 H         1 UNK         0.0600 
    204 H204        0.1025  -24.4346  -48.1185 H         1 UNK         0.0600 
    205 H205       -4.2437  -23.7010  -47.7577 H         1 UNK         0.3000 
    206 H206       -3.5197  -20.9653  -48.4459 H         1 UNK         0.0600 
    207 H207       -4.8351  -21.4463  -46.4201 H         1 UNK         0.0600 
    208 H208       -5.7796  -20.4617  -47.5195 H         1 UNK         0.0600 
    209 H209       -6.1172  -22.1855  -47.3796 H         1 UNK         0.0600 
    210 H210       -3.1577  -22.1908  -50.7212 H         1 UNK         0.3000 
    211 H211       -5.4392  -22.3690  -52.4738 H         1 UNK         0.0600 
    212 H212       -2.4378  -22.2331  -53.0919 H         1 UNK         0.0600 
    213 H213       -3.6984  -22.7053  -54.2205 H         1 UNK         0.0600 
    214 H214       -3.3743  -23.6977  -52.8129 H         1 UNK         0.0600 
    215 H215       -3.9099  -19.6524  -51.2341 H         1 UNK         0.3000 
    216 H216       -3.7557  -17.8095  -53.3565 H         1 UNK         0.0600 
    217 H217       -3.6961  -16.1320  -51.5259 H         1 UNK         0.0600 
    218 H218       -2.7384  -17.5214  -51.0466 H         1 UNK         0.0600 
    219 H219       -4.3542  -17.2975  -50.3879 H         1 UNK         0.0600 
    220 H220       -6.5719  -19.0555  -51.7582 H         1 UNK         0.3000 
    221 H221       -8.4087  -16.9022  -52.3230 H         1 UNK         0.0600 
    222 H222       -8.8673  -19.8638  -51.6671 H         1 UNK         0.0600 
    223 H223       -8.7734  -18.5502  -50.4944 H         1 UNK         0.0600 
    224 H224      -10.1017  -18.6094  -51.6413 H         1 UNK         0.0600 
    225 H225       -6.8853  -19.1445  -54.4219 H         1 UNK         0.3000 
    226 H226       -8.8565  -18.6773  -56.5730 H         1 UNK         0.0600 
    227 H227       -8.7723  -21.1067  -57.1699 H         1 UNK         0.0600 
    228 H228       -7.7286  -21.4338  -55.7884 H         1 UNK         0.0600 
    229 H229       -9.3956  -20.9241  -55.5436 H         1 UNK         0.0600 
    230 H230       -7.7596  -19.8223  -58.6216 H         1 UNK         0.3000 
    231 H231       -5.1410  -18.5936  -59.0552 H         1 UNK         0.0600 
    232 H232       -6.9419  -20.2717  -60.8841 H         1 UNK         0.0600 
    233 H233       -5.5262  -19.3563  -61.3876 H         1 UNK         0.0600 
    234 H234       -6.9401  -18.5104  -60.7844 H         1 UNK         0.0600 
    235 H235       -5.9575  -21.3538  -57.4921 H         1 UNK         0.3000 
    236 H236       -4.4001  -23.4048  -58.6944 H         1 UNK         0.0600 
    237 H237       -6.3064  -23.8651  -57.1942 H         1 UNK         0.0600 
    238 H238       -4.8518  -24.5730  -56.5113 H         1 UNK         0.0600 
    239 H239       -5.4907  -23.0736  -55.8468 H         1 UNK         0.0600 
    240 H240       -3.4522  -20.7746  -56.5900 H         1 UNK         0.3000 
    241 H241       -1.0888  -21.9582  -55.4998 H         1 UNK         0.0600 
    242 H242        0.9897  -22.2255  -56.4085 H         1 UNK         0.3800 
    243 H243        1.4623  -21.5398  -57.9371 H         1 UNK         0.3800 
    244 H244       -1.5036  -18.9511  -55.8799 H         1 UNK         0.0800 
    245 H245       -2.3660  -19.8501  -54.6695 H         1 UNK         0.0800 
    246 H246       -1.4968  -18.5858  -52.6369 H         1 UNK         0.0800 
    247 H247       -1.4795  -20.3022  -52.2872 H         1 UNK         0.0800 
@<TRIPOS>BOND
     1    1    2 1    
     2    1  127 1    
     3    1  128 1    
     4    1  129 1    
     5    2    3 2    
     6    2    4 am   BACKBONE|DICT|INTERRES
     7    4    5 1    
     8    4  130 1    
     9    5    6 1    
    10    5   65 1    
    11    5  131 1    
    12    6    7 1    
    13    6  132 1    
    14    6  133 1    
    15    7    8 1    
    16    8    9 1    
    17    8  134 1    
    18    8  135 1    
    19    9   10 ar   
    20    9   14 ar   
    21   10   11 ar   
    22   10  136 1    
    23   11   12 ar   
    24   11  126 1    
    25   12   13 ar   
    26   12  137 1    
    27   13   14 ar   
    28   13   15 1    
    29   14  138 1    
    30   15   16 1    
    31   15  139 1    
    32   15  140 1    
    33   16   17 1    
    34   17   18 1    
    35   17  141 1    
    36   17  142 1    
    37   18   19 1    
    38   18   67 1    
    39   18  143 1    
    40   19   20 am   BACKBONE|DICT|INTERRES
    41   19  144 1    
    42   20   21 2    
    43   20   22 1    
    44   22   23 1    
    45   22   24 1    
    46   22  145 1    
    47   23  146 1    
    48   23  147 1    
    49   23  148 1    
    50   24   25 am   BACKBONE|DICT|INTERRES
    51   24  149 1    
    52   25   26 2    
    53   25   27 1    
    54   27   28 1    
    55   27   29 1    
    56   27  150 1    
    57   28  151 1    
    58   28  152 1    
    59   28  153 1    
    60   29   30 am   BACKBONE|DICT|INTERRES
    61   29  154 1    
    62   30   31 2    
    63   30   32 1    
    64   32   33 1    
    65   32   34 1    
    66   32  155 1    
    67   33  156 1    
    68   33  157 1    
    69   33  158 1    
    70   34   35 am   BACKBONE|DICT|INTERRES
    71   34  159 1    
    72   35   36 2    
    73   35   37 1    
    74   37   38 1    
    75   37   39 1    
    76   37  160 1    
    77   38  161 1    
    78   38  162 1    
    79   38  163 1    
    80   39   40 am   BACKBONE|DICT|INTERRES
    81   39  164 1    
    82   40   41 2    
    83   40   42 1    
    84   42   43 1    
    85   42   44 1    
    86   42  165 1    
    87   43  166 1    
    88   43  167 1    
    89   43  168 1    
    90   44   45 am   BACKBONE|DICT|INTERRES
    91   44  169 1    
    92   45   46 2    
    93   45   47 1    
    94   47   48 1    
    95   47   49 1    
    96   47  170 1    
    97   48  171 1    
    98   48  172 1    
    99   48  173 1    
   100   49   50 am   BACKBONE|DICT|INTERRES
   101   49  174 1    
   102   50   51 2    
   103   50   52 1    
   104   52   53 1    
   105   52   54 1    
   106   52  175 1    
   107   53  176 1    
   108   53  177 1    
   109   53  178 1    
   110   54   55 am   BACKBONE|DICT|INTERRES
   111   54  179 1    
   112   55   56 2    
   113   55   57 1    
   114   57   58 1    
   115   57   59 1    
   116   57  180 1    
   117   58  181 1    
   118   58  182 1    
   119   58  183 1    
   120   59   60 am   BACKBONE|DICT|INTERRES
   121   59  184 1    
   122   60   61 2    
   123   60   62 1    
   124   62   63 1    
   125   62   64 1    
   126   62  185 1    
   127   63  186 1    
   128   63  187 1    
   129   63  188 1    
   130   64   65 am   BACKBONE|DICT|INTERRES
   131   64  189 1    
   132   65   66 2    
   133   67   68 2    
   134   67   69 am   BACKBONE|DICT|INTERRES
   135   69   70 1    
   136   69  190 1    
   137   70   71 1    
   138   70   72 1    
   139   70  191 1    
   140   71  192 1    
   141   71  193 1    
   142   71  194 1    
   143   72   73 2    
   144   72   74 am   BACKBONE|DICT|INTERRES
   145   74   75 1    
   146   74  195 1    
   147   75   76 1    
   148   75   77 1    
   149   75  196 1    
   150   76  197 1    
   151   76  198 1    
   152   76  199 1    
   153   77   78 2    
   154   77   79 am   BACKBONE|DICT|INTERRES
   155   79   80 1    
   156   79  200 1    
   157   80   81 1    
   158   80   82 1    
   159   80  201 1    
   160   81  202 1    
   161   81  203 1    
   162   81  204 1    
   163   82   83 2    
   164   82   84 am   BACKBONE|DICT|INTERRES
   165   84   85 1    
   166   84  205 1    
   167   85   86 1    
   168   85   87 1    
   169   85  206 1    
   170   86  207 1    
   171   86  208 1    
   172   86  209 1    
   173   87   88 2    
   174   87   89 am   BACKBONE|DICT|INTERRES
   175   89   90 1    
   176   89  210 1    
   177   90   91 1    
   178   90   92 1    
   179   90  211 1    
   180   91  212 1    
   181   91  213 1    
   182   91  214 1    
   183   92   93 2    
   184   92   94 am   BACKBONE|DICT|INTERRES
   185   94   95 1    
   186   94  215 1    
   187   95   96 1    
   188   95   97 1    
   189   95  216 1    
   190   96  217 1    
   191   96  218 1    
   192   96  219 1    
   193   97   98 2    
   194   97   99 am   BACKBONE|DICT|INTERRES
   195   99  100 1    
   196   99  220 1    
   197  100  101 1    
   198  100  102 1    
   199  100  221 1    
   200  101  222 1    
   201  101  223 1    
   202  101  224 1    
   203  102  103 2    
   204  102  104 am   BACKBONE|DICT|INTERRES
   205  104  105 1    
   206  104  225 1    
   207  105  106 1    
   208  105  107 1    
   209  105  226 1    
   210  106  227 1    
   211  106  228 1    
   212  106  229 1    
   213  107  108 2    
   214  107  109 am   BACKBONE|DICT|INTERRES
   215  109  110 1    
   216  109  230 1    
   217  110  111 1    
   218  110  112 1    
   219  110  231 1    
   220  111  232 1    
   221  111  233 1    
   222  111  234 1    
   223  112  113 2    
   224  112  114 am   BACKBONE|DICT|INTERRES
   225  114  115 1    
   226  114  235 1    
   227  115  116 1    
   228  115  117 1    
   229  115  236 1    
   230  116  237 1    
   231  116  238 1    
   232  116  239 1    
   233  117  118 2    
   234  117  119 am   BACKBONE|DICT|INTERRES
   235  119  120 1    
   236  119  240 1    
   237  120  121 1    
   238  120  124 1    
   239  120  241 1    
   240  121  122 am   BACKBONE|DICT|INTERRES
   241  121  123 2    
   242  122  242 1    
   243  122  243 1    
   244  124  125 1    
   245  124  244 1    
   246  124  245 1    
   247  125  126 1    
   248  126  246 1    
   249  126  247 1    
@<TRIPOS>SUBSTRUCTURE
     1 UNK         1 GROUP             0       ****    0 ROOT    
