@<TRIPOS>MOLECULE
3R540
247   249    1
SMALL
USER_CHARGES


@<TRIPOS>ATOM
      1 CA         -1.2654   -8.8720  -49.3996 C.3       0 UNK        -0.1800 
      2 C          -0.5738  -10.0239  -48.6847 C.2       0 UNK         0.5000 
      3 O          -0.6346  -10.1109  -47.4584 O.2       0 UNK        -0.5000 
      4 N           0.0763  -10.9139  -49.4454 N.am      1 UNK        -0.5000 
      5 CA          0.7961  -12.0906  -48.9393 C.3       1 UNK         0.1400 
      6 C6          1.8340  -12.6266  -49.9614 C.3       23 UNK        -0.0398 
      7 S7          1.1617  -13.0019  -51.6236 S.3       23 UNK        -0.2404 
      8 C8          1.6075  -14.7559  -51.8569 C.3       23 UNK        -0.0205 
      9 C9          0.5276  -15.6921  -51.3361 C.ar      23 UNK        -0.0193 
     10 C10        -0.5792  -15.9930  -52.1351 C.ar      23 UNK        -0.1150 
     11 C11        -1.5913  -16.8349  -51.6638 C.ar      23 UNK        -0.0193 
     12 C12        -1.4894  -17.3766  -50.3807 C.ar      23 UNK        -0.1150 
     13 C13        -0.3994  -17.0640  -49.5637 C.ar      23 UNK        -0.0193 
     14 C14         0.6194  -16.2438  -50.0560 C.ar      23 UNK        -0.1150 
     15 C15        -0.3831  -17.5172  -48.1150 C.3       23 UNK        -0.0205 
     16 S16         0.6517  -18.9811  -47.8471 S.3       23 UNK        -0.2404 
     17 C17         0.1636  -19.3454  -46.1283 C.3       23 UNK        -0.0398 
     18 CA         -0.9256  -20.4383  -46.0928 C.3       11 UNK         0.1400 
     19 N          -0.4253  -21.7367  -46.5516 N.am      11 UNK        -0.5000 
     20 C          -1.1998  -22.7840  -46.8593 C.2       10 UNK         0.5000 
     21 O          -2.4255  -22.7676  -46.7793 O.2       10 UNK        -0.5000 
     22 CA         -0.4817  -24.0722  -47.2964 C.3       10 UNK         0.1400 
     23 CB         -0.0707  -23.9908  -48.7744 C.3       10 UNK        -0.1800 
     24 N           0.6951  -24.3527  -46.4742 N.am      10 UNK        -0.5000 
     25 C           0.6443  -24.6693  -45.1724 C.2       9 UNK         0.5000 
     26 O          -0.4028  -24.8042  -44.5407 O.2       9 UNK        -0.5000 
     27 CA          1.9928  -24.8003  -44.4418 C.3       9 UNK         0.1400 
     28 CB          2.5734  -26.2104  -44.6244 C.3       9 UNK        -0.1800 
     29 N           2.9839  -23.8048  -44.8633 N.am      9 UNK        -0.5000 
     30 C           2.8243  -22.4800  -44.7497 C.2       8 UNK         0.5000 
     31 O           1.7910  -21.9473  -44.3355 O.2       8 UNK        -0.5000 
     32 CA          3.9970  -21.6002  -45.2147 C.3       8 UNK         0.1400 
     33 CB          3.8350  -21.2229  -46.6945 C.3       8 UNK        -0.1800 
     34 N           4.0644  -20.3798  -44.4143 N.am      8 UNK        -0.5000 
     35 C           4.4971  -20.3309  -43.1485 C.2       7 UNK         0.5000 
     36 O           5.0112  -21.2939  -42.5761 O.2       7 UNK        -0.5000 
     37 CA          4.2944  -19.0158  -42.3685 C.3       7 UNK         0.1400 
     38 CB          5.5777  -18.5701  -41.6375 C.3       7 UNK        -0.1800 
     39 N           3.7144  -17.9066  -43.1366 N.am      7 UNK        -0.5000 
     40 C           4.2788  -17.1882  -44.1219 C.2       6 UNK         0.5000 
     41 O           5.3677  -17.4565  -44.6290 O.2       6 UNK        -0.5000 
     42 CA          3.5007  -15.9502  -44.6234 C.3       6 UNK         0.1400 
     43 CB          2.7688  -16.2757  -45.9337 C.3       6 UNK        -0.1800 
     44 N           2.5290  -15.4359  -43.6536 N.am      6 UNK        -0.5000 
     45 C           2.8346  -14.9462  -42.4406 C.2       5 UNK         0.5000 
     46 O           3.9877  -14.7175  -42.0737 O.2       5 UNK        -0.5000 
     47 CA          1.6744  -14.7105  -41.4479 C.3       5 UNK         0.1400 
     48 CB          1.3913  -13.2073  -41.3014 C.3       5 UNK        -0.1800 
     49 N           0.4229  -15.3875  -41.7981 N.am      5 UNK        -0.5000 
     50 C           0.2364  -16.7050  -41.9722 C.2       4 UNK         0.5000 
     51 O           1.1095  -17.5505  -41.7755 O.2       4 UNK        -0.5000 
     52 CA         -1.1361  -17.1432  -42.5272 C.3       4 UNK         0.1400 
     53 CB         -1.9998  -17.7581  -41.4166 C.3       4 UNK        -0.1800 
     54 N          -1.8854  -16.0604  -43.1794 N.am      4 UNK        -0.5000 
     55 C          -1.4835  -15.3998  -44.2749 C.2       3 UNK         0.5000 
     56 O          -0.4350  -15.6545  -44.8714 O.2       3 UNK        -0.5000 
     57 CA         -2.3546  -14.1982  -44.6951 C.3       3 UNK         0.1400 
     58 CB         -1.9557  -12.9516  -43.8889 C.3       3 UNK        -0.1800 
     59 N          -2.2535  -13.8784  -46.1179 N.am      3 UNK        -0.5000 
     60 C          -2.6551  -14.6788  -47.1119 C.2       2 UNK         0.5000 
     61 O          -3.2000  -15.7664  -46.9256 O.2       2 UNK        -0.5000 
     62 CA         -2.4458  -14.1863  -48.5592 C.3       2 UNK         0.1400 
     63 CB         -3.7744  -13.6931  -49.1524 C.3       2 UNK        -0.1800 
     64 N          -1.4297  -13.1483  -48.7621 N.am      2 UNK        -0.5000 
     65 C          -0.1305  -13.2165  -48.4325 C.2       1 UNK         0.5000 
     66 O           0.3605  -14.1186  -47.7594 O.2       1 UNK        -0.5000 
     67 C          -1.5851  -20.5342  -44.7052 C.2       11 UNK         0.5000 
     68 O          -2.6373  -19.9285  -44.4943 O.2       11 UNK        -0.5000 
     69 N          -0.9864  -21.3295  -43.8078 N.am      12 UNK        -0.5000 
     70 CA         -1.5537  -21.6861  -42.5078 C.3       12 UNK         0.1400 
     71 CB         -0.5070  -22.4549  -41.6887 C.3       12 UNK        -0.1800 
     72 C          -2.8610  -22.4921  -42.6397 C.2       12 UNK         0.5000 
     73 O          -3.8116  -22.2361  -41.8997 O.2       12 UNK        -0.5000 
     74 N          -2.9130  -23.4057  -43.6183 N.am      13 UNK        -0.5000 
     75 CA         -4.0891  -24.1874  -44.0045 C.3       13 UNK         0.1400 
     76 CB         -3.6226  -25.4761  -44.7049 C.3       13 UNK        -0.1800 
     77 C          -5.0865  -23.3713  -44.8594 C.2       13 UNK         0.5000 
     78 O          -5.4533  -23.7930  -45.9577 O.2       13 UNK        -0.5000 
     79 N          -5.5243  -22.2271  -44.3167 N.am      14 UNK        -0.5000 
     80 CA         -6.5383  -21.3131  -44.8479 C.3       14 UNK         0.1400 
     81 CB         -7.9235  -21.9941  -44.8734 C.3       14 UNK        -0.1800 
     82 C          -6.1527  -20.6851  -46.2028 C.2       14 UNK         0.5000 
     83 O          -6.8548  -20.8744  -47.1995 O.2       14 UNK        -0.5000 
     84 N          -5.0484  -19.9221  -46.2033 N.am      15 UNK        -0.5000 
     85 CA         -4.6034  -19.0314  -47.2857 C.3       15 UNK         0.1400 
     86 CB         -5.5917  -17.8555  -47.4420 C.3       15 UNK        -0.1800 
     87 C          -4.3427  -19.7526  -48.6244 C.2       15 UNK         0.5000 
     88 O          -4.6072  -19.1926  -49.6903 O.2       15 UNK        -0.5000 
     89 N          -3.8691  -21.0053  -48.5440 N.am      16 UNK        -0.5000 
     90 CA         -3.5901  -21.9192  -49.6566 C.3       16 UNK         0.1400 
     91 CB         -2.3784  -21.4110  -50.4629 C.3       16 UNK        -0.1800 
     92 C          -4.8231  -22.2298  -50.5324 C.2       16 UNK         0.5000 
     93 O          -4.6675  -22.6155  -51.6917 O.2       16 UNK        -0.5000 
     94 N          -6.0278  -22.0276  -49.9701 N.am      17 UNK        -0.5000 
     95 CA         -7.3528  -22.1750  -50.5841 C.3       17 UNK         0.1400 
     96 CB         -7.6454  -23.6656  -50.8519 C.3       17 UNK        -0.1800 
     97 C          -7.5750  -21.3044  -51.8433 C.2       17 UNK         0.5000 
     98 O          -8.4934  -21.5850  -52.6153 O.2       17 UNK        -0.5000 
     99 N          -6.7186  -20.2888  -52.0464 N.am      18 UNK        -0.5000 
    100 CA        -6.5702  -19.4820  -53.2644 C.3       18 UNK         0.1400 
    101 CB        -7.8024  -18.5779  -53.4752 C.3       18 UNK        -0.1800 
    102 C         -6.2156  -20.3205  -54.5193 C.2       18 UNK         0.5000 
    103 O         -6.5296  -19.9106  -55.6389 O.2       18 UNK        -0.5000 
    104 N         -5.5919  -21.4888  -54.3126 N.am      19 UNK        -0.5000 
    105 CA        -5.2350  -22.4577  -55.3461 C.3       19 UNK         0.1400 
    106 CB        -5.4138  -23.8692  -54.7548 C.3       19 UNK        -0.1800 
    107 C         -3.7989  -22.2352  -55.8594 C.2       19 UNK         0.5000 
    108 O         -3.1441  -21.2558  -55.5001 O.2       19 UNK        -0.5000 
    109 N         -3.3072  -23.1787  -56.6746 N.am      20 UNK        -0.5000 
    110 CA        -1.9566  -23.1916  -57.2531 C.3       20 UNK         0.1400 
    111 CB        -1.8612  -24.3580  -58.2494 C.3       20 UNK        -0.1800 
    112 C         -0.8080  -23.2663  -56.2209 C.2       20 UNK         0.5000 
    113 O          0.3421  -23.0106  -56.5781 O.2       20 UNK        -0.5000 
    114 N         -1.1347  -23.6027  -54.9656 N.am      21 UNK        -0.5000 
    115 CA        -0.2278  -23.5988  -53.8182 C.3       21 UNK         0.1400 
    116 CB        -0.8669  -24.4215  -52.6874 C.3       21 UNK        -0.1800 
    117 C          0.1694  -22.1855  -53.3324 C.2       21 UNK         0.5000 
    118 O          1.1192  -22.0755  -52.5561 O.2       21 UNK        -0.5000 
    119 N         -0.5412  -21.1403  -53.7837 N.am      22 UNK        -0.5000 
    120 CA        -0.2088  -19.7223  -53.5593 C.3       22 UNK         0.1400 
    121 C          1.2024  -19.3305  -54.0830 C.2       22 UNK         0.5000 
    122 N          1.9281  -18.4939  -53.3530 N.am      22 UNK        -0.7600 
    123 O          1.6222  -19.7343  -55.1651 O.2       22 UNK        -0.5000 
    124 C124       -1.2759  -18.7952  -54.1943 C.3       23 UNK        -0.0398 
    125 S125       -2.8205  -18.7896  -53.2286 S.3       23 UNK        -0.2404 
    126 C126       -2.8203  -17.1141  -52.5181 C.3       23 UNK        -0.0205 
    127 H127       -1.1315   -8.9264  -50.4802 H         1 UNK         0.0600 
    128 H128       -0.8617   -7.9201  -49.0545 H         1 UNK         0.0600 
    129 H129       -2.3346   -8.8869  -49.1881 H         1 UNK         0.0600 
    130 H130        0.0893  -10.8010  -50.4499 H         1 UNK         0.3000 
    131 H131        1.3627  -11.7655  -48.0638 H         1 UNK         0.0600 
    132 H132        2.6150  -11.8771  -50.0948 H         1 UNK         0.0800 
    133 H133        2.3479  -13.5014  -49.5591 H         1 UNK         0.0800 
    134 H134        2.5681  -14.9711  -51.3867 H         1 UNK         0.0800 
    135 H135        1.7520  -14.9365  -52.9232 H         1 UNK         0.0800 
    136 H136       -0.6589  -15.5546  -53.1200 H         1 UNK         0.1150 
    137 H137       -2.2841  -18.0035  -50.0041 H         1 UNK         0.1150 
    138 H138        1.4563  -15.9939  -49.4190 H         1 UNK         0.1150 
    139 H139       -0.0240  -16.7060  -47.4802 H         1 UNK         0.0800 
    140 H140       -1.4009  -17.7286  -47.7845 H         1 UNK         0.0800 
    141 H141       -0.1877  -18.4258  -45.6554 H         1 UNK         0.0800 
    142 H142        1.0450  -19.6529  -45.5646 H         1 UNK         0.0800 
    143 H143       -1.7148  -20.1381  -46.7841 H         1 UNK         0.0600 
    144 H144        0.5764  -21.8391  -46.6046 H         1 UNK         0.3000 
    145 H145       -1.1818  -24.9025  -47.1833 H         1 UNK         0.0600 
    146 H146        0.6220  -23.1689  -48.9605 H         1 UNK         0.0600 
    147 H147        0.4072  -24.9139  -49.1029 H         1 UNK         0.0600 
    148 H148       -0.9421  -23.8358  -49.4109 H         1 UNK         0.0600 
    149 H149        1.5984  -24.2616  -46.9147 H         1 UNK         0.3000 
    150 H150        1.8034  -24.6457  -43.3775 H         1 UNK         0.0600 
    151 H151        1.8608  -26.9706  -44.3013 H         1 UNK         0.0600 
    152 H152        3.4789  -26.3441  -44.0321 H         1 UNK         0.0600 
    153 H153        2.8203  -26.4138  -45.6671 H         1 UNK         0.0600 
    154 H154        3.8563  -24.1648  -45.2229 H         1 UNK         0.3000 
    155 H155        4.9303  -22.1544  -45.0946 H         1 UNK         0.0600 
    156 H156        3.8093  -22.1118  -47.3259 H         1 UNK         0.0600 
    157 H157        4.6669  -20.6068  -47.0365 H         1 UNK         0.0600 
    158 H158        2.9149  -20.6679  -46.8726 H         1 UNK         0.0600 
    159 H159        3.6408  -19.5517  -44.8027 H         1 UNK         0.3000 
    160 H160        3.5530  -19.2474  -41.6023 H         1 UNK         0.0600 
    161 H161        5.4087  -17.6569  -41.0665 H         1 UNK         0.0600 
    162 H162        6.3978  -18.3858  -42.3317 H         1 UNK         0.0600 
    163 H163        5.9135  -19.3330  -40.9343 H         1 UNK         0.0600 
    164 H164        2.7975  -17.6173  -42.8086 H         1 UNK         0.3000 
    165 H165        4.2294  -15.1617  -44.8213 H         1 UNK         0.0600 
    166 H166        1.9978  -17.0309  -45.7830 H         1 UNK         0.0600 
    167 H167        2.2875  -15.3892  -46.3464 H         1 UNK         0.0600 
    168 H168        3.4574  -16.6535  -46.6904 H         1 UNK         0.0600 
    169 H169        1.5524  -15.5505  -43.8991 H         1 UNK         0.3000 
    170 H170        1.9964  -15.0979  -40.4794 H         1 UNK         0.0600 
    171 H171        1.0430  -12.7714  -42.2386 H         1 UNK         0.0600 
    172 H172        0.6338  -13.0193  -40.5403 H         1 UNK         0.0600 
    173 H173        2.2902  -12.6664  -41.0022 H         1 UNK         0.0600 
    174 H174       -0.3622  -14.7843  -41.9898 H         1 UNK         0.3000 
    175 H175       -0.9447  -17.9139  -43.2753 H         1 UNK         0.0600 
    176 H176       -2.2810  -17.0168  -40.6677 H         1 UNK         0.0600 
    177 H177       -2.9134  -18.1915  -41.8245 H         1 UNK         0.0600 
    178 H178       -1.4653  -18.5572  -40.9013 H         1 UNK         0.0600 
    179 H179       -2.7505  -15.7883  -42.7347 H         1 UNK         0.3000 
    180 H180       -3.3983  -14.4368  -44.4802 H         1 UNK         0.0600 
    181 H181       -0.9200  -12.6661  -44.0792 H         1 UNK         0.0600 
    182 H182       -2.0582  -13.1231  -42.8167 H         1 UNK         0.0600 
    183 H183       -2.5886  -12.1001  -44.1399 H         1 UNK         0.0600 
    184 H184       -1.7685  -13.0279  -46.3620 H         1 UNK         0.3000 
    185 H185       -2.1318  -15.0494  -49.1405 H         1 UNK         0.0600 
    186 H186       -3.6736  -13.4688  -50.2146 H         1 UNK         0.0600 
    187 H187       -4.5524  -14.4520  -49.0570 H         1 UNK         0.0600 
    188 H188       -4.1288  -12.7931  -48.6484 H         1 UNK         0.0600 
    189 H189       -1.7208  -12.3472  -49.3019 H         1 UNK         0.3000 
    190 H190       -0.0889  -21.7448  -44.0455 H         1 UNK         0.3000 
    191 H191       -1.7872  -20.7604  -41.9793 H         1 UNK         0.0600 
    192 H192       -0.2209  -23.3881  -42.1743 H         1 UNK         0.0600 
    193 H193        0.3967  -21.8611  -41.5491 H         1 UNK         0.0600 
    194 H194       -0.8914  -22.7031  -40.6986 H         1 UNK         0.0600 
    195 H195       -2.0789  -23.5669  -44.1711 H         1 UNK         0.3000 
    196 H196       -4.6192  -24.4850  -43.0976 H         1 UNK         0.0600 
    197 H197       -2.9545  -26.0530  -44.0653 H         1 UNK         0.0600 
    198 H198       -3.0923  -25.2587  -45.6321 H         1 UNK         0.0600 
    199 H199       -4.4692  -26.1178  -44.9518 H         1 UNK         0.0600 
    200 H200       -5.1295  -21.9736  -43.4166 H         1 UNK         0.3000 
    201 H201       -6.6013  -20.4868  -44.1382 H         1 UNK         0.0600 
    202 H202       -8.6985  -21.2875  -45.1728 H         1 UNK         0.0600 
    203 H203       -8.1944  -22.3737  -43.8882 H         1 UNK         0.0600 
    204 H204       -7.9562  -22.8284  -45.5747 H         1 UNK         0.0600 
    205 H205       -4.4739  -19.8971  -45.3660 H         1 UNK         0.3000 
    206 H206       -3.6462  -18.6151  -46.9704 H         1 UNK         0.0600 
    207 H207       -6.5704  -18.1892  -47.7879 H         1 UNK         0.0600 
    208 H208       -5.2232  -17.1264  -48.1646 H         1 UNK         0.0600 
    209 H209       -5.7283  -17.3286  -46.4977 H         1 UNK         0.0600 
    210 H210       -3.7014  -21.4066  -47.6268 H         1 UNK         0.3000 
    211 H211       -3.3128  -22.8756  -49.2146 H         1 UNK         0.0600 
    212 H212       -1.5018  -21.2917  -49.8258 H         1 UNK         0.0600 
    213 H213       -2.1090  -22.1027  -51.2580 H         1 UNK         0.0600 
    214 H214       -2.5803  -20.4482  -50.9272 H         1 UNK         0.0600 
    215 H215       -6.0447  -21.6814  -49.0162 H         1 UNK         0.3000 
    216 H216       -8.0694  -21.8217  -49.8414 H         1 UNK         0.0600 
    217 H217       -8.6782  -23.8139  -51.1692 H         1 UNK         0.0600 
    218 H218       -7.0018  -24.0685  -51.6347 H         1 UNK         0.0600 
    219 H219       -7.4959  -24.2640  -49.9532 H         1 UNK         0.0600 
    220 H220       -6.0101  -20.1312  -51.3392 H         1 UNK         0.3000 
    221 H221       -5.7183  -18.8270  -53.0859 H         1 UNK         0.0600 
    222 H222       -8.6901  -19.1550  -53.7348 H         1 UNK         0.0600 
    223 H223       -8.0264  -18.0015  -52.5776 H         1 UNK         0.0600 
    224 H224       -7.6299  -17.8645  -54.2818 H         1 UNK         0.0600 
    225 H225       -5.3191  -21.7366  -53.3663 H         1 UNK         0.3000 
    226 H226       -5.9126  -22.3534  -56.1958 H         1 UNK         0.0600 
    227 H227       -5.3165  -24.6409  -55.5187 H         1 UNK         0.0600 
    228 H228       -4.6770  -24.0779  -53.9781 H         1 UNK         0.0600 
    229 H229       -6.4031  -23.9859  -54.3112 H         1 UNK         0.0600 
    230 H230       -3.8992  -23.9585  -56.9217 H         1 UNK         0.3000 
    231 H231       -1.8264  -22.2588  -57.8056 H         1 UNK         0.0600 
    232 H232       -0.8839  -24.3820  -58.7334 H         1 UNK         0.0600 
    233 H233       -2.6085  -24.2670  -59.0378 H         1 UNK         0.0600 
    234 H234       -2.0066  -25.3199  -57.7561 H         1 UNK         0.0600 
    235 H235       -2.1049  -23.7975  -54.7698 H         1 UNK         0.3000 
    236 H236        0.6963  -24.0993  -54.1147 H         1 UNK         0.0600 
    237 H237       -0.9759  -25.4662  -52.9789 H         1 UNK         0.0600 
    238 H238       -0.2507  -24.4015  -51.7879 H         1 UNK         0.0600 
    239 H239       -1.8560  -24.0480  -52.4228 H         1 UNK         0.0600 
    240 H240       -1.3281  -21.3114  -54.3992 H         1 UNK         0.3000 
    241 H241       -0.2102  -19.5648  -52.4785 H         1 UNK         0.0600 
    242 H242        2.8385  -18.2184  -53.6863 H         1 UNK         0.3800 
    243 H243        1.5941  -18.1411  -52.4695 H         1 UNK         0.3800 
    244 H244       -0.9152  -17.7698  -54.2825 H         1 UNK         0.0800 
    245 H245       -1.4998  -19.1104  -55.2146 H         1 UNK         0.0800 
    246 H246       -3.7158  -16.9964  -51.9058 H         1 UNK         0.0800 
    247 H247       -2.9045  -16.3836  -53.3241 H         1 UNK         0.0800 
@<TRIPOS>BOND
     1    1    2 1    
     2    1  127 1    
     3    1  128 1    
     4    1  129 1    
     5    2    3 2    
     6    2    4 am   BACKBONE|DICT|INTERRES
     7    4    5 1    
     8    4  130 1    
     9    5    6 1    
    10    5   65 1    
    11    5  131 1    
    12    6    7 1    
    13    6  132 1    
    14    6  133 1    
    15    7    8 1    
    16    8    9 1    
    17    8  134 1    
    18    8  135 1    
    19    9   10 ar   
    20    9   14 ar   
    21   10   11 ar   
    22   10  136 1    
    23   11   12 ar   
    24   11  126 1    
    25   12   13 ar   
    26   12  137 1    
    27   13   14 ar   
    28   13   15 1    
    29   14  138 1    
    30   15   16 1    
    31   15  139 1    
    32   15  140 1    
    33   16   17 1    
    34   17   18 1    
    35   17  141 1    
    36   17  142 1    
    37   18   19 1    
    38   18   67 1    
    39   18  143 1    
    40   19   20 am   BACKBONE|DICT|INTERRES
    41   19  144 1    
    42   20   21 2    
    43   20   22 1    
    44   22   23 1    
    45   22   24 1    
    46   22  145 1    
    47   23  146 1    
    48   23  147 1    
    49   23  148 1    
    50   24   25 am   BACKBONE|DICT|INTERRES
    51   24  149 1    
    52   25   26 2    
    53   25   27 1    
    54   27   28 1    
    55   27   29 1    
    56   27  150 1    
    57   28  151 1    
    58   28  152 1    
    59   28  153 1    
    60   29   30 am   BACKBONE|DICT|INTERRES
    61   29  154 1    
    62   30   31 2    
    63   30   32 1    
    64   32   33 1    
    65   32   34 1    
    66   32  155 1    
    67   33  156 1    
    68   33  157 1    
    69   33  158 1    
    70   34   35 am   BACKBONE|DICT|INTERRES
    71   34  159 1    
    72   35   36 2    
    73   35   37 1    
    74   37   38 1    
    75   37   39 1    
    76   37  160 1    
    77   38  161 1    
    78   38  162 1    
    79   38  163 1    
    80   39   40 am   BACKBONE|DICT|INTERRES
    81   39  164 1    
    82   40   41 2    
    83   40   42 1    
    84   42   43 1    
    85   42   44 1    
    86   42  165 1    
    87   43  166 1    
    88   43  167 1    
    89   43  168 1    
    90   44   45 am   BACKBONE|DICT|INTERRES
    91   44  169 1    
    92   45   46 2    
    93   45   47 1    
    94   47   48 1    
    95   47   49 1    
    96   47  170 1    
    97   48  171 1    
    98   48  172 1    
    99   48  173 1    
   100   49   50 am   BACKBONE|DICT|INTERRES
   101   49  174 1    
   102   50   51 2    
   103   50   52 1    
   104   52   53 1    
   105   52   54 1    
   106   52  175 1    
   107   53  176 1    
   108   53  177 1    
   109   53  178 1    
   110   54   55 am   BACKBONE|DICT|INTERRES
   111   54  179 1    
   112   55   56 2    
   113   55   57 1    
   114   57   58 1    
   115   57   59 1    
   116   57  180 1    
   117   58  181 1    
   118   58  182 1    
   119   58  183 1    
   120   59   60 am   BACKBONE|DICT|INTERRES
   121   59  184 1    
   122   60   61 2    
   123   60   62 1    
   124   62   63 1    
   125   62   64 1    
   126   62  185 1    
   127   63  186 1    
   128   63  187 1    
   129   63  188 1    
   130   64   65 am   BACKBONE|DICT|INTERRES
   131   64  189 1    
   132   65   66 2    
   133   67   68 2    
   134   67   69 am   BACKBONE|DICT|INTERRES
   135   69   70 1    
   136   69  190 1    
   137   70   71 1    
   138   70   72 1    
   139   70  191 1    
   140   71  192 1    
   141   71  193 1    
   142   71  194 1    
   143   72   73 2    
   144   72   74 am   BACKBONE|DICT|INTERRES
   145   74   75 1    
   146   74  195 1    
   147   75   76 1    
   148   75   77 1    
   149   75  196 1    
   150   76  197 1    
   151   76  198 1    
   152   76  199 1    
   153   77   78 2    
   154   77   79 am   BACKBONE|DICT|INTERRES
   155   79   80 1    
   156   79  200 1    
   157   80   81 1    
   158   80   82 1    
   159   80  201 1    
   160   81  202 1    
   161   81  203 1    
   162   81  204 1    
   163   82   83 2    
   164   82   84 am   BACKBONE|DICT|INTERRES
   165   84   85 1    
   166   84  205 1    
   167   85   86 1    
   168   85   87 1    
   169   85  206 1    
   170   86  207 1    
   171   86  208 1    
   172   86  209 1    
   173   87   88 2    
   174   87   89 am   BACKBONE|DICT|INTERRES
   175   89   90 1    
   176   89  210 1    
   177   90   91 1    
   178   90   92 1    
   179   90  211 1    
   180   91  212 1    
   181   91  213 1    
   182   91  214 1    
   183   92   93 2    
   184   92   94 am   BACKBONE|DICT|INTERRES
   185   94   95 1    
   186   94  215 1    
   187   95   96 1    
   188   95   97 1    
   189   95  216 1    
   190   96  217 1    
   191   96  218 1    
   192   96  219 1    
   193   97   98 2    
   194   97   99 am   BACKBONE|DICT|INTERRES
   195   99  100 1    
   196   99  220 1    
   197  100  101 1    
   198  100  102 1    
   199  100  221 1    
   200  101  222 1    
   201  101  223 1    
   202  101  224 1    
   203  102  103 2    
   204  102  104 am   BACKBONE|DICT|INTERRES
   205  104  105 1    
   206  104  225 1    
   207  105  106 1    
   208  105  107 1    
   209  105  226 1    
   210  106  227 1    
   211  106  228 1    
   212  106  229 1    
   213  107  108 2    
   214  107  109 am   BACKBONE|DICT|INTERRES
   215  109  110 1    
   216  109  230 1    
   217  110  111 1    
   218  110  112 1    
   219  110  231 1    
   220  111  232 1    
   221  111  233 1    
   222  111  234 1    
   223  112  113 2    
   224  112  114 am   BACKBONE|DICT|INTERRES
   225  114  115 1    
   226  114  235 1    
   227  115  116 1    
   228  115  117 1    
   229  115  236 1    
   230  116  237 1    
   231  116  238 1    
   232  116  239 1    
   233  117  118 2    
   234  117  119 am   BACKBONE|DICT|INTERRES
   235  119  120 1    
   236  119  240 1    
   237  120  121 1    
   238  120  124 1    
   239  120  241 1    
   240  121  122 am   BACKBONE|DICT|INTERRES
   241  121  123 2    
   242  122  242 1    
   243  122  243 1    
   244  124  125 1    
   245  124  244 1    
   246  124  245 1    
   247  125  126 1    
   248  126  246 1    
   249  126  247 1    
@<TRIPOS>SUBSTRUCTURE
     1 UNK         1 GROUP             0       ****    0 ROOT    
