@<TRIPOS>MOLECULE
3R540
247   249    1
SMALL
USER_CHARGES


@<TRIPOS>ATOM
      1 CA         -1.4041   -9.5926  -47.3887 C.3       0 UNK        -0.1800 
      2 C          -1.0873  -11.0036  -46.9169 C.2       0 UNK         0.5000 
      3 O          -0.4786  -11.1740  -45.8616 O.2       0 UNK        -0.5000 
      4 N          -1.5146  -12.0200  -47.6780 N.am      1 UNK        -0.5000 
      5 CA         -1.2803  -13.4435  -47.3938 C.3       1 UNK         0.1400 
      6 C6         -1.7212  -14.3343  -48.5815 C.3       23 UNK        -0.0398 
      7 S7         -0.8160  -15.9169  -48.6452 S.3       23 UNK        -0.2404 
      8 C8         -0.0118  -15.8131  -50.2723 C.3       23 UNK        -0.0205 
      9 C9          0.6447  -17.1311  -50.6530 C.ar      23 UNK        -0.0193 
     10 C10         0.0044  -18.0140  -51.5290 C.ar      23 UNK        -0.1150 
     11 C11         0.6257  -19.2071  -51.9098 C.ar      23 UNK        -0.0193 
     12 C12         1.8855  -19.5231  -51.3950 C.ar      23 UNK        -0.1150 
     13 C13         2.5284  -18.6583  -50.5064 C.ar      23 UNK        -0.0193 
     14 C14         1.9049  -17.4602  -50.1445 C.ar      23 UNK        -0.1150 
     15 C15         3.9117  -18.9947  -49.9698 C.3       23 UNK        -0.0205 
     16 S16         3.8408  -19.9810  -48.4412 S.3       23 UNK        -0.2404 
     17 C17         3.6888  -21.6922  -49.0739 C.3       23 UNK        -0.0398 
     18 CA          2.5821  -22.5306  -48.3850 C.3       11 UNK         0.1400 
     19 N           2.7427  -22.5430  -46.9257 N.am      11 UNK        -0.5000 
     20 C           2.0313  -23.2623  -46.0491 C.2       10 UNK         0.5000 
     21 O           1.0452  -23.9286  -46.3597 O.2       10 UNK        -0.5000 
     22 CA          2.5095  -23.2660  -44.5888 C.3       10 UNK         0.1400 
     23 CB          3.9694  -22.8045  -44.4073 C.3       10 UNK        -0.1800 
     24 N           1.6320  -22.4364  -43.7661 N.am      10 UNK        -0.5000 
     25 C           1.1768  -22.7866  -42.5545 C.2       9 UNK         0.5000 
     26 O           1.3957  -23.8875  -42.0460 O.2       9 UNK        -0.5000 
     27 CA          0.3659  -21.7536  -41.7431 C.3       9 UNK         0.1400 
     28 CB          1.0681  -21.4491  -40.4091 C.3       9 UNK        -0.1800 
     29 N           0.1564  -20.4900  -42.4470 N.am      9 UNK        -0.5000 
     30 C          -0.8786  -20.2161  -43.2503 C.2       8 UNK         0.5000 
     31 O          -1.8072  -20.9935  -43.4651 O.2       8 UNK        -0.5000 
     32 CA         -0.8673  -18.8420  -43.9458 C.3       8 UNK         0.1400 
     33 CB         -1.5912  -17.8015  -43.0799 C.3       8 UNK        -0.1800 
     34 N           0.4754  -18.3514  -44.2729 N.am      8 UNK        -0.5000 
     35 C           1.3737  -18.9815  -45.0455 C.2       7 UNK         0.5000 
     36 O           1.1880  -20.0864  -45.5581 O.2       7 UNK        -0.5000 
     37 CA          2.7223  -18.2754  -45.2402 C.3       7 UNK         0.1400 
     38 CB          2.5988  -17.1511  -46.2804 C.3       7 UNK        -0.1800 
     39 N           3.2118  -17.7364  -43.9721 N.am      7 UNK        -0.5000 
     40 C           3.9204  -18.4420  -43.0787 C.2       6 UNK         0.5000 
     41 O           4.3126  -19.5909  -43.2747 O.2       6 UNK        -0.5000 
     42 CA          4.2430  -17.7669  -41.7306 C.3       6 UNK         0.1400 
     43 CB          5.6129  -17.0745  -41.7916 C.3       6 UNK        -0.1800 
     44 N           3.2372  -16.7948  -41.3036 N.am      6 UNK        -0.5000 
     45 C           1.9714  -17.0909  -40.9779 C.2       5 UNK         0.5000 
     46 O           1.5159  -18.2339  -40.9678 O.2       5 UNK        -0.5000 
     47 CA          1.0462  -15.8979  -40.6657 C.3       5 UNK         0.1400 
     48 CB          1.1108  -15.5440  -39.1730 C.3       5 UNK        -0.1800 
     49 N           1.3239  -14.6946  -41.4577 N.am      5 UNK        -0.5000 
     50 C           1.3888  -14.6293  -42.7942 C.2       4 UNK         0.5000 
     51 O           1.2627  -15.6113  -43.5271 O.2       4 UNK        -0.5000 
     52 CA          1.6405  -13.2335  -43.3971 C.3       4 UNK         0.1400 
     53 CB          2.1245  -13.3094  -44.8559 C.3       4 UNK        -0.1800 
     54 N           0.4335  -12.4138  -43.3438 N.am      4 UNK        -0.5000 
     55 C          -0.0982  -11.8641  -42.2439 C.2       3 UNK         0.5000 
     56 O           0.4295  -11.9132  -41.1315 O.2       3 UNK        -0.5000 
     57 CA         -1.4578  -11.1634  -42.4119 C.3       3 UNK         0.1400 
     58 CB         -1.2695   -9.6842  -42.7826 C.3       3 UNK        -0.1800 
     59 N          -2.2828  -11.8209  -43.4272 N.am      3 UNK        -0.5000 
     60 C          -3.0049  -12.9303  -43.2120 C.2       2 UNK         0.5000 
     61 O          -3.1033  -13.4777  -42.1133 O.2       2 UNK        -0.5000 
     62 CA         -3.7453  -13.5320  -44.4232 C.3       2 UNK         0.1400 
     63 CB         -5.1721  -12.9701  -44.5146 C.3       2 UNK        -0.1800 
     64 N          -3.0560  -13.2933  -45.6925 N.am      2 UNK        -0.5000 
     65 C          -1.9229  -13.9073  -46.0645 C.2       1 UNK         0.5000 
     66 O          -1.3712  -14.7738  -45.3893 O.2       1 UNK        -0.5000 
     67 C           1.1728  -22.1509  -48.8900 C.2       11 UNK         0.5000 
     68 O           0.7659  -22.6369  -49.9462 O.2       11 UNK        -0.5000 
     69 N           0.4484  -21.3207  -48.1316 N.am      12 UNK        -0.5000 
     70 CA         -0.9032  -20.8796  -48.4650 C.3       12 UNK         0.1400 
     71 CB         -1.0366  -19.4087  -48.0621 C.3       12 UNK        -0.1800 
     72 C          -1.9973  -21.7243  -47.7869 C.2       12 UNK         0.5000 
     73 O          -3.1686  -21.5613  -48.1327 O.2       12 UNK        -0.5000 
     74 N          -1.6293  -22.6051  -46.8439 N.am      13 UNK        -0.5000 
     75 CA         -2.5609  -23.3559  -45.9920 C.3       13 UNK         0.1400 
     76 CB         -1.7762  -24.0649  -44.8775 C.3       13 UNK        -0.1800 
     77 C          -3.4300  -24.3835  -46.7410 C.2       13 UNK         0.5000 
     78 O          -4.4625  -24.7956  -46.2121 O.2       13 UNK        -0.5000 
     79 N          -2.9978  -24.7844  -47.9442 N.am      14 UNK        -0.5000 
     80 CA         -3.6323  -25.8042  -48.7799 C.3       14 UNK         0.1400 
     81 CB         -2.7278  -26.0871  -49.9889 C.3       14 UNK        -0.1800 
     82 C          -5.0691  -25.4701  -49.2304 C.2       14 UNK         0.5000 
     83 O          -5.8606  -26.3950  -49.4190 O.2       14 UNK        -0.5000 
     84 N          -5.3897  -24.1773  -49.3837 N.am      15 UNK        -0.5000 
     85 CA         -6.7240  -23.7074  -49.7750 C.3       15 UNK         0.1400 
     86 CB         -6.9132  -23.8458  -51.2975 C.3       15 UNK        -0.1800 
     87 C          -7.0190  -22.2727  -49.2972 C.2       15 UNK         0.5000 
     88 O          -7.9401  -21.6483  -49.8250 O.2       15 UNK        -0.5000 
     89 N          -6.2491  -21.7756  -48.3162 N.am      16 UNK        -0.5000 
     90 CA         -6.2797  -20.4073  -47.7845 C.3       16 UNK         0.1400 
     91 CB         -7.6190  -20.1057  -47.0781 C.3       16 UNK        -0.1800 
     92 C          -5.8993  -19.3664  -48.8592 C.2       16 UNK         0.5000 
     93 O          -6.6837  -18.4677  -49.1709 O.2       16 UNK        -0.5000 
     94 N          -4.6784  -19.5286  -49.3857 N.am      17 UNK        -0.5000 
     95 CA         -4.0177  -18.7164  -50.4117 C.3       17 UNK         0.1400 
     96 CB         -3.9007  -17.2441  -49.9561 C.3       17 UNK        -0.1800 
     97 C          -4.6410  -18.8621  -51.8160 C.2       17 UNK         0.5000 
     98 O          -5.4378  -19.7719  -52.0583 O.2       17 UNK        -0.5000 
     99 N          -4.2100  -17.9762  -52.7263 N.am      18 UNK        -0.5000 
    100 CA        -4.5480  -17.9097  -54.1513 C.3       18 UNK         0.1400 
    101 CB        -6.0634  -17.6755  -54.3412 C.3       18 UNK        -0.1800 
    102 C         -4.0314  -19.1184  -54.9616 C.2       18 UNK         0.5000 
    103 O         -3.3118  -19.9752  -54.4386 O.2       18 UNK        -0.5000 
    104 N         -4.4110  -19.1621  -56.2466 N.am      19 UNK        -0.5000 
    105 CA        -4.0429  -20.2035  -57.2106 C.3       19 UNK         0.1400 
    106 CB        -4.6213  -19.8419  -58.5866 C.3       19 UNK        -0.1800 
    107 C         -4.4842  -21.6202  -56.7975 C.2       19 UNK         0.5000 
    108 O         -3.8171  -22.5899  -57.1566 O.2       19 UNK        -0.5000 
    109 N         -5.5715  -21.7108  -56.0194 N.am      20 UNK        -0.5000 
    110 CA        -6.0791  -22.9483  -55.4303 C.3       20 UNK         0.1400 
    111 CB        -7.4214  -22.6619  -54.7401 C.3       20 UNK        -0.1800 
    112 C         -5.0904  -23.5992  -54.4440 C.2       20 UNK         0.5000 
    113 O         -5.0076  -24.8271  -54.4024 O.2       20 UNK        -0.5000 
    114 N         -4.3586  -22.7746  -53.6800 N.am      21 UNK        -0.5000 
    115 CA        -3.3305  -23.2352  -52.7496 C.3       21 UNK         0.1400 
    116 CB        -3.2208  -22.2654  -51.5637 C.3       21 UNK        -0.1800 
    117 C         -1.9719  -23.3872  -53.4499 C.2       21 UNK         0.5000 
    118 O         -1.2592  -24.3525  -53.1743 O.2       21 UNK        -0.5000 
    119 N         -1.6353  -22.4355  -54.3326 N.am      22 UNK        -0.5000 
    120 CA        -0.3696  -22.4264  -55.0835 C.3       22 UNK         0.1400 
    121 C         -0.2636  -23.5435  -56.1632 C.2       22 UNK         0.5000 
    122 N         -1.3527  -23.9833  -56.7801 N.am      22 UNK        -0.7600 
    123 O          0.8317  -24.0231  -56.4433 O.2       22 UNK        -0.5000 
    124 C124       -0.0668  -21.0417  -55.7141 C.3       23 UNK        -0.0398 
    125 S125        0.3238  -19.6315  -54.6080 S.3       23 UNK        -0.2404 
    126 C126       -0.0420  -20.1468  -52.8990 C.3       23 UNK        -0.0205 
    127 H127       -1.9929   -9.0695  -46.6353 H         1 UNK         0.0600 
    128 H128       -1.9673   -9.5934  -48.3222 H         1 UNK         0.0600 
    129 H129       -0.4807   -9.0360  -47.5479 H         1 UNK         0.0600 
    130 H130       -2.0183  -11.8157  -48.5295 H         1 UNK         0.3000 
    131 H131       -0.1997  -13.5490  -47.2780 H         1 UNK         0.0600 
    132 H132       -1.5493  -13.8086  -49.5215 H         1 UNK         0.0800 
    133 H133       -2.7934  -14.5372  -48.5529 H         1 UNK         0.0800 
    134 H134        0.7345  -15.0174  -50.2572 H         1 UNK         0.0800 
    135 H135       -0.7489  -15.5333  -51.0265 H         1 UNK         0.0800 
    136 H136       -0.9657  -17.7645  -51.9338 H         1 UNK         0.1150 
    137 H137        2.3689  -20.4399  -51.6994 H         1 UNK         0.1150 
    138 H138        2.4022  -16.7774  -49.4704 H         1 UNK         0.1150 
    139 H139        4.4993  -19.5170  -50.7263 H         1 UNK         0.0800 
    140 H140        4.4534  -18.0719  -49.7572 H         1 UNK         0.0800 
    141 H141        4.6523  -22.1782  -48.9150 H         1 UNK         0.0800 
    142 H142        3.5497  -21.6885  -50.1552 H         1 UNK         0.0800 
    143 H143        2.7301  -23.5648  -48.7028 H         1 UNK         0.0600 
    144 H144        3.5050  -21.9834  -46.5724 H         1 UNK         0.3000 
    145 H145        2.4518  -24.3081  -44.2683 H         1 UNK         0.0600 
    146 H146        4.1084  -21.7650  -44.7036 H         1 UNK         0.0600 
    147 H147        4.2795  -22.8922  -43.3659 H         1 UNK         0.0600 
    148 H148        4.6525  -23.4155  -44.9987 H         1 UNK         0.0600 
    149 H149        1.3714  -21.5386  -44.1612 H         1 UNK         0.3000 
    150 H150       -0.6014  -22.2074  -41.5184 H         1 UNK         0.0600 
    151 H151        1.1930  -22.3529  -39.8115 H         1 UNK         0.0600 
    152 H152        0.4898  -20.7442  -39.8114 H         1 UNK         0.0600 
    153 H153        2.0581  -21.0189  -40.5673 H         1 UNK         0.0600 
    154 H154        0.8371  -19.7590  -42.2712 H         1 UNK         0.3000 
    155 H155       -1.4225  -18.9401  -44.8779 H         1 UNK         0.0600 
    156 H156       -1.1432  -17.7282  -42.0901 H         1 UNK         0.0600 
    157 H157       -2.6389  -18.0717  -42.9433 H         1 UNK         0.0600 
    158 H158       -1.5662  -16.8121  -43.5375 H         1 UNK         0.0600 
    159 H159        0.7121  -17.4255  -43.9265 H         1 UNK         0.3000 
    160 H160        3.4349  -19.0091  -45.6219 H         1 UNK         0.0600 
    161 H161        1.9037  -16.3725  -45.9661 H         1 UNK         0.0600 
    162 H162        2.2302  -17.5471  -47.2267 H         1 UNK         0.0600 
    163 H163        3.5642  -16.6842  -46.4745 H         1 UNK         0.0600 
    164 H164        2.8555  -16.8246  -43.7091 H         1 UNK         0.3000 
    165 H165        4.2902  -18.5530  -40.9739 H         1 UNK         0.0600 
    166 H166        5.8920  -16.6645  -40.8208 H         1 UNK         0.0600 
    167 H167        6.3937  -17.7788  -42.0819 H         1 UNK         0.0600 
    168 H168        5.6199  -16.2596  -42.5166 H         1 UNK         0.0600 
    169 H169        3.5180  -15.8255  -41.2910 H         1 UNK         0.3000 
    170 H170        0.0248  -16.2020  -40.8942 H         1 UNK         0.0600 
    171 H171        0.8822  -16.4133  -38.5548 H         1 UNK         0.0600 
    172 H172        2.1009  -15.1875  -38.8864 H         1 UNK         0.0600 
    173 H173        0.3881  -14.7678  -38.9202 H         1 UNK         0.0600 
    174 H174        1.3643  -13.8190  -40.9489 H         1 UNK         0.3000 
    175 H175        2.4220  -12.7473  -42.8098 H         1 UNK         0.0600 
    176 H176        1.3827  -13.7802  -45.5011 H         1 UNK         0.0600 
    177 H177        2.3319  -12.3166  -45.2556 H         1 UNK         0.0600 
    178 H178        3.0431  -13.8923  -44.9335 H         1 UNK         0.0600 
    179 H179       -0.0470  -12.2716  -44.2255 H         1 UNK         0.3000 
    180 H180       -1.9760  -11.2049  -41.4514 H         1 UNK         0.0600 
    181 H181       -0.7412   -9.5656  -43.7289 H         1 UNK         0.0600 
    182 H182       -0.6914   -9.1632  -42.0185 H         1 UNK         0.0600 
    183 H183       -2.2291   -9.1740  -42.8679 H         1 UNK         0.0600 
    184 H184       -2.2080  -11.4626  -44.3689 H         1 UNK         0.3000 
    185 H185       -3.8138  -14.6108  -44.2662 H         1 UNK         0.0600 
    186 H186       -5.7235  -13.1536  -43.5915 H         1 UNK         0.0600 
    187 H187       -5.1714  -11.8932  -44.6879 H         1 UNK         0.0600 
    188 H188       -5.7305  -13.4409  -45.3240 H         1 UNK         0.0600 
    189 H189       -3.4456  -12.5870  -46.2996 H         1 UNK         0.3000 
    190 H190        0.8458  -20.9607  -47.2676 H         1 UNK         0.3000 
    191 H191       -1.0631  -20.9404  -49.5434 H         1 UNK         0.0600 
    192 H192       -0.9053  -19.2713  -46.9930 H         1 UNK         0.0600 
    193 H193       -2.0131  -19.0045  -48.3217 H         1 UNK         0.0600 
    194 H194       -0.2838  -18.8046  -48.5648 H         1 UNK         0.0600 
    195 H195       -0.6419  -22.7509  -46.6653 H         1 UNK         0.3000 
    196 H196       -3.2334  -22.6321  -45.5269 H         1 UNK         0.0600 
    197 H197       -2.4522  -24.4887  -44.1341 H         1 UNK         0.0600 
    198 H198       -1.1134  -23.3764  -44.3571 H         1 UNK         0.0600 
    199 H199       -1.1684  -24.8813  -45.2685 H         1 UNK         0.0600 
    200 H200       -2.1311  -24.3936  -48.2832 H         1 UNK         0.3000 
    201 H201       -3.6935  -26.7188  -48.1865 H         1 UNK         0.0600 
    202 H202       -1.7803  -26.5250  -49.6746 H         1 UNK         0.0600 
    203 H203       -2.5022  -25.1780  -50.5449 H         1 UNK         0.0600 
    204 H204       -3.1956  -26.7905  -50.6791 H         1 UNK         0.0600 
    205 H205       -4.6814  -23.4752  -49.2224 H         1 UNK         0.3000 
    206 H206       -7.4668  -24.3382  -49.2823 H         1 UNK         0.0600 
    207 H207       -6.6301  -24.8335  -51.6609 H         1 UNK         0.0600 
    208 H208       -7.9545  -23.6854  -51.5785 H         1 UNK         0.0600 
    209 H209       -6.3185  -23.1050  -51.8282 H         1 UNK         0.0600 
    210 H210       -5.5264  -22.3643  -47.9288 H         1 UNK         0.3000 
    211 H211       -5.5001  -20.3597  -47.0224 H         1 UNK         0.0600 
    212 H212       -8.4576  -20.0870  -47.7743 H         1 UNK         0.0600 
    213 H213       -7.5854  -19.1328  -46.5867 H         1 UNK         0.0600 
    214 H214       -7.8360  -20.8494  -46.3114 H         1 UNK         0.0600 
    215 H215       -4.1387  -20.3214  -49.0457 H         1 UNK         0.3000 
    216 H216       -3.0068  -19.1175  -50.4936 H         1 UNK         0.0600 
    217 H217       -3.1680  -16.6992  -50.5511 H         1 UNK         0.0600 
    218 H218       -3.5790  -17.1767  -48.9170 H         1 UNK         0.0600 
    219 H219       -4.8507  -16.7157  -50.0417 H         1 UNK         0.0600 
    220 H220       -3.5350  -17.2901  -52.4235 H         1 UNK         0.3000 
    221 H221       -4.0237  -17.0355  -54.5398 H         1 UNK         0.0600 
    222 H222       -6.6461  -18.5665  -54.1048 H         1 UNK         0.0600 
    223 H223       -6.4187  -16.8676  -53.7013 H         1 UNK         0.0600 
    224 H224       -6.3000  -17.3928  -55.3671 H         1 UNK         0.0600 
    225 H225       -4.9950  -18.4189  -56.6013 H         1 UNK         0.3000 
    226 H226       -2.9553  -20.2096  -57.2913 H         1 UNK         0.0600 
    227 H227       -4.2437  -18.8799  -58.9337 H         1 UNK         0.0600 
    228 H228       -4.3446  -20.5862  -59.3346 H         1 UNK         0.0600 
    229 H229       -5.7105  -19.7882  -58.5641 H         1 UNK         0.0600 
    230 H230       -6.0517  -20.8591  -55.7705 H         1 UNK         0.3000 
    231 H231       -6.2546  -23.6580  -56.2415 H         1 UNK         0.0600 
    232 H232       -7.8374  -23.5708  -54.3036 H         1 UNK         0.0600 
    233 H233       -8.1557  -22.2772  -55.4479 H         1 UNK         0.0600 
    234 H234       -7.3133  -21.9312  -53.9369 H         1 UNK         0.0600 
    235 H235       -4.4576  -21.7727  -53.7903 H         1 UNK         0.3000 
    236 H236       -3.6196  -24.2103  -52.3531 H         1 UNK         0.0600 
    237 H237       -2.9137  -21.2727  -51.8868 H         1 UNK         0.0600 
    238 H238       -4.1721  -22.1617  -51.0438 H         1 UNK         0.0600 
    239 H239       -2.4858  -22.6175  -50.8393 H         1 UNK         0.0600 
    240 H240       -2.2606  -21.6492  -54.4789 H         1 UNK         0.3000 
    241 H241        0.4330  -22.6430  -54.3769 H         1 UNK         0.0600 
    242 H242       -1.2636  -24.7115  -57.4702 H         1 UNK         0.3800 
    243 H243       -2.2568  -23.5395  -56.6451 H         1 UNK         0.3800 
    244 H244        0.7894  -21.1220  -56.3867 H         1 UNK         0.0800 
    245 H245       -0.9004  -20.7404  -56.3479 H         1 UNK         0.0800 
    246 H246        0.3014  -21.1631  -52.7088 H         1 UNK         0.0800 
    247 H247       -1.1204  -20.1395  -52.7464 H         1 UNK         0.0800 
@<TRIPOS>BOND
     1    1    2 1    
     2    1  127 1    
     3    1  128 1    
     4    1  129 1    
     5    2    3 2    
     6    2    4 am   BACKBONE|DICT|INTERRES
     7    4    5 1    
     8    4  130 1    
     9    5    6 1    
    10    5   65 1    
    11    5  131 1    
    12    6    7 1    
    13    6  132 1    
    14    6  133 1    
    15    7    8 1    
    16    8    9 1    
    17    8  134 1    
    18    8  135 1    
    19    9   10 ar   
    20    9   14 ar   
    21   10   11 ar   
    22   10  136 1    
    23   11   12 ar   
    24   11  126 1    
    25   12   13 ar   
    26   12  137 1    
    27   13   14 ar   
    28   13   15 1    
    29   14  138 1    
    30   15   16 1    
    31   15  139 1    
    32   15  140 1    
    33   16   17 1    
    34   17   18 1    
    35   17  141 1    
    36   17  142 1    
    37   18   19 1    
    38   18   67 1    
    39   18  143 1    
    40   19   20 am   BACKBONE|DICT|INTERRES
    41   19  144 1    
    42   20   21 2    
    43   20   22 1    
    44   22   23 1    
    45   22   24 1    
    46   22  145 1    
    47   23  146 1    
    48   23  147 1    
    49   23  148 1    
    50   24   25 am   BACKBONE|DICT|INTERRES
    51   24  149 1    
    52   25   26 2    
    53   25   27 1    
    54   27   28 1    
    55   27   29 1    
    56   27  150 1    
    57   28  151 1    
    58   28  152 1    
    59   28  153 1    
    60   29   30 am   BACKBONE|DICT|INTERRES
    61   29  154 1    
    62   30   31 2    
    63   30   32 1    
    64   32   33 1    
    65   32   34 1    
    66   32  155 1    
    67   33  156 1    
    68   33  157 1    
    69   33  158 1    
    70   34   35 am   BACKBONE|DICT|INTERRES
    71   34  159 1    
    72   35   36 2    
    73   35   37 1    
    74   37   38 1    
    75   37   39 1    
    76   37  160 1    
    77   38  161 1    
    78   38  162 1    
    79   38  163 1    
    80   39   40 am   BACKBONE|DICT|INTERRES
    81   39  164 1    
    82   40   41 2    
    83   40   42 1    
    84   42   43 1    
    85   42   44 1    
    86   42  165 1    
    87   43  166 1    
    88   43  167 1    
    89   43  168 1    
    90   44   45 am   BACKBONE|DICT|INTERRES
    91   44  169 1    
    92   45   46 2    
    93   45   47 1    
    94   47   48 1    
    95   47   49 1    
    96   47  170 1    
    97   48  171 1    
    98   48  172 1    
    99   48  173 1    
   100   49   50 am   BACKBONE|DICT|INTERRES
   101   49  174 1    
   102   50   51 2    
   103   50   52 1    
   104   52   53 1    
   105   52   54 1    
   106   52  175 1    
   107   53  176 1    
   108   53  177 1    
   109   53  178 1    
   110   54   55 am   BACKBONE|DICT|INTERRES
   111   54  179 1    
   112   55   56 2    
   113   55   57 1    
   114   57   58 1    
   115   57   59 1    
   116   57  180 1    
   117   58  181 1    
   118   58  182 1    
   119   58  183 1    
   120   59   60 am   BACKBONE|DICT|INTERRES
   121   59  184 1    
   122   60   61 2    
   123   60   62 1    
   124   62   63 1    
   125   62   64 1    
   126   62  185 1    
   127   63  186 1    
   128   63  187 1    
   129   63  188 1    
   130   64   65 am   BACKBONE|DICT|INTERRES
   131   64  189 1    
   132   65   66 2    
   133   67   68 2    
   134   67   69 am   BACKBONE|DICT|INTERRES
   135   69   70 1    
   136   69  190 1    
   137   70   71 1    
   138   70   72 1    
   139   70  191 1    
   140   71  192 1    
   141   71  193 1    
   142   71  194 1    
   143   72   73 2    
   144   72   74 am   BACKBONE|DICT|INTERRES
   145   74   75 1    
   146   74  195 1    
   147   75   76 1    
   148   75   77 1    
   149   75  196 1    
   150   76  197 1    
   151   76  198 1    
   152   76  199 1    
   153   77   78 2    
   154   77   79 am   BACKBONE|DICT|INTERRES
   155   79   80 1    
   156   79  200 1    
   157   80   81 1    
   158   80   82 1    
   159   80  201 1    
   160   81  202 1    
   161   81  203 1    
   162   81  204 1    
   163   82   83 2    
   164   82   84 am   BACKBONE|DICT|INTERRES
   165   84   85 1    
   166   84  205 1    
   167   85   86 1    
   168   85   87 1    
   169   85  206 1    
   170   86  207 1    
   171   86  208 1    
   172   86  209 1    
   173   87   88 2    
   174   87   89 am   BACKBONE|DICT|INTERRES
   175   89   90 1    
   176   89  210 1    
   177   90   91 1    
   178   90   92 1    
   179   90  211 1    
   180   91  212 1    
   181   91  213 1    
   182   91  214 1    
   183   92   93 2    
   184   92   94 am   BACKBONE|DICT|INTERRES
   185   94   95 1    
   186   94  215 1    
   187   95   96 1    
   188   95   97 1    
   189   95  216 1    
   190   96  217 1    
   191   96  218 1    
   192   96  219 1    
   193   97   98 2    
   194   97   99 am   BACKBONE|DICT|INTERRES
   195   99  100 1    
   196   99  220 1    
   197  100  101 1    
   198  100  102 1    
   199  100  221 1    
   200  101  222 1    
   201  101  223 1    
   202  101  224 1    
   203  102  103 2    
   204  102  104 am   BACKBONE|DICT|INTERRES
   205  104  105 1    
   206  104  225 1    
   207  105  106 1    
   208  105  107 1    
   209  105  226 1    
   210  106  227 1    
   211  106  228 1    
   212  106  229 1    
   213  107  108 2    
   214  107  109 am   BACKBONE|DICT|INTERRES
   215  109  110 1    
   216  109  230 1    
   217  110  111 1    
   218  110  112 1    
   219  110  231 1    
   220  111  232 1    
   221  111  233 1    
   222  111  234 1    
   223  112  113 2    
   224  112  114 am   BACKBONE|DICT|INTERRES
   225  114  115 1    
   226  114  235 1    
   227  115  116 1    
   228  115  117 1    
   229  115  236 1    
   230  116  237 1    
   231  116  238 1    
   232  116  239 1    
   233  117  118 2    
   234  117  119 am   BACKBONE|DICT|INTERRES
   235  119  120 1    
   236  119  240 1    
   237  120  121 1    
   238  120  124 1    
   239  120  241 1    
   240  121  122 am   BACKBONE|DICT|INTERRES
   241  121  123 2    
   242  122  242 1    
   243  122  243 1    
   244  124  125 1    
   245  124  244 1    
   246  124  245 1    
   247  125  126 1    
   248  126  246 1    
   249  126  247 1    
@<TRIPOS>SUBSTRUCTURE
     1 UNK         1 GROUP             0       ****    0 ROOT    
