@<TRIPOS>MOLECULE
3R540
247   249    1
SMALL
USER_CHARGES


@<TRIPOS>ATOM
      1 CA         -0.6905  -16.4383  -43.5229 C.3       0 UNK        -0.1800 
      2 C          -1.3559  -15.0868  -43.3111 C.2       0 UNK         0.5000 
      3 O          -1.4396  -14.6218  -42.1741 O.2       0 UNK        -0.5000 
      4 N          -1.8379  -14.4608  -44.3920 N.am      1 UNK        -0.5000 
      5 CA         -2.4358  -13.1241  -44.3736 C.3       1 UNK         0.1400 
      6 C6         -3.3263  -12.8776  -45.6187 C.3       23 UNK        -0.0398 
      7 S7         -2.4360  -12.7752  -47.2154 S.3       23 UNK        -0.2404 
      8 C8         -3.2215  -14.0958  -48.1903 C.3       23 UNK        -0.0205 
      9 C9         -2.4667  -15.4107  -48.0797 C.ar      23 UNK        -0.0193 
     10 C10        -1.3760  -15.6514  -48.9192 C.ar      23 UNK        -0.1150 
     11 C11        -0.6889  -16.8674  -48.8682 C.ar      23 UNK        -0.0193 
     12 C12        -1.1059  -17.8466  -47.9620 C.ar      23 UNK        -0.1150 
     13 C13        -2.1848  -17.6144  -47.1023 C.ar      23 UNK        -0.0193 
     14 C14        -2.8619  -16.3918  -47.1652 C.ar      23 UNK        -0.1150 
     15 C15        -2.6105  -18.6812  -46.1026 C.3       23 UNK        -0.0205 
     16 S16        -4.1342  -19.5129  -46.6389 S.3       23 UNK        -0.2404 
     17 C17        -4.1595  -20.9913  -45.5717 C.3       23 UNK        -0.0398 
     18 CA         -3.6249  -22.2401  -46.3166 C.3       11 UNK         0.1400 
     19 N          -2.1787  -22.1954  -46.5103 N.am      11 UNK        -0.5000 
     20 C          -1.5401  -22.6036  -47.6131 C.2       10 UNK         0.5000 
     21 O          -2.1107  -22.9645  -48.6453 O.2       10 UNK        -0.5000 
     22 CA          0.0009  -22.6488  -47.5450 C.3       10 UNK         0.1400 
     23 CB          0.6347  -21.4612  -48.2852 C.3       10 UNK        -0.1800 
     24 N           0.5254  -22.7049  -46.1797 N.am      10 UNK        -0.5000 
     25 C           0.4289  -23.7794  -45.3838 C.2       9 UNK         0.5000 
     26 O          -0.0870  -24.8398  -45.7337 O.2       9 UNK        -0.5000 
     27 CA          0.9495  -23.6386  -43.9410 C.3       9 UNK         0.1400 
     28 CB          2.4045  -24.1194  -43.8487 C.3       9 UNK        -0.1800 
     29 N           0.8573  -22.2786  -43.4053 N.am      9 UNK        -0.5000 
     30 C          -0.2749  -21.5764  -43.2561 C.2       8 UNK         0.5000 
     31 O          -1.3879  -21.9983  -43.5699 O.2       8 UNK        -0.5000 
     32 CA         -0.1364  -20.1424  -42.7175 C.3       8 UNK         0.1400 
     33 CB         -0.2948  -20.1213  -41.1909 C.3       8 UNK        -0.1800 
     34 N           1.1273  -19.4958  -43.0867 N.am      8 UNK        -0.5000 
     35 C           1.4801  -19.2018  -44.3441 C.2       7 UNK         0.5000 
     36 O           0.8027  -19.4967  -45.3315 O.2       7 UNK        -0.5000 
     37 CA          2.8078  -18.4629  -44.5403 C.3       7 UNK         0.1400 
     38 CB          3.9207  -19.4384  -44.9537 C.3       7 UNK        -0.1800 
     39 N           2.5930  -17.4850  -45.5978 N.am      7 UNK        -0.5000 
     40 C           2.9971  -16.2124  -45.5776 C.2       6 UNK         0.5000 
     41 O           3.7353  -15.7350  -44.7120 O.2       6 UNK        -0.5000 
     42 CA          2.4132  -15.3243  -46.6892 C.3       6 UNK         0.1400 
     43 CB          0.9381  -15.0195  -46.4001 C.3       6 UNK        -0.1800 
     44 N           3.0990  -14.0457  -46.8094 N.am      6 UNK        -0.5000 
     45 C           4.2500  -13.8207  -47.4471 C.2       5 UNK         0.5000 
     46 O           4.9233  -14.7068  -47.9770 O.2       5 UNK        -0.5000 
     47 CA          4.6606  -12.3349  -47.5649 C.3       5 UNK         0.1400 
     48 CB          5.9782  -12.1388  -48.3362 C.3       5 UNK        -0.1800 
     49 N           3.6045  -11.5569  -48.2241 N.am      5 UNK        -0.5000 
     50 C           2.4786  -11.1302  -47.6371 C.2       4 UNK         0.5000 
     51 O           2.2609  -11.2418  -46.4282 O.2       4 UNK        -0.5000 
     52 CA          1.4026  -10.5466  -48.5634 C.3       4 UNK         0.1400 
     53 CB          0.8208  -11.6327  -49.4889 C.3       4 UNK        -0.1800 
     54 N           0.3200   -9.9827  -47.7635 N.am      4 UNK        -0.5000 
     55 C          -0.4092   -8.9118  -48.0935 C.2       3 UNK         0.5000 
     56 O          -0.2252   -8.2591  -49.1224 O.2       3 UNK        -0.5000 
     57 CA         -1.5493   -8.4960  -47.1411 C.3       3 UNK         0.1400 
     58 CB         -2.9159   -8.7420  -47.8016 C.3       3 UNK        -0.1800 
     59 N          -1.5355   -9.1797  -45.8464 N.am      3 UNK        -0.5000 
     60 C          -0.7157   -8.8960  -44.8250 C.2       2 UNK         0.5000 
     61 O           0.1670   -8.0392  -44.8812 O.2       2 UNK        -0.5000 
     62 CA         -0.9320   -9.6788  -43.5116 C.3       2 UNK         0.1400 
     63 CB         -1.5548   -8.7680  -42.4415 C.3       2 UNK        -0.1800 
     64 N          -1.7851  -10.8615  -43.6741 N.am      2 UNK        -0.5000 
     65 C          -1.3651  -12.0233  -44.1908 C.2       1 UNK         0.5000 
     66 O          -0.2026  -12.2211  -44.5478 O.2       1 UNK        -0.5000 
     67 C          -3.9942  -23.5411  -45.5819 C.2       11 UNK         0.5000 
     68 O          -4.8143  -24.3053  -46.0881 O.2       11 UNK        -0.5000 
     69 N          -3.3847  -23.7706  -44.4113 N.am      12 UNK        -0.5000 
     70 CA         -3.6956  -24.8722  -43.5034 C.3       12 UNK         0.1400 
     71 CB         -3.1169  -24.5550  -42.1119 C.3       12 UNK        -0.1800 
     72 C          -3.2286  -26.2405  -44.0336 C.2       12 UNK         0.5000 
     73 O          -4.0464  -27.0111  -44.5371 O.2       12 UNK        -0.5000 
     74 N          -1.9278  -26.5277  -43.8899 N.am      13 UNK        -0.5000 
     75 CA         -1.3056  -27.8227  -44.1836 C.3       13 UNK         0.1400 
     76 CB          0.1659  -27.7882  -43.7420 C.3       13 UNK        -0.1800 
     77 C          -1.4212  -28.2558  -45.6564 C.2       13 UNK         0.5000 
     78 O          -1.6212  -29.4401  -45.9283 O.2       13 UNK        -0.5000 
     79 N          -1.3232  -27.2868  -46.5741 N.am      14 UNK        -0.5000 
     80 CA         -1.4766  -27.4861  -48.0152 C.3       14 UNK         0.1400 
     81 CB         -0.7560  -26.3476  -48.7527 C.3       14 UNK        -0.1800 
     82 C          -2.9461  -27.5821  -48.4751 C.2       14 UNK         0.5000 
     83 O          -3.1739  -27.7999  -49.6645 O.2       14 UNK        -0.5000 
     84 N          -3.9146  -27.3915  -47.5632 N.am      15 UNK        -0.5000 
     85 CA         -5.3650  -27.4240  -47.7995 C.3       15 UNK         0.1400 
     86 CB         -5.8316  -28.8675  -48.0783 C.3       15 UNK        -0.1800 
     87 C          -5.8120  -26.4230  -48.8874 C.2       15 UNK         0.5000 
     88 O          -6.5991  -26.7632  -49.7721 O.2       15 UNK        -0.5000 
     89 N          -5.2496  -25.2104  -48.8064 N.am      16 UNK        -0.5000 
     90 CA         -5.4193  -24.0609  -49.6974 C.3       16 UNK         0.1400 
     91 CB         -6.8769  -23.5586  -49.6770 C.3       16 UNK        -0.1800 
     92 C          -4.8859  -24.2483  -51.1339 C.2       16 UNK         0.5000 
     93 O          -5.0939  -23.3597  -51.9610 O.2       16 UNK        -0.5000 
     94 N          -4.1758  -25.3508  -51.4214 N.am      17 UNK        -0.5000 
     95 CA         -3.6021  -25.6254  -52.7432 C.3       17 UNK         0.1400 
     96 CB         -3.0813  -27.0685  -52.7978 C.3       17 UNK        -0.1800 
     97 C          -2.4881  -24.6351  -53.1278 C.2       17 UNK         0.5000 
     98 O          -2.3837  -24.2610  -54.2959 O.2       17 UNK        -0.5000 
     99 N          -1.6978  -24.2079  -52.1342 N.am      18 UNK        -0.5000 
    100 CA        -0.6803  -23.1717  -52.2938 C.3       18 UNK         0.1400 
    101 CB         0.4365  -23.3886  -51.2679 C.3       18 UNK        -0.1800 
    102 C         -1.2860  -21.7604  -52.1975 C.2       18 UNK         0.5000 
    103 O         -0.8595  -20.8774  -52.9379 O.2       18 UNK        -0.5000 
    104 N         -2.3112  -21.5729  -51.3517 N.am      19 UNK        -0.5000 
    105 CA        -3.0734  -20.3223  -51.2348 C.3       19 UNK         0.1400 
    106 CB        -4.1012  -20.4446  -50.1056 C.3       19 UNK        -0.1800 
    107 C         -3.7673  -19.9030  -52.5468 C.2       19 UNK         0.5000 
    108 O         -3.8746  -18.7090  -52.8283 O.2       19 UNK        -0.5000 
    109 N         -4.1710  -20.8909  -53.3567 N.am      20 UNK        -0.5000 
    110 CA        -4.6820  -20.7038  -54.7146 C.3       20 UNK         0.1400 
    111 CB        -5.2199  -22.0441  -55.2372 C.3       20 UNK        -0.1800 
    112 C         -3.6403  -20.1167  -55.6916 C.2       20 UNK         0.5000 
    113 O         -4.0326  -19.4514  -56.6509 O.2       20 UNK        -0.5000 
    114 N         -2.3445  -20.3501  -55.4325 N.am      21 UNK        -0.5000 
    115 CA        -1.2358  -19.7398  -56.1669 C.3       21 UNK         0.1400 
    116 CB        -0.0156  -20.6745  -56.1511 C.3       21 UNK        -0.1800 
    117 C         -0.8804  -18.3495  -55.6065 C.2       21 UNK         0.5000 
    118 O         -0.4711  -17.4845  -56.3824 O.2       21 UNK        -0.5000 
    119 N         -1.0601  -18.1433  -54.2916 N.am      22 UNK        -0.5000 
    120 CA        -0.9638  -16.8255  -53.6370 C.3       22 UNK         0.1400 
    121 C         -2.0284  -15.8198  -54.1599 C.2       22 UNK         0.5000 
    122 N         -3.2903  -16.2224  -54.2539 N.am      22 UNK        -0.7600 
    123 O         -1.7092  -14.6771  -54.4758 O.2       22 UNK        -0.5000 
    124 C124       -1.0557  -16.8914  -52.0896 C.3       23 UNK        -0.0398 
    125 S125        0.1355  -18.0135  -51.2852 S.3       23 UNK        -0.2404 
    126 C126        0.5287  -17.0994  -49.7573 C.3       23 UNK        -0.0205 
    127 H127       -1.0989  -17.1674  -42.8240 H         1 UNK         0.0600 
    128 H128        0.3820  -16.3582  -43.3462 H         1 UNK         0.0600 
    129 H129       -0.8435  -16.8153  -44.5330 H         1 UNK         0.0600 
    130 H130       -1.7041  -14.8599  -45.3101 H         1 UNK         0.3000 
    131 H131       -3.0922  -13.0776  -43.5016 H         1 UNK         0.0600 
    132 H132       -3.8860  -11.9492  -45.4958 H         1 UNK         0.0800 
    133 H133       -4.0854  -13.6587  -45.6711 H         1 UNK         0.0800 
    134 H134       -3.2422  -13.7825  -49.2352 H         1 UNK         0.0800 
    135 H135       -4.2657  -14.2219  -47.9011 H         1 UNK         0.0800 
    136 H136       -1.0578  -14.8811  -49.6070 H         1 UNK         0.1150 
    137 H137       -0.5810  -18.7863  -47.9164 H         1 UNK         0.1150 
    138 H138       -3.7041  -16.2126  -46.5118 H         1 UNK         0.1150 
    139 H139       -1.8162  -19.4181  -45.9787 H         1 UNK         0.0800 
    140 H140       -2.7721  -18.2308  -45.1227 H         1 UNK         0.0800 
    141 H141       -5.1971  -21.1428  -45.2684 H         1 UNK         0.0800 
    142 H142       -3.6003  -20.8011  -44.6542 H         1 UNK         0.0800 
    143 H143       -4.1246  -22.2771  -47.2855 H         1 UNK         0.0600 
    144 H144       -1.6279  -21.9577  -45.6959 H         1 UNK         0.3000 
    145 H145        0.3104  -23.5638  -48.0513 H         1 UNK         0.0600 
    146 H146        1.6741  -21.6714  -48.5369 H         1 UNK         0.0600 
    147 H147        0.1130  -21.2353  -49.2164 H         1 UNK         0.0600 
    148 H148        0.6242  -20.5604  -47.6777 H         1 UNK         0.0600 
    149 H149        0.9240  -21.8519  -45.8101 H         1 UNK         0.3000 
    150 H150        0.3365  -24.2837  -43.3091 H         1 UNK         0.0600 
    151 H151        2.5053  -25.1385  -44.2246 H         1 UNK         0.0600 
    152 H152        2.7554  -24.1200  -42.8165 H         1 UNK         0.0600 
    153 H153        3.0750  -23.4868  -44.4319 H         1 UNK         0.0600 
    154 H154        1.7245  -21.8421  -43.1297 H         1 UNK         0.3000 
    155 H155       -0.9512  -19.5603  -43.1526 H         1 UNK         0.0600 
    156 H156        0.5094  -20.6657  -40.6943 H         1 UNK         0.0600 
    157 H157       -1.2375  -20.5804  -40.8895 H         1 UNK         0.0600 
    158 H158       -0.2962  -19.1001  -40.8091 H         1 UNK         0.0600 
    159 H159        1.7367  -19.2302  -42.3263 H         1 UNK         0.3000 
    160 H160        3.0816  -17.9671  -43.6066 H         1 UNK         0.0600 
    161 H161        3.6710  -19.9688  -45.8738 H         1 UNK         0.0600 
    162 H162        4.0943  -20.1857  -44.1786 H         1 UNK         0.0600 
    163 H163        4.8619  -18.9128  -45.1164 H         1 UNK         0.0600 
    164 H164        1.9331  -17.7900  -46.3018 H         1 UNK         0.3000 
    165 H165        2.4881  -15.8564  -47.6397 H         1 UNK         0.0600 
    166 H166        0.5054  -14.3765  -47.1664 H         1 UNK         0.0600 
    167 H167        0.3446  -15.9312  -46.3648 H         1 UNK         0.0600 
    168 H168        0.8241  -14.5137  -45.4417 H         1 UNK         0.0600 
    169 H169        2.6327  -13.2466  -46.3931 H         1 UNK         0.3000 
    170 H170        4.8083  -11.9553  -46.5516 H         1 UNK         0.0600 
    171 H171        6.7953  -12.6803  -47.8578 H         1 UNK         0.0600 
    172 H172        5.9023  -12.4970  -49.3636 H         1 UNK         0.0600 
    173 H173        6.2628  -11.0869  -48.3680 H         1 UNK         0.0600 
    174 H174        3.6957  -11.4549  -49.2246 H         1 UNK         0.3000 
    175 H175        1.8724   -9.7647  -49.1638 H         1 UNK         0.0600 
    176 H176        0.3691  -12.4449  -48.9174 H         1 UNK         0.0600 
    177 H177        0.0529  -11.2220  -50.1446 H         1 UNK         0.0600 
    178 H178        1.5896  -12.0680  -50.1279 H         1 UNK         0.0600 
    179 H179        0.1694  -10.4348  -46.8702 H         1 UNK         0.3000 
    180 H180       -1.4465   -7.4233  -46.9648 H         1 UNK         0.0600 
    181 H181       -3.7307   -8.3930  -47.1671 H         1 UNK         0.0600 
    182 H182       -3.0784   -9.8007  -48.0067 H         1 UNK         0.0600 
    183 H183       -2.9952   -8.2091  -48.7501 H         1 UNK         0.0600 
    184 H184       -2.2199   -9.9090  -45.7183 H         1 UNK         0.3000 
    185 H185        0.0506   -9.9967  -43.1559 H         1 UNK         0.0600 
    186 H186       -1.6576   -9.2902  -41.4901 H         1 UNK         0.0600 
    187 H187       -0.9314   -7.8910  -42.2623 H         1 UNK         0.0600 
    188 H188       -2.5422   -8.4130  -42.7395 H         1 UNK         0.0600 
    189 H189       -2.7489  -10.7614  -43.3884 H         1 UNK         0.3000 
    190 H190       -2.6895  -23.1043  -44.0804 H         1 UNK         0.3000 
    191 H191       -4.7815  -24.9252  -43.3991 H         1 UNK         0.0600 
    192 H192       -3.2971  -25.3747  -41.4152 H         1 UNK         0.0600 
    193 H193       -3.5842  -23.6647  -41.6907 H         1 UNK         0.0600 
    194 H194       -2.0418  -24.3758  -42.1425 H         1 UNK         0.0600 
    195 H195       -1.3218  -25.8195  -43.5076 H         1 UNK         0.3000 
    196 H196       -1.8212  -28.5746  -43.5826 H         1 UNK         0.0600 
    197 H197        0.7361  -27.0430  -44.2971 H         1 UNK         0.0600 
    198 H198        0.2558  -27.5587  -42.6802 H         1 UNK         0.0600 
    199 H199        0.6445  -28.7545  -43.9062 H         1 UNK         0.0600 
    200 H200       -1.0884  -26.3474  -46.2604 H         1 UNK         0.3000 
    201 H201       -0.9905  -28.4240  -48.2913 H         1 UNK         0.0600 
    202 H202       -1.2445  -25.3939  -48.5680 H         1 UNK         0.0600 
    203 H203       -0.7542  -26.5129  -49.8308 H         1 UNK         0.0600 
    204 H204        0.2833  -26.2618  -48.4348 H         1 UNK         0.0600 
    205 H205       -3.6433  -27.2100  -46.6032 H         1 UNK         0.3000 
    206 H206       -5.8348  -27.0967  -46.8707 H         1 UNK         0.0600 
    207 H207       -5.5208  -29.5417  -47.2803 H         1 UNK         0.0600 
    208 H208       -6.9190  -28.9213  -48.1430 H         1 UNK         0.0600 
    209 H209       -5.4282  -29.2498  -49.0165 H         1 UNK         0.0600 
    210 H210       -4.6754  -25.0346  -47.9890 H         1 UNK         0.3000 
    211 H211       -4.8014  -23.2750  -49.2662 H         1 UNK         0.0600 
    212 H212       -6.9770  -22.6162  -50.2166 H         1 UNK         0.0600 
    213 H213       -7.2175  -23.3826  -48.6565 H         1 UNK         0.0600 
    214 H214       -7.5580  -24.2718  -50.1414 H         1 UNK         0.0600 
    215 H215       -4.0434  -26.0590  -50.7090 H         1 UNK         0.3000 
    216 H216       -4.4020  -25.5271  -53.4804 H         1 UNK         0.0600 
    217 H217       -2.2453  -27.2214  -52.1145 H         1 UNK         0.0600 
    218 H218       -2.7330  -27.3185  -53.8007 H         1 UNK         0.0600 
    219 H219       -3.8634  -27.7818  -52.5370 H         1 UNK         0.0600 
    220 H220       -1.8614  -24.5557  -51.2011 H         1 UNK         0.3000 
    221 H221       -0.2298  -23.2594  -53.2852 H         1 UNK         0.0600 
    222 H222        0.9929  -24.3009  -51.4831 H         1 UNK         0.0600 
    223 H223        0.0316  -23.4805  -50.2647 H         1 UNK         0.0600 
    224 H224        1.1482  -22.5618  -51.2724 H         1 UNK         0.0600 
    225 H225       -2.5667  -22.3204  -50.7206 H         1 UNK         0.3000 
    226 H226       -2.3687  -19.5365  -50.9608 H         1 UNK         0.0600 
    227 H227       -4.9027  -21.1369  -50.3591 H         1 UNK         0.0600 
    228 H228       -3.6306  -20.7891  -49.1871 H         1 UNK         0.0600 
    229 H229       -4.5596  -19.4780  -49.8937 H         1 UNK         0.0600 
    230 H230       -4.1314  -21.8437  -53.0114 H         1 UNK         0.3000 
    231 H231       -5.5149  -19.9998  -54.6614 H         1 UNK         0.0600 
    232 H232       -4.4315  -22.7937  -55.3057 H         1 UNK         0.0600 
    233 H233       -5.6529  -21.9307  -56.2318 H         1 UNK         0.0600 
    234 H234       -6.0002  -22.4377  -54.5854 H         1 UNK         0.0600 
    235 H235       -2.0937  -20.8665  -54.5983 H         1 UNK         0.3000 
    236 H236       -1.5316  -19.6102  -57.2102 H         1 UNK         0.0600 
    237 H237       -0.2738  -21.6683  -56.5172 H         1 UNK         0.0600 
    238 H238        0.7744  -20.2858  -56.7946 H         1 UNK         0.0600 
    239 H239        0.4076  -20.7833  -55.1532 H         1 UNK         0.0600 
    240 H240       -1.3246  -18.9245  -53.7050 H         1 UNK         0.3000 
    241 H241        0.0174  -16.4184  -53.8886 H         1 UNK         0.0600 
    242 H242       -3.9950  -15.5876  -54.5929 H         1 UNK         0.3800 
    243 H243       -3.5566  -17.1439  -53.9174 H         1 UNK         0.3800 
    244 H244       -2.0552  -17.1820  -51.7657 H         1 UNK         0.0800 
    245 H245       -0.8958  -15.8883  -51.6940 H         1 UNK         0.0800 
    246 H246        0.9957  -16.1478  -50.0164 H         1 UNK         0.0800 
    247 H247        1.2804  -17.6617  -49.2018 H         1 UNK         0.0800 
@<TRIPOS>BOND
     1    1    2 1    
     2    1  127 1    
     3    1  128 1    
     4    1  129 1    
     5    2    3 2    
     6    2    4 am   BACKBONE|DICT|INTERRES
     7    4    5 1    
     8    4  130 1    
     9    5    6 1    
    10    5   65 1    
    11    5  131 1    
    12    6    7 1    
    13    6  132 1    
    14    6  133 1    
    15    7    8 1    
    16    8    9 1    
    17    8  134 1    
    18    8  135 1    
    19    9   10 ar   
    20    9   14 ar   
    21   10   11 ar   
    22   10  136 1    
    23   11   12 ar   
    24   11  126 1    
    25   12   13 ar   
    26   12  137 1    
    27   13   14 ar   
    28   13   15 1    
    29   14  138 1    
    30   15   16 1    
    31   15  139 1    
    32   15  140 1    
    33   16   17 1    
    34   17   18 1    
    35   17  141 1    
    36   17  142 1    
    37   18   19 1    
    38   18   67 1    
    39   18  143 1    
    40   19   20 am   BACKBONE|DICT|INTERRES
    41   19  144 1    
    42   20   21 2    
    43   20   22 1    
    44   22   23 1    
    45   22   24 1    
    46   22  145 1    
    47   23  146 1    
    48   23  147 1    
    49   23  148 1    
    50   24   25 am   BACKBONE|DICT|INTERRES
    51   24  149 1    
    52   25   26 2    
    53   25   27 1    
    54   27   28 1    
    55   27   29 1    
    56   27  150 1    
    57   28  151 1    
    58   28  152 1    
    59   28  153 1    
    60   29   30 am   BACKBONE|DICT|INTERRES
    61   29  154 1    
    62   30   31 2    
    63   30   32 1    
    64   32   33 1    
    65   32   34 1    
    66   32  155 1    
    67   33  156 1    
    68   33  157 1    
    69   33  158 1    
    70   34   35 am   BACKBONE|DICT|INTERRES
    71   34  159 1    
    72   35   36 2    
    73   35   37 1    
    74   37   38 1    
    75   37   39 1    
    76   37  160 1    
    77   38  161 1    
    78   38  162 1    
    79   38  163 1    
    80   39   40 am   BACKBONE|DICT|INTERRES
    81   39  164 1    
    82   40   41 2    
    83   40   42 1    
    84   42   43 1    
    85   42   44 1    
    86   42  165 1    
    87   43  166 1    
    88   43  167 1    
    89   43  168 1    
    90   44   45 am   BACKBONE|DICT|INTERRES
    91   44  169 1    
    92   45   46 2    
    93   45   47 1    
    94   47   48 1    
    95   47   49 1    
    96   47  170 1    
    97   48  171 1    
    98   48  172 1    
    99   48  173 1    
   100   49   50 am   BACKBONE|DICT|INTERRES
   101   49  174 1    
   102   50   51 2    
   103   50   52 1    
   104   52   53 1    
   105   52   54 1    
   106   52  175 1    
   107   53  176 1    
   108   53  177 1    
   109   53  178 1    
   110   54   55 am   BACKBONE|DICT|INTERRES
   111   54  179 1    
   112   55   56 2    
   113   55   57 1    
   114   57   58 1    
   115   57   59 1    
   116   57  180 1    
   117   58  181 1    
   118   58  182 1    
   119   58  183 1    
   120   59   60 am   BACKBONE|DICT|INTERRES
   121   59  184 1    
   122   60   61 2    
   123   60   62 1    
   124   62   63 1    
   125   62   64 1    
   126   62  185 1    
   127   63  186 1    
   128   63  187 1    
   129   63  188 1    
   130   64   65 am   BACKBONE|DICT|INTERRES
   131   64  189 1    
   132   65   66 2    
   133   67   68 2    
   134   67   69 am   BACKBONE|DICT|INTERRES
   135   69   70 1    
   136   69  190 1    
   137   70   71 1    
   138   70   72 1    
   139   70  191 1    
   140   71  192 1    
   141   71  193 1    
   142   71  194 1    
   143   72   73 2    
   144   72   74 am   BACKBONE|DICT|INTERRES
   145   74   75 1    
   146   74  195 1    
   147   75   76 1    
   148   75   77 1    
   149   75  196 1    
   150   76  197 1    
   151   76  198 1    
   152   76  199 1    
   153   77   78 2    
   154   77   79 am   BACKBONE|DICT|INTERRES
   155   79   80 1    
   156   79  200 1    
   157   80   81 1    
   158   80   82 1    
   159   80  201 1    
   160   81  202 1    
   161   81  203 1    
   162   81  204 1    
   163   82   83 2    
   164   82   84 am   BACKBONE|DICT|INTERRES
   165   84   85 1    
   166   84  205 1    
   167   85   86 1    
   168   85   87 1    
   169   85  206 1    
   170   86  207 1    
   171   86  208 1    
   172   86  209 1    
   173   87   88 2    
   174   87   89 am   BACKBONE|DICT|INTERRES
   175   89   90 1    
   176   89  210 1    
   177   90   91 1    
   178   90   92 1    
   179   90  211 1    
   180   91  212 1    
   181   91  213 1    
   182   91  214 1    
   183   92   93 2    
   184   92   94 am   BACKBONE|DICT|INTERRES
   185   94   95 1    
   186   94  215 1    
   187   95   96 1    
   188   95   97 1    
   189   95  216 1    
   190   96  217 1    
   191   96  218 1    
   192   96  219 1    
   193   97   98 2    
   194   97   99 am   BACKBONE|DICT|INTERRES
   195   99  100 1    
   196   99  220 1    
   197  100  101 1    
   198  100  102 1    
   199  100  221 1    
   200  101  222 1    
   201  101  223 1    
   202  101  224 1    
   203  102  103 2    
   204  102  104 am   BACKBONE|DICT|INTERRES
   205  104  105 1    
   206  104  225 1    
   207  105  106 1    
   208  105  107 1    
   209  105  226 1    
   210  106  227 1    
   211  106  228 1    
   212  106  229 1    
   213  107  108 2    
   214  107  109 am   BACKBONE|DICT|INTERRES
   215  109  110 1    
   216  109  230 1    
   217  110  111 1    
   218  110  112 1    
   219  110  231 1    
   220  111  232 1    
   221  111  233 1    
   222  111  234 1    
   223  112  113 2    
   224  112  114 am   BACKBONE|DICT|INTERRES
   225  114  115 1    
   226  114  235 1    
   227  115  116 1    
   228  115  117 1    
   229  115  236 1    
   230  116  237 1    
   231  116  238 1    
   232  116  239 1    
   233  117  118 2    
   234  117  119 am   BACKBONE|DICT|INTERRES
   235  119  120 1    
   236  119  240 1    
   237  120  121 1    
   238  120  124 1    
   239  120  241 1    
   240  121  122 am   BACKBONE|DICT|INTERRES
   241  121  123 2    
   242  122  242 1    
   243  122  243 1    
   244  124  125 1    
   245  124  244 1    
   246  124  245 1    
   247  125  126 1    
   248  126  246 1    
   249  126  247 1    
@<TRIPOS>SUBSTRUCTURE
     1 UNK         1 GROUP             0       ****    0 ROOT    
