@<TRIPOS>MOLECULE
3R540
247   249    1
SMALL
USER_CHARGES


@<TRIPOS>ATOM
      1 CA         -3.8855  -16.8925  -45.0214 C.3       0 UNK        -0.1800 
      2 C          -3.2405  -15.5763  -45.4270 C.2       0 UNK         0.5000 
      3 O          -2.0147  -15.4773  -45.4693 O.2       0 UNK        -0.5000 
      4 N          -4.0662  -14.5555  -45.6966 N.am      1 UNK        -0.5000 
      5 CA         -3.7010  -13.2231  -46.2143 C.3       1 UNK         0.1400 
      6 C6         -2.9298  -13.2759  -47.5620 C.3       23 UNK        -0.0398 
      7 S7         -3.7193  -14.2791  -48.8616 S.3       23 UNK        -0.2404 
      8 C8         -2.4301  -14.1418  -50.1384 C.3       23 UNK        -0.0205 
      9 C9         -2.0523  -15.4939  -50.7177 C.ar      23 UNK        -0.0193 
     10 C10        -2.4040  -15.8080  -52.0302 C.ar      23 UNK        -0.1150 
     11 C11        -1.9972  -17.0126  -52.6042 C.ar      23 UNK        -0.0193 
     12 C12        -1.2579  -17.9216  -51.8412 C.ar      23 UNK        -0.1150 
     13 C13        -0.9125  -17.6355  -50.5144 C.ar      23 UNK        -0.0193 
     14 C14        -1.3097  -16.4083  -49.9631 C.ar      23 UNK        -0.1150 
     15 C15        -0.0912  -18.6777  -49.7480 C.3       23 UNK        -0.0205 
     16 S16         0.2990  -18.3081  -47.9982 S.3       23 UNK        -0.2404 
     17 C17        -1.2919  -18.6443  -47.1732 C.3       23 UNK        -0.0398 
     18 CA         -1.4806  -20.1408  -46.8277 C.3       11 UNK         0.1400 
     19 N          -0.4559  -20.6651  -45.9206 N.am      11 UNK        -0.5000 
     20 C          -0.2558  -21.9714  -45.6936 C.2       10 UNK         0.5000 
     21 O          -0.9154  -22.8685  -46.2184 O.2       10 UNK        -0.5000 
     22 CA          0.8277  -22.3304  -44.6654 C.3       10 UNK         0.1400 
     23 CB          2.2316  -22.1201  -45.2492 C.3       10 UNK        -0.1800 
     24 N           0.6772  -21.5601  -43.4314 N.am      10 UNK        -0.5000 
     25 C          -0.3453  -21.7209  -42.5780 C.2       9 UNK         0.5000 
     26 O          -1.2555  -22.5308  -42.7474 O.2       9 UNK        -0.5000 
     27 CA         -0.3885  -20.8043  -41.3447 C.3       9 UNK         0.1400 
     28 CB          0.3522  -21.4546  -40.1683 C.3       9 UNK        -0.1800 
     29 N           0.1440  -19.4645  -41.5904 N.am      9 UNK        -0.5000 
     30 C          -0.3733  -18.5913  -42.4670 C.2       8 UNK         0.5000 
     31 O          -1.3065  -18.8664  -43.2218 O.2       8 UNK        -0.5000 
     32 CA          0.2536  -17.1910  -42.5526 C.3       8 UNK         0.1400 
     33 CB         -0.7590  -16.0960  -42.1645 C.3       8 UNK        -0.1800 
     34 N           1.5205  -17.0561  -41.8268 N.am      8 UNK        -0.5000 
     35 C           1.7484  -16.8693  -40.5196 C.2       7 UNK         0.5000 
     36 O           0.8687  -16.8102  -39.6596 O.2       7 UNK        -0.5000 
     37 CA          3.2398  -16.7721  -40.1269 C.3       7 UNK         0.1400 
     38 CB          3.4737  -16.7847  -38.6017 C.3       7 UNK        -0.1800 
     39 N           4.0520  -17.7989  -40.7928 N.am      7 UNK        -0.5000 
     40 C           3.8860  -19.1290  -40.7063 C.2       6 UNK         0.5000 
     41 O           3.0698  -19.6658  -39.9575 O.2       6 UNK        -0.5000 
     42 CA          4.7482  -19.9930  -41.6529 C.3       6 UNK         0.1400 
     43 CB          4.1971  -21.4227  -41.8303 C.3       6 UNK        -0.1800 
     44 N           4.9663  -19.3577  -42.9579 N.am      6 UNK        -0.5000 
     45 C           4.0329  -18.9539  -43.8320 C.2       5 UNK         0.5000 
     46 O           2.8206  -19.1270  -43.6838 O.2       5 UNK        -0.5000 
     47 CA          4.5556  -18.1674  -45.0497 C.3       5 UNK         0.1400 
     48 CB          3.7886  -18.5334  -46.3303 C.3       5 UNK        -0.1800 
     49 N           4.4816  -16.7156  -44.8652 N.am      5 UNK        -0.5000 
     50 C           5.0559  -15.9873  -43.8948 C.2       4 UNK         0.5000 
     51 O           5.6823  -16.4669  -42.9491 O.2       4 UNK        -0.5000 
     52 CA          4.9168  -14.4552  -44.0025 C.3       4 UNK         0.1400 
     53 CB          6.1633  -13.8524  -44.6679 C.3       4 UNK        -0.1800 
     54 N           3.7273  -14.0371  -44.7496 N.am      4 UNK        -0.5000 
     55 C           2.4847  -14.0921  -44.2558 C.2       3 UNK         0.5000 
     56 O           2.2341  -14.4589  -43.1074 O.2       3 UNK        -0.5000 
     57 CA          1.3476  -13.7124  -45.2252 C.3       3 UNK         0.1400 
     58 CB          1.1277  -14.8356  -46.2541 C.3       3 UNK        -0.1800 
     59 N           0.0779  -13.4543  -44.5451 N.am      3 UNK        -0.5000 
     60 C          -0.1705  -12.4303  -43.7120 C.2       2 UNK         0.5000 
     61 O           0.6498  -11.5469  -43.4544 O.2       2 UNK        -0.5000 
     62 CA         -1.5863  -12.3837  -43.0861 C.3       2 UNK         0.1400 
     63 CB         -1.9543  -11.0047  -42.4985 C.3       2 UNK        -0.1800 
     64 N          -2.6124  -12.8642  -44.0194 N.am      2 UNK        -0.5000 
     65 C          -2.9128  -12.3390  -45.2170 C.2       1 UNK         0.5000 
     66 O          -2.5539  -11.2159  -45.5741 O.2       1 UNK        -0.5000 
     67 C          -2.9005  -20.4043  -46.2947 C.2       11 UNK         0.5000 
     68 O          -3.7906  -20.6859  -47.0951 O.2       11 UNK        -0.5000 
     69 N          -3.0888  -20.3417  -44.9686 N.am      12 UNK        -0.5000 
     70 CA         -4.3502  -20.6650  -44.3037 C.3       12 UNK         0.1400 
     71 CB         -4.2815  -20.2554  -42.8250 C.3       12 UNK        -0.1800 
     72 C          -4.7236  -22.1517  -44.4450 C.2       12 UNK         0.5000 
     73 O          -5.8600  -22.4548  -44.8090 O.2       12 UNK        -0.5000 
     74 N          -3.7607  -23.0481  -44.1829 N.am      13 UNK        -0.5000 
     75 CA         -3.9365  -24.4990  -44.2750 C.3       13 UNK         0.1400 
     76 CB         -2.7319  -25.2101  -43.6405 C.3       13 UNK        -0.1800 
     77 C          -4.1506  -24.9892  -45.7169 C.2       13 UNK         0.5000 
     78 O          -5.0042  -25.8474  -45.9441 O.2       13 UNK        -0.5000 
     79 N          -3.3847  -24.4311  -46.6642 N.am      14 UNK        -0.5000 
     80 CA         -3.4635  -24.7716  -48.0860 C.3       14 UNK         0.1400 
     81 CB         -2.1130  -24.4643  -48.7461 C.3       14 UNK        -0.1800 
     82 C          -4.6142  -24.0607  -48.8278 C.2       14 UNK         0.5000 
     83 O          -4.8806  -24.4098  -49.9763 O.2       14 UNK        -0.5000 
     84 N          -5.2675  -23.0923  -48.1682 N.am      15 UNK        -0.5000 
     85 CA         -6.3683  -22.2561  -48.6563 C.3       15 UNK         0.1400 
     86 CB         -7.6459  -23.0915  -48.8778 C.3       15 UNK        -0.1800 
     87 C          -5.9647  -21.3862  -49.8659 C.2       15 UNK         0.5000 
     88 O          -6.6431  -21.3808  -50.8959 O.2       15 UNK        -0.5000 
     89 N          -4.8574  -20.6521  -49.6890 N.am      16 UNK        -0.5000 
     90 CA         -4.2663  -19.6701  -50.5999 C.3       16 UNK         0.1400 
     91 CB         -5.1035  -18.3729  -50.5947 C.3       16 UNK        -0.1800 
     92 C          -4.0087  -20.2458  -52.0070 C.2       16 UNK         0.5000 
     93 O          -3.1012  -21.0617  -52.1648 O.2       16 UNK        -0.5000 
     94 N          -4.8037  -19.8260  -53.0015 N.am      17 UNK        -0.5000 
     95 CA         -4.6982  -20.2448  -54.4012 C.3       17 UNK         0.1400 
     96 CB         -5.6673  -19.4130  -55.2529 C.3       17 UNK        -0.1800 
     97 C          -4.9208  -21.7510  -54.6336 C.2       17 UNK         0.5000 
     98 O          -4.3709  -22.2997  -55.5907 O.2       17 UNK        -0.5000 
     99 N          -5.6633  -22.4118  -53.7314 N.am      18 UNK        -0.5000 
    100 CA        -5.9059  -23.8586  -53.7447 C.3       18 UNK         0.1400 
    101 CB        -7.0314  -24.1964  -52.7593 C.3       18 UNK        -0.1800 
    102 C         -4.6455  -24.7142  -53.4828 C.2       18 UNK         0.5000 
    103 O         -4.6846  -25.9250  -53.7038 O.2       18 UNK        -0.5000 
    104 N         -3.5318  -24.0727  -53.0973 N.am      19 UNK        -0.5000 
    105 CA        -2.1837  -24.6433  -53.0640 C.3       19 UNK         0.1400 
    106 CB        -1.2697  -23.6712  -52.2981 C.3       19 UNK        -0.1800 
    107 C         -1.5863  -24.9050  -54.4669 C.2       19 UNK         0.5000 
    108 O         -0.4750  -25.4292  -54.5460 O.2       19 UNK        -0.5000 
    109 N         -2.2998  -24.4964  -55.5300 N.am      20 UNK        -0.5000 
    110 CA        -1.8567  -24.3659  -56.9214 C.3       20 UNK         0.1400 
    111 CB        -1.3441  -25.6989  -57.5073 C.3       20 UNK        -0.1800 
    112 C         -0.8596  -23.1989  -57.0395 C.2       20 UNK         0.5000 
    113 O          0.2418  -23.3558  -57.5700 O.2       20 UNK        -0.5000 
    114 N         -1.2757  -22.0518  -56.4933 N.am      21 UNK        -0.5000 
    115 CA        -0.5158  -20.8112  -56.4081 C.3       21 UNK         0.1400 
    116 CB        -0.1713  -20.5565  -54.9303 C.3       21 UNK        -0.1800 
    117 C         -1.3559  -19.6587  -56.9760 C.2       21 UNK         0.5000 
    118 O         -2.5786  -19.7799  -57.0782 O.2       21 UNK        -0.5000 
    119 N         -0.6829  -18.5518  -57.3102 N.am      22 UNK        -0.5000 
    120 CA        -1.2778  -17.2975  -57.8127 C.3       22 UNK         0.1400 
    121 C         -1.9076  -17.3904  -59.2384 C.2       22 UNK         0.5000 
    122 N         -1.6181  -18.4198  -60.0250 N.am      22 UNK        -0.7600 
    123 O         -2.6429  -16.5004  -59.6578 O.2       22 UNK        -0.5000 
    124 C124       -2.2306  -16.6189  -56.7859 C.3       23 UNK        -0.0398 
    125 S125       -1.4136  -16.2554  -55.1935 S.3       23 UNK        -0.2404 
    126 C126       -2.3565  -17.3117  -54.0504 C.3       23 UNK        -0.0205 
    127 H127       -4.8935  -16.7447  -44.6339 H         1 UNK         0.0600 
    128 H128       -3.2948  -17.3800  -44.2472 H         1 UNK         0.0600 
    129 H129       -3.9436  -17.5589  -45.8811 H         1 UNK         0.0600 
    130 H130       -5.0613  -14.7097  -45.6117 H         1 UNK         0.3000 
    131 H131       -4.6443  -12.7049  -46.3924 H         1 UNK         0.0600 
    132 H132       -1.9225  -13.6641  -47.4020 H         1 UNK         0.0800 
    133 H133       -2.8049  -12.2693  -47.9657 H         1 UNK         0.0800 
    134 H134       -1.5285  -13.6778  -49.7363 H         1 UNK         0.0800 
    135 H135       -2.7866  -13.4696  -50.9203 H         1 UNK         0.0800 
    136 H136       -2.9701  -15.1014  -52.6212 H         1 UNK         0.1150 
    137 H137       -0.9451  -18.8576  -52.2834 H         1 UNK         0.1150 
    138 H138       -1.0420  -16.1443  -48.9504 H         1 UNK         0.1150 
    139 H139        0.8569  -18.8056  -50.2721 H         1 UNK         0.0800 
    140 H140       -0.5979  -19.6422  -49.8019 H         1 UNK         0.0800 
    141 H141       -2.0996  -18.2861  -47.8142 H         1 UNK         0.0800 
    142 H142       -1.3312  -18.0396  -46.2656 H         1 UNK         0.0800 
    143 H143       -1.3980  -20.7034  -47.7602 H         1 UNK         0.0600 
    144 H144        0.1072  -19.9877  -45.4277 H         1 UNK         0.3000 
    145 H145        0.7197  -23.3893  -44.4204 H         1 UNK         0.0600 
    146 H146        2.3732  -22.7209  -46.1483 H         1 UNK         0.0600 
    147 H147        3.0055  -22.4099  -44.5388 H         1 UNK         0.0600 
    148 H148        2.3975  -21.0794  -45.5225 H         1 UNK         0.0600 
    149 H149        1.3563  -20.8294  -43.2553 H         1 UNK         0.3000 
    150 H150       -1.4347  -20.6871  -41.0567 H         1 UNK         0.0600 
    151 H151        1.3937  -21.6625  -40.4138 H         1 UNK         0.0600 
    152 H152       -0.1120  -22.4027  -39.8943 H         1 UNK         0.0600 
    153 H153        0.3352  -20.8157  -39.2851 H         1 UNK         0.0600 
    154 H154        0.9330  -19.1759  -41.0275 H         1 UNK         0.3000 
    155 H155        0.5086  -17.0399  -43.6025 H         1 UNK         0.0600 
    156 H156       -1.1804  -16.2616  -41.1730 H         1 UNK         0.0600 
    157 H157       -1.5922  -16.0721  -42.8652 H         1 UNK         0.0600 
    158 H158       -0.2927  -15.1126  -42.1715 H         1 UNK         0.0600 
    159 H159        2.3338  -17.1496  -42.4188 H         1 UNK         0.3000 
    160 H160        3.5906  -15.8108  -40.5058 H         1 UNK         0.0600 
    161 H161        3.0992  -17.6981  -38.1389 H         1 UNK         0.0600 
    162 H162        2.9666  -15.9459  -38.1238 H         1 UNK         0.0600 
    163 H163        4.5343  -16.6993  -38.3655 H         1 UNK         0.0600 
    164 H164        4.7376  -17.4504  -41.4566 H         1 UNK         0.3000 
    165 H165        5.7282  -20.0729  -41.1809 H         1 UNK         0.0600 
    166 H166        4.1667  -21.9517  -40.8771 H         1 UNK         0.0600 
    167 H167        3.1850  -21.4176  -42.2313 H         1 UNK         0.0600 
    168 H168        4.8226  -22.0068  -42.5050 H         1 UNK         0.0600 
    169 H169        5.9262  -19.1083  -43.1539 H         1 UNK         0.3000 
    170 H170        5.6045  -18.4271  -45.2052 H         1 UNK         0.0600 
    171 H171        4.1764  -17.9931  -47.1940 H         1 UNK         0.0600 
    172 H172        3.8813  -19.5968  -46.5507 H         1 UNK         0.0600 
    173 H173        2.7264  -18.3033  -46.2421 H         1 UNK         0.0600 
    174 H174        3.9715  -16.2134  -45.5752 H         1 UNK         0.3000 
    175 H175        4.8506  -14.0584  -42.9870 H         1 UNK         0.0600 
    176 H176        7.0675  -14.1231  -44.1209 H         1 UNK         0.0600 
    177 H177        6.2830  -14.2031  -45.6938 H         1 UNK         0.0600 
    178 H178        6.1119  -12.7636  -44.6883 H         1 UNK         0.0600 
    179 H179        3.8737  -13.7150  -45.6957 H         1 UNK         0.3000 
    180 H180        1.6383  -12.8020  -45.7530 H         1 UNK         0.0600 
    181 H181        0.8348  -15.7702  -45.7735 H         1 UNK         0.0600 
    182 H182        2.0315  -15.0337  -46.8311 H         1 UNK         0.0600 
    183 H183        0.3458  -14.5727  -46.9665 H         1 UNK         0.0600 
    184 H184       -0.6547  -14.1358  -44.7131 H         1 UNK         0.3000 
    185 H185       -1.5753  -13.0922  -42.2575 H         1 UNK         0.0600 
    186 H186       -1.2762  -10.7356  -41.6879 H         1 UNK         0.0600 
    187 H187       -1.8964  -10.2121  -43.2446 H         1 UNK         0.0600 
    188 H188       -2.9640  -11.0074  -42.0883 H         1 UNK         0.0600 
    189 H189       -2.9667  -13.7920  -43.8356 H         1 UNK         0.3000 
    190 H190       -2.3240  -20.0378  -44.3719 H         1 UNK         0.3000 
    191 H191       -5.1379  -20.0763  -44.7787 H         1 UNK         0.0600 
    192 H192       -4.0838  -19.1890  -42.7180 H         1 UNK         0.0600 
    193 H193       -5.2246  -20.4635  -42.3184 H         1 UNK         0.0600 
    194 H194       -3.4979  -20.7954  -42.2941 H         1 UNK         0.0600 
    195 H195       -2.8530  -22.7256  -43.8590 H         1 UNK         0.3000 
    196 H196       -4.8256  -24.7656  -43.6997 H         1 UNK         0.0600 
    197 H197       -2.8412  -26.2938  -43.6971 H         1 UNK         0.0600 
    198 H198       -2.6311  -24.9490  -42.5870 H         1 UNK         0.0600 
    199 H199       -1.7996  -24.9460  -44.1418 H         1 UNK         0.0600 
    200 H200       -2.6665  -23.7635  -46.3965 H         1 UNK         0.3000 
    201 H201       -3.6364  -25.8461  -48.1763 H         1 UNK         0.0600 
    202 H202       -2.0806  -24.8809  -49.7522 H         1 UNK         0.0600 
    203 H203       -1.2877  -24.9094  -48.1902 H         1 UNK         0.0600 
    204 H204       -1.9320  -23.3907  -48.8161 H         1 UNK         0.0600 
    205 H205       -4.9367  -22.8636  -47.2406 H         1 UNK         0.3000 
    206 H206       -6.5865  -21.5531  -47.8508 H         1 UNK         0.0600 
    207 H207       -7.9616  -23.5695  -47.9504 H         1 UNK         0.0600 
    208 H208       -8.4717  -22.4644  -49.2154 H         1 UNK         0.0600 
    209 H209       -7.5046  -23.8755  -49.6194 H         1 UNK         0.0600 
    210 H210       -4.3898  -20.7444  -48.7886 H         1 UNK         0.3000 
    211 H211       -3.2860  -19.4268  -50.1889 H         1 UNK         0.0600 
    212 H212       -5.1328  -17.9371  -49.5958 H         1 UNK         0.0600 
    213 H213       -4.6708  -17.6202  -51.2547 H         1 UNK         0.0600 
    214 H214       -6.1336  -18.5436  -50.9090 H         1 UNK         0.0600 
    215 H215       -5.5512  -19.1860  -52.7765 H         1 UNK         0.3000 
    216 H216       -3.6822  -20.0267  -54.7278 H         1 UNK         0.0600 
    217 H217       -6.7043  -19.5753  -54.9567 H         1 UNK         0.0600 
    218 H218       -5.5799  -19.6760  -56.3082 H         1 UNK         0.0600 
    219 H219       -5.4543  -18.3474  -55.1689 H         1 UNK         0.0600 
    220 H220       -6.0378  -21.9012  -52.9388 H         1 UNK         0.3000 
    221 H221       -6.2558  -24.1206  -54.7453 H         1 UNK         0.0600 
    222 H222       -6.7460  -23.9460  -51.7408 H         1 UNK         0.0600 
    223 H223       -7.9446  -23.6504  -52.9961 H         1 UNK         0.0600 
    224 H224       -7.2701  -25.2603  -52.7816 H         1 UNK         0.0600 
    225 H225       -3.5934  -23.0809  -52.8989 H         1 UNK         0.3000 
    226 H226       -2.2243  -25.5915  -52.5247 H         1 UNK         0.0600 
    227 H227       -1.7240  -23.3351  -51.3677 H         1 UNK         0.0600 
    228 H228       -0.3175  -24.1412  -52.0500 H         1 UNK         0.0600 
    229 H229       -1.0511  -22.7802  -52.8882 H         1 UNK         0.0600 
    230 H230       -3.1817  -24.0380  -55.3341 H         1 UNK         0.3000 
    231 H231       -2.7390  -24.0779  -57.4950 H         1 UNK         0.0600 
    232 H232       -0.4002  -26.0121  -57.0613 H         1 UNK         0.0600 
    233 H233       -1.1764  -25.6067  -58.5808 H         1 UNK         0.0600 
    234 H234       -2.0688  -26.4994  -57.3587 H         1 UNK         0.0600 
    235 H235       -2.2353  -21.9884  -56.1721 H         1 UNK         0.3000 
    236 H236        0.4064  -20.8802  -56.9887 H         1 UNK         0.0600 
    237 H237       -1.0663  -20.5286  -54.3074 H         1 UNK         0.0600 
    238 H238        0.4775  -21.3409  -54.5403 H         1 UNK         0.0600 
    239 H239        0.3517  -19.6081  -54.8001 H         1 UNK         0.0600 
    240 H240        0.3207  -18.5374  -57.1969 H         1 UNK         0.3000 
    241 H241       -0.4328  -16.6214  -57.9469 H         1 UNK         0.0600 
    242 H242       -2.0194  -18.4672  -60.9485 H         1 UNK         0.3800 
    243 H243       -1.0091  -19.1553  -59.7045 H         1 UNK         0.3800 
    244 H244       -3.1208  -17.2280  -56.6239 H         1 UNK         0.0800 
    245 H245       -2.5914  -15.6659  -57.1757 H         1 UNK         0.0800 
    246 H246       -2.1587  -18.3559  -54.2871 H         1 UNK         0.0800 
    247 H247       -3.4258  -17.1508  -54.1936 H         1 UNK         0.0800 
@<TRIPOS>BOND
     1    1    2 1    
     2    1  127 1    
     3    1  128 1    
     4    1  129 1    
     5    2    3 2    
     6    2    4 am   BACKBONE|DICT|INTERRES
     7    4    5 1    
     8    4  130 1    
     9    5    6 1    
    10    5   65 1    
    11    5  131 1    
    12    6    7 1    
    13    6  132 1    
    14    6  133 1    
    15    7    8 1    
    16    8    9 1    
    17    8  134 1    
    18    8  135 1    
    19    9   10 ar   
    20    9   14 ar   
    21   10   11 ar   
    22   10  136 1    
    23   11   12 ar   
    24   11  126 1    
    25   12   13 ar   
    26   12  137 1    
    27   13   14 ar   
    28   13   15 1    
    29   14  138 1    
    30   15   16 1    
    31   15  139 1    
    32   15  140 1    
    33   16   17 1    
    34   17   18 1    
    35   17  141 1    
    36   17  142 1    
    37   18   19 1    
    38   18   67 1    
    39   18  143 1    
    40   19   20 am   BACKBONE|DICT|INTERRES
    41   19  144 1    
    42   20   21 2    
    43   20   22 1    
    44   22   23 1    
    45   22   24 1    
    46   22  145 1    
    47   23  146 1    
    48   23  147 1    
    49   23  148 1    
    50   24   25 am   BACKBONE|DICT|INTERRES
    51   24  149 1    
    52   25   26 2    
    53   25   27 1    
    54   27   28 1    
    55   27   29 1    
    56   27  150 1    
    57   28  151 1    
    58   28  152 1    
    59   28  153 1    
    60   29   30 am   BACKBONE|DICT|INTERRES
    61   29  154 1    
    62   30   31 2    
    63   30   32 1    
    64   32   33 1    
    65   32   34 1    
    66   32  155 1    
    67   33  156 1    
    68   33  157 1    
    69   33  158 1    
    70   34   35 am   BACKBONE|DICT|INTERRES
    71   34  159 1    
    72   35   36 2    
    73   35   37 1    
    74   37   38 1    
    75   37   39 1    
    76   37  160 1    
    77   38  161 1    
    78   38  162 1    
    79   38  163 1    
    80   39   40 am   BACKBONE|DICT|INTERRES
    81   39  164 1    
    82   40   41 2    
    83   40   42 1    
    84   42   43 1    
    85   42   44 1    
    86   42  165 1    
    87   43  166 1    
    88   43  167 1    
    89   43  168 1    
    90   44   45 am   BACKBONE|DICT|INTERRES
    91   44  169 1    
    92   45   46 2    
    93   45   47 1    
    94   47   48 1    
    95   47   49 1    
    96   47  170 1    
    97   48  171 1    
    98   48  172 1    
    99   48  173 1    
   100   49   50 am   BACKBONE|DICT|INTERRES
   101   49  174 1    
   102   50   51 2    
   103   50   52 1    
   104   52   53 1    
   105   52   54 1    
   106   52  175 1    
   107   53  176 1    
   108   53  177 1    
   109   53  178 1    
   110   54   55 am   BACKBONE|DICT|INTERRES
   111   54  179 1    
   112   55   56 2    
   113   55   57 1    
   114   57   58 1    
   115   57   59 1    
   116   57  180 1    
   117   58  181 1    
   118   58  182 1    
   119   58  183 1    
   120   59   60 am   BACKBONE|DICT|INTERRES
   121   59  184 1    
   122   60   61 2    
   123   60   62 1    
   124   62   63 1    
   125   62   64 1    
   126   62  185 1    
   127   63  186 1    
   128   63  187 1    
   129   63  188 1    
   130   64   65 am   BACKBONE|DICT|INTERRES
   131   64  189 1    
   132   65   66 2    
   133   67   68 2    
   134   67   69 am   BACKBONE|DICT|INTERRES
   135   69   70 1    
   136   69  190 1    
   137   70   71 1    
   138   70   72 1    
   139   70  191 1    
   140   71  192 1    
   141   71  193 1    
   142   71  194 1    
   143   72   73 2    
   144   72   74 am   BACKBONE|DICT|INTERRES
   145   74   75 1    
   146   74  195 1    
   147   75   76 1    
   148   75   77 1    
   149   75  196 1    
   150   76  197 1    
   151   76  198 1    
   152   76  199 1    
   153   77   78 2    
   154   77   79 am   BACKBONE|DICT|INTERRES
   155   79   80 1    
   156   79  200 1    
   157   80   81 1    
   158   80   82 1    
   159   80  201 1    
   160   81  202 1    
   161   81  203 1    
   162   81  204 1    
   163   82   83 2    
   164   82   84 am   BACKBONE|DICT|INTERRES
   165   84   85 1    
   166   84  205 1    
   167   85   86 1    
   168   85   87 1    
   169   85  206 1    
   170   86  207 1    
   171   86  208 1    
   172   86  209 1    
   173   87   88 2    
   174   87   89 am   BACKBONE|DICT|INTERRES
   175   89   90 1    
   176   89  210 1    
   177   90   91 1    
   178   90   92 1    
   179   90  211 1    
   180   91  212 1    
   181   91  213 1    
   182   91  214 1    
   183   92   93 2    
   184   92   94 am   BACKBONE|DICT|INTERRES
   185   94   95 1    
   186   94  215 1    
   187   95   96 1    
   188   95   97 1    
   189   95  216 1    
   190   96  217 1    
   191   96  218 1    
   192   96  219 1    
   193   97   98 2    
   194   97   99 am   BACKBONE|DICT|INTERRES
   195   99  100 1    
   196   99  220 1    
   197  100  101 1    
   198  100  102 1    
   199  100  221 1    
   200  101  222 1    
   201  101  223 1    
   202  101  224 1    
   203  102  103 2    
   204  102  104 am   BACKBONE|DICT|INTERRES
   205  104  105 1    
   206  104  225 1    
   207  105  106 1    
   208  105  107 1    
   209  105  226 1    
   210  106  227 1    
   211  106  228 1    
   212  106  229 1    
   213  107  108 2    
   214  107  109 am   BACKBONE|DICT|INTERRES
   215  109  110 1    
   216  109  230 1    
   217  110  111 1    
   218  110  112 1    
   219  110  231 1    
   220  111  232 1    
   221  111  233 1    
   222  111  234 1    
   223  112  113 2    
   224  112  114 am   BACKBONE|DICT|INTERRES
   225  114  115 1    
   226  114  235 1    
   227  115  116 1    
   228  115  117 1    
   229  115  236 1    
   230  116  237 1    
   231  116  238 1    
   232  116  239 1    
   233  117  118 2    
   234  117  119 am   BACKBONE|DICT|INTERRES
   235  119  120 1    
   236  119  240 1    
   237  120  121 1    
   238  120  124 1    
   239  120  241 1    
   240  121  122 am   BACKBONE|DICT|INTERRES
   241  121  123 2    
   242  122  242 1    
   243  122  243 1    
   244  124  125 1    
   245  124  244 1    
   246  124  245 1    
   247  125  126 1    
   248  126  246 1    
   249  126  247 1    
@<TRIPOS>SUBSTRUCTURE
     1 UNK         1 GROUP             0       ****    0 ROOT    
