@<TRIPOS>MOLECULE
3R540
247   249    1
SMALL
USER_CHARGES


@<TRIPOS>ATOM
      1 CA         -4.3163   -7.2913  -46.6294 C.3       0 UNK        -0.1800 
      2 C          -2.9866   -7.9843  -46.8925 C.2       0 UNK         0.5000 
      3 O          -1.9369   -7.3450  -46.8148 O.2       0 UNK        -0.5000 
      4 N          -3.0273   -9.2841  -47.2107 N.am      1 UNK        -0.5000 
      5 CA         -1.8525  -10.1324  -47.4298 C.3       1 UNK         0.1400 
      6 C6         -2.2475  -11.4504  -48.1391 C.3       23 UNK        -0.0398 
      7 S7         -0.8327  -12.2519  -48.9646 S.3       23 UNK        -0.2404 
      8 C8         -0.4914  -13.6354  -47.8347 C.3       23 UNK        -0.0205 
      9 C9         -1.3595  -14.8478  -48.1310 C.ar      23 UNK        -0.0193 
     10 C10        -0.9441  -15.7932  -49.0738 C.ar      23 UNK        -0.1150 
     11 C11        -1.7229  -16.9244  -49.3336 C.ar      23 UNK        -0.0193 
     12 C12        -2.9242  -17.1054  -48.6446 C.ar      23 UNK        -0.1150 
     13 C13        -3.3487  -16.1698  -47.6967 C.ar      23 UNK        -0.0193 
     14 C14        -2.5633  -15.0411  -47.4465 C.ar      23 UNK        -0.1150 
     15 C15        -4.6504  -16.3898  -46.9366 C.3       23 UNK        -0.0205 
     16 S16        -4.4158  -16.6350  -45.1403 S.3       23 UNK        -0.2404 
     17 C17        -2.9480  -17.7174  -45.0339 C.3       23 UNK        -0.0398 
     18 CA         -3.1204  -19.1037  -45.7012 C.3       11 UNK         0.1400 
     19 N          -1.8316  -19.6871  -46.0821 N.am      11 UNK        -0.5000 
     20 C          -1.6783  -20.7782  -46.8439 C.2       10 UNK         0.5000 
     21 O          -2.6149  -21.3856  -47.3585 O.2       10 UNK        -0.5000 
     22 CA         -0.2475  -21.3145  -47.0267 C.3       10 UNK         0.1400 
     23 CB          0.4753  -20.5675  -48.1569 C.3       10 UNK        -0.1800 
     24 N           0.5380  -21.2442  -45.7941 N.am      10 UNK        -0.5000 
     25 C           0.2437  -21.9145  -44.6700 C.2       9 UNK         0.5000 
     26 O          -0.6847  -22.7173  -44.5788 O.2       9 UNK        -0.5000 
     27 CA          1.0824  -21.5827  -43.4215 C.3       9 UNK         0.1400 
     28 CB          2.4250  -22.3276  -43.4390 C.3       9 UNK        -0.1800 
     29 N           1.3135  -20.1446  -43.2758 N.am      9 UNK        -0.5000 
     30 C           0.3440  -19.2377  -43.0844 C.2       8 UNK         0.5000 
     31 O          -0.8447  -19.5231  -42.9440 O.2       8 UNK        -0.5000 
     32 CA          0.7689  -17.7607  -43.1123 C.3       8 UNK         0.1400 
     33 CB          1.3201  -17.3316  -41.7443 C.3       8 UNK        -0.1800 
     34 N           1.7600  -17.5097  -44.1614 N.am      8 UNK        -0.5000 
     35 C           1.4775  -17.5312  -45.4735 C.2       7 UNK         0.5000 
     36 O           0.3453  -17.7100  -45.9173 O.2       7 UNK        -0.5000 
     37 CA          2.6542  -17.3826  -46.4561 C.3       7 UNK         0.1400 
     38 CB          2.9167  -15.9047  -46.7665 C.3       7 UNK        -0.1800 
     39 N           3.8809  -18.0061  -45.9605 N.am      7 UNK        -0.5000 
     40 C           4.0425  -19.3307  -45.8266 C.2       6 UNK         0.5000 
     41 O           3.1959  -20.1544  -46.1701 O.2       6 UNK        -0.5000 
     42 CA          5.3344  -19.8180  -45.1416 C.3       6 UNK         0.1400 
     43 CB          6.4266  -20.0928  -46.1849 C.3       6 UNK        -0.1800 
     44 N           5.8476  -18.8795  -44.1421 N.am      6 UNK        -0.5000 
     45 C           5.1789  -18.4647  -43.0576 C.2       5 UNK         0.5000 
     46 O           4.0654  -18.8882  -42.7469 O.2       5 UNK        -0.5000 
     47 CA          5.8341  -17.3583  -42.2078 C.3       5 UNK         0.1400 
     48 CB          7.3765  -17.4274  -42.2097 C.3       5 UNK        -0.1800 
     49 N           5.3874  -16.0089  -42.5797 N.am      5 UNK        -0.5000 
     50 C           5.4447  -15.4195  -43.7831 C.2       4 UNK         0.5000 
     51 O           5.7754  -15.9986  -44.8196 O.2       4 UNK        -0.5000 
     52 CA          5.0535  -13.9287  -43.8289 C.3       4 UNK         0.1400 
     53 CB          5.4922  -13.2424  -45.1352 C.3       4 UNK        -0.1800 
     54 N           3.6158  -13.7319  -43.6669 N.am      4 UNK        -0.5000 
     55 C           2.9348  -13.7882  -42.5184 C.2       3 UNK         0.5000 
     56 O           3.4578  -14.0641  -41.4368 O.2       3 UNK        -0.5000 
     57 CA          1.4289  -13.4503  -42.6035 C.3       3 UNK         0.1400 
     58 CB          0.7339  -13.4751  -41.2296 C.3       3 UNK        -0.1800 
     59 N           1.2015  -12.1369  -43.2126 N.am      3 UNK        -0.5000 
     60 C           1.2452  -11.8644  -44.5219 C.2       2 UNK         0.5000 
     61 O           1.4882  -12.7102  -45.3853 O.2       2 UNK        -0.5000 
     62 CA          1.0668  -10.3898  -44.9210 C.3       2 UNK         0.1400 
     63 CB          2.4345   -9.7520  -45.2106 C.3       2 UNK        -0.1800 
     64 N           0.2118  -10.2365  -46.0973 N.am      2 UNK        -0.5000 
     65 C          -1.1185  -10.3867  -46.0933 C.2       1 UNK         0.5000 
     66 O          -1.7687  -10.6987  -45.0922 O.2       1 UNK        -0.5000 
     67 C          -3.9589  -20.0648  -44.8357 C.2       11 UNK         0.5000 
     68 O          -5.1375  -20.2692  -45.1278 O.2       11 UNK        -0.5000 
     69 N          -3.3254  -20.6895  -43.8323 N.am      12 UNK        -0.5000 
     70 CA         -3.9291  -21.7083  -42.9682 C.3       12 UNK         0.1400 
     71 CB         -2.9508  -22.0628  -41.8384 C.3       12 UNK        -0.1800 
     72 C          -4.3640  -22.9734  -43.7355 C.2       12 UNK         0.5000 
     73 O          -5.3955  -23.5604  -43.4079 O.2       12 UNK        -0.5000 
     74 N          -3.5949  -23.3411  -44.7683 N.am      13 UNK        -0.5000 
     75 CA         -3.8947  -24.4257  -45.7046 C.3       13 UNK         0.1400 
     76 CB         -2.5769  -24.8993  -46.3399 C.3       13 UNK        -0.1800 
     77 C          -4.9111  -24.0369  -46.8005 C.2       13 UNK         0.5000 
     78 O          -5.2425  -24.8861  -47.6292 O.2       13 UNK        -0.5000 
     79 N          -5.3571  -22.7709  -46.8264 N.am      14 UNK        -0.5000 
     80 CA         -6.2568  -22.1643  -47.8141 C.3       14 UNK         0.1400 
     81 CB         -7.6774  -22.7526  -47.6869 C.3       14 UNK        -0.1800 
     82 C          -5.6964  -22.2464  -49.2491 C.2       14 UNK         0.5000 
     83 O          -6.4166  -22.6178  -50.1765 O.2       14 UNK        -0.5000 
     84 N          -4.3964  -21.9483  -49.3908 N.am      15 UNK        -0.5000 
     85 CA         -3.5872  -22.0616  -50.6084 C.3       15 UNK         0.1400 
     86 CB         -4.0506  -21.0446  -51.6685 C.3       15 UNK        -0.1800 
     87 C          -3.5240  -23.5125  -51.1307 C.2       15 UNK         0.5000 
     88 O          -3.6146  -23.7453  -52.3391 O.2       15 UNK        -0.5000 
     89 N          -3.4010  -24.4547  -50.1822 N.am      16 UNK        -0.5000 
     90 CA         -3.4681  -25.9107  -50.3430 C.3       16 UNK         0.1400 
     91 CB         -2.2675  -26.4308  -51.1591 C.3       16 UNK        -0.1800 
     92 C          -4.8283  -26.3470  -50.9200 C.2       16 UNK         0.5000 
     93 O          -4.8753  -27.0460  -51.9311 O.2       16 UNK        -0.5000 
     94 N          -5.9142  -25.8613  -50.2997 N.am      17 UNK        -0.5000 
     95 CA         -7.3078  -25.9736  -50.7536 C.3       17 UNK         0.1400 
     96 CB         -7.8197  -27.4171  -50.5722 C.3       17 UNK        -0.1800 
     97 C          -7.4989  -25.4378  -52.1920 C.2       17 UNK         0.5000 
     98 O          -8.1514  -26.0763  -53.0195 O.2       17 UNK        -0.5000 
     99 N          -6.8681  -24.2860  -52.4577 N.am      18 UNK        -0.5000 
    100 CA        -6.7511  -23.5710  -53.7311 C.3       18 UNK         0.1400 
    101 CB        -8.1357  -23.1083  -54.2281 C.3       18 UNK        -0.1800 
    102 C         -5.9507  -24.3017  -54.8336 C.2       18 UNK         0.5000 
    103 O         -5.9108  -23.8013  -55.9587 O.2       18 UNK        -0.5000 
    104 N         -5.3109  -25.4409  -54.5262 N.am      19 UNK        -0.5000 
    105 CA        -4.5378  -26.2221  -55.4952 C.3       19 UNK         0.1400 
    106 CB        -4.3729  -27.6658  -54.9985 C.3       19 UNK        -0.1800 
    107 C         -3.1637  -25.6035  -55.8057 C.2       19 UNK         0.5000 
    108 O         -2.6991  -25.7205  -56.9407 O.2       19 UNK        -0.5000 
    109 N         -2.5374  -24.9598  -54.8098 N.am      20 UNK        -0.5000 
    110 CA        -1.2592  -24.2630  -54.9748 C.3       20 UNK         0.1400 
    111 CB        -0.4769  -24.2826  -53.6522 C.3       20 UNK        -0.1800 
    112 C         -1.4600  -22.8185  -55.4595 C.2       20 UNK         0.5000 
    113 O         -0.5724  -22.2742  -56.1181 O.2       20 UNK        -0.5000 
    114 N         -2.6106  -22.2203  -55.1083 N.am      21 UNK        -0.5000 
    115 CA        -3.0710  -20.8778  -55.4936 C.3       21 UNK         0.1400 
    116 CB        -3.4518  -20.8615  -56.9878 C.3       21 UNK        -0.1800 
    117 C         -2.0870  -19.7447  -55.1173 C.2       21 UNK         0.5000 
    118 O         -2.0302  -18.7226  -55.8029 O.2       21 UNK        -0.5000 
    119 N         -1.3195  -19.9670  -54.0410 N.am      22 UNK        -0.5000 
    120 CA        -0.2273  -19.1135  -53.5416 C.3       22 UNK         0.1400 
    121 C          1.0348  -19.0811  -54.4594 C.2       22 UNK         0.5000 
    122 N          1.1853  -19.9830  -55.4234 N.am      22 UNK        -0.7600 
    123 O          1.9149  -18.2442  -54.2771 O.2       22 UNK        -0.5000 
    124 C124       -0.6863  -17.6902  -53.1097 C.3       23 UNK        -0.0398 
    125 S125       -2.0981  -17.7027  -51.9518 S.3       23 UNK        -0.2404 
    126 C126       -1.2704  -17.9571  -50.3515 C.3       23 UNK        -0.0205 
    127 H127       -5.1593   -7.9732  -46.7451 H         1 UNK         0.0600 
    128 H128       -4.4518   -6.4625  -47.3244 H         1 UNK         0.0600 
    129 H129       -4.3376   -6.8938  -45.6146 H         1 UNK         0.0600 
    130 H130       -3.9193   -9.7575  -47.2259 H         1 UNK         0.3000 
    131 H131       -1.1836   -9.5784  -48.0927 H         1 UNK         0.0600 
    132 H132       -2.7437  -12.1371  -47.4530 H         1 UNK         0.0800 
    133 H133       -2.9773  -11.2416  -48.9228 H         1 UNK         0.0800 
    134 H134        0.5606  -13.9005  -47.9322 H         1 UNK         0.0800 
    135 H135       -0.6276  -13.3195  -46.8002 H         1 UNK         0.0800 
    136 H136       -0.0133  -15.6480  -49.6037 H         1 UNK         0.1150 
    137 H137       -3.5252  -17.9804  -48.8492 H         1 UNK         0.1150 
    138 H138       -2.8845  -14.3261  -46.7029 H         1 UNK         0.1150 
    139 H139       -5.3004  -15.5274  -47.0900 H         1 UNK         0.0800 
    140 H140       -5.1915  -17.2472  -47.3395 H         1 UNK         0.0800 
    141 H141       -2.6684  -17.8189  -43.9843 H         1 UNK         0.0800 
    142 H142       -2.1222  -17.1773  -45.4952 H         1 UNK         0.0800 
    143 H143       -3.6697  -18.9727  -46.6333 H         1 UNK         0.0600 
    144 H144       -1.0021  -19.2004  -45.7591 H         1 UNK         0.3000 
    145 H145       -0.3202  -22.3661  -47.3109 H         1 UNK         0.0600 
    146 H146        1.4887  -20.9446  -48.2949 H         1 UNK         0.0600 
    147 H147       -0.0492  -20.6973  -49.1038 H         1 UNK         0.0600 
    148 H148        0.5398  -19.4974  -47.9597 H         1 UNK         0.0600 
    149 H149        1.3651  -20.6545  -45.8118 H         1 UNK         0.3000 
    150 H150        0.5218  -21.9174  -42.5462 H         1 UNK         0.0600 
    151 H151        2.2685  -23.4066  -43.4661 H         1 UNK         0.0600 
    152 H152        3.0121  -22.1055  -42.5477 H         1 UNK         0.0600 
    153 H153        3.0245  -22.0640  -44.3096 H         1 UNK         0.0600 
    154 H154        2.2716  -19.8195  -43.3386 H         1 UNK         0.3000 
    155 H155       -0.1129  -17.1534  -43.3278 H         1 UNK         0.0600 
    156 H156        0.5218  -17.2974  -41.0022 H         1 UNK         0.0600 
    157 H157        1.7698  -16.3431  -41.7876 H         1 UNK         0.0600 
    158 H158        2.0772  -18.0198  -41.3693 H         1 UNK         0.0600 
    159 H159        2.7255  -17.4568  -43.8685 H         1 UNK         0.3000 
    160 H160        2.3758  -17.8779  -47.3886 H         1 UNK         0.0600 
    161 H161        3.1346  -15.3372  -45.8637 H         1 UNK         0.0600 
    162 H162        2.0436  -15.4520  -47.2332 H         1 UNK         0.0600 
    163 H163        3.7545  -15.7833  -47.4531 H         1 UNK         0.0600 
    164 H164        4.6212  -17.3856  -45.6447 H         1 UNK         0.3000 
    165 H165        5.1044  -20.7543  -44.6299 H         1 UNK         0.0600 
    166 H166        7.3181  -20.5155  -45.7213 H         1 UNK         0.0600 
    167 H167        6.0807  -20.8072  -46.9333 H         1 UNK         0.0600 
    168 H168        6.7193  -19.1824  -46.7098 H         1 UNK         0.0600 
    169 H169        6.7298  -18.4353  -44.3522 H         1 UNK         0.3000 
    170 H170        5.4998  -17.5240  -41.1826 H         1 UNK         0.0600 
    171 H171        7.7255  -18.4267  -41.9460 H         1 UNK         0.0600 
    172 H172        7.8037  -17.1715  -43.1798 H         1 UNK         0.0600 
    173 H173        7.7953  -16.7379  -41.4767 H         1 UNK         0.0600 
    174 H174        4.9978  -15.4561  -41.8233 H         1 UNK         0.3000 
    175 H175        5.5710  -13.4295  -43.0068 H         1 UNK         0.0600 
    176 H176        4.9873  -13.6632  -46.0054 H         1 UNK         0.0600 
    177 H177        5.2761  -12.1740  -45.1098 H         1 UNK         0.0600 
    178 H178        6.5658  -13.3523  -45.2931 H         1 UNK         0.0600 
    179 H179        3.0922  -13.4936  -44.5034 H         1 UNK         0.3000 
    180 H180        0.9621  -14.2160  -43.2273 H         1 UNK         0.0600 
    181 H181        1.1454  -12.7212  -40.5573 H         1 UNK         0.0600 
    182 H182        0.8470  -14.4432  -40.7418 H         1 UNK         0.0600 
    183 H183       -0.3357  -13.2884  -41.3272 H         1 UNK         0.0600 
    184 H184        1.0415  -11.3771  -42.5667 H         1 UNK         0.3000 
    185 H185        0.6066   -9.8500  -44.0904 H         1 UNK         0.0600 
    186 H186        3.0932   -9.8286  -44.3444 H         1 UNK         0.0600 
    187 H187        2.9371  -10.2389  -46.0475 H         1 UNK         0.0600 
    188 H188        2.3342   -8.6929  -45.4487 H         1 UNK         0.0600 
    189 H189        0.6807  -10.0233  -46.9656 H         1 UNK         0.3000 
    190 H190       -2.3607  -20.4367  -43.6318 H         1 UNK         0.3000 
    191 H191       -4.8234  -21.2720  -42.5188 H         1 UNK         0.0600 
    192 H192       -2.0275  -22.4944  -42.2251 H         1 UNK         0.0600 
    193 H193       -2.6875  -21.1812  -41.2537 H         1 UNK         0.0600 
    194 H194       -3.3912  -22.7887  -41.1539 H         1 UNK         0.0600 
    195 H195       -2.7253  -22.8415  -44.9219 H         1 UNK         0.3000 
    196 H196       -4.3229  -25.2617  -45.1482 H         1 UNK         0.0600 
    197 H197       -1.8573  -25.1976  -45.5772 H         1 UNK         0.0600 
    198 H198       -2.1169  -24.1163  -46.9432 H         1 UNK         0.0600 
    199 H199       -2.7374  -25.7631  -46.9855 H         1 UNK         0.0600 
    200 H200       -5.0137  -22.1336  -46.1175 H         1 UNK         0.3000 
    201 H201       -6.3143  -21.1029  -47.5695 H         1 UNK         0.0600 
    202 H202       -8.3763  -22.2308  -48.3417 H         1 UNK         0.0600 
    203 H203       -8.0529  -22.6544  -46.6684 H         1 UNK         0.0600 
    204 H204       -7.7065  -23.8092  -47.9541 H         1 UNK         0.0600 
    205 H205       -3.8708  -21.6937  -48.5539 H         1 UNK         0.3000 
    206 H206       -2.5673  -21.7975  -50.3251 H         1 UNK         0.0600 
    207 H207       -4.0399  -20.0309  -51.2686 H         1 UNK         0.0600 
    208 H208       -5.0595  -21.2506  -52.0230 H         1 UNK         0.0600 
    209 H209       -3.3897  -21.0578  -52.5318 H         1 UNK         0.0600 
    210 H210       -3.3863  -24.1348  -49.2249 H         1 UNK         0.3000 
    211 H211       -3.4015  -26.3413  -49.3432 H         1 UNK         0.0600 
    212 H212       -1.3234  -26.0789  -50.7437 H         1 UNK         0.0600 
    213 H213       -2.2400  -27.5209  -51.1554 H         1 UNK         0.0600 
    214 H214       -2.3167  -26.1134  -52.1996 H         1 UNK         0.0600 
    215 H215       -5.7677  -25.3198  -49.4516 H         1 UNK         0.3000 
    216 H216       -7.8977  -25.3260  -50.1034 H         1 UNK         0.0600 
    217 H217       -8.8832  -27.4863  -50.8032 H         1 UNK         0.0600 
    218 H218       -7.2966  -28.1175  -51.2241 H         1 UNK         0.0600 
    219 H219       -7.6886  -27.7543  -49.5440 H         1 UNK         0.0600 
    220 H220       -6.4169  -23.8231  -51.6727 H         1 UNK         0.3000 
    221 H221       -6.1743  -22.6744  -53.5057 H         1 UNK         0.0600 
    222 H222       -8.7554  -23.9483  -54.5426 H         1 UNK         0.0600 
    223 H223       -8.6727  -22.5665  -53.4494 H         1 UNK         0.0600 
    224 H224       -8.0423  -22.4360  -55.0817 H         1 UNK         0.0600 
    225 H225       -5.3559  -25.8020  -53.5798 H         1 UNK         0.3000 
    226 H226       -5.1037  -26.2600  -56.4286 H         1 UNK         0.0600 
    227 H227       -5.3310  -28.1012  -54.7138 H         1 UNK         0.0600 
    228 H228       -3.9464  -28.2964  -55.7794 H         1 UNK         0.0600 
    229 H229       -3.7058  -27.7234  -54.1381 H         1 UNK         0.0600 
    230 H230       -3.0017  -24.8596  -53.9124 H         1 UNK         0.3000 
    231 H231       -0.6546  -24.7812  -55.7223 H         1 UNK         0.0600 
    232 H232        0.4903  -23.7913  -53.7663 H         1 UNK         0.0600 
    233 H233       -0.2820  -25.3039  -53.3258 H         1 UNK         0.0600 
    234 H234       -1.0094  -23.7687  -52.8528 H         1 UNK         0.0600 
    235 H235       -3.2476  -22.7552  -54.5334 H         1 UNK         0.3000 
    236 H236       -3.9809  -20.6896  -54.9223 H         1 UNK         0.0600 
    237 H237       -4.1607  -21.6564  -57.2206 H         1 UNK         0.0600 
    238 H238       -3.9232  -19.9178  -57.2642 H         1 UNK         0.0600 
    239 H239       -2.5786  -20.9928  -57.6276 H         1 UNK         0.0600 
    240 H240       -1.4314  -20.8485  -53.5649 H         1 UNK         0.3000 
    241 H241        0.1210  -19.6133  -52.6373 H         1 UNK         0.0600 
    242 H242        2.0120  -19.9526  -55.9986 H         1 UNK         0.3800 
    243 H243        0.4833  -20.6950  -55.6000 H         1 UNK         0.3800 
    244 H244        0.1353  -17.1399  -52.6485 H         1 UNK         0.0800 
    245 H245       -0.9750  -17.1055  -53.9838 H         1 UNK         0.0800 
    246 H246       -1.5113  -18.9577  -49.9904 H         1 UNK         0.0800 
    247 H247       -0.1856  -17.9267  -50.4611 H         1 UNK         0.0800 
@<TRIPOS>BOND
     1    1    2 1    
     2    1  127 1    
     3    1  128 1    
     4    1  129 1    
     5    2    3 2    
     6    2    4 am   BACKBONE|DICT|INTERRES
     7    4    5 1    
     8    4  130 1    
     9    5    6 1    
    10    5   65 1    
    11    5  131 1    
    12    6    7 1    
    13    6  132 1    
    14    6  133 1    
    15    7    8 1    
    16    8    9 1    
    17    8  134 1    
    18    8  135 1    
    19    9   10 ar   
    20    9   14 ar   
    21   10   11 ar   
    22   10  136 1    
    23   11   12 ar   
    24   11  126 1    
    25   12   13 ar   
    26   12  137 1    
    27   13   14 ar   
    28   13   15 1    
    29   14  138 1    
    30   15   16 1    
    31   15  139 1    
    32   15  140 1    
    33   16   17 1    
    34   17   18 1    
    35   17  141 1    
    36   17  142 1    
    37   18   19 1    
    38   18   67 1    
    39   18  143 1    
    40   19   20 am   BACKBONE|DICT|INTERRES
    41   19  144 1    
    42   20   21 2    
    43   20   22 1    
    44   22   23 1    
    45   22   24 1    
    46   22  145 1    
    47   23  146 1    
    48   23  147 1    
    49   23  148 1    
    50   24   25 am   BACKBONE|DICT|INTERRES
    51   24  149 1    
    52   25   26 2    
    53   25   27 1    
    54   27   28 1    
    55   27   29 1    
    56   27  150 1    
    57   28  151 1    
    58   28  152 1    
    59   28  153 1    
    60   29   30 am   BACKBONE|DICT|INTERRES
    61   29  154 1    
    62   30   31 2    
    63   30   32 1    
    64   32   33 1    
    65   32   34 1    
    66   32  155 1    
    67   33  156 1    
    68   33  157 1    
    69   33  158 1    
    70   34   35 am   BACKBONE|DICT|INTERRES
    71   34  159 1    
    72   35   36 2    
    73   35   37 1    
    74   37   38 1    
    75   37   39 1    
    76   37  160 1    
    77   38  161 1    
    78   38  162 1    
    79   38  163 1    
    80   39   40 am   BACKBONE|DICT|INTERRES
    81   39  164 1    
    82   40   41 2    
    83   40   42 1    
    84   42   43 1    
    85   42   44 1    
    86   42  165 1    
    87   43  166 1    
    88   43  167 1    
    89   43  168 1    
    90   44   45 am   BACKBONE|DICT|INTERRES
    91   44  169 1    
    92   45   46 2    
    93   45   47 1    
    94   47   48 1    
    95   47   49 1    
    96   47  170 1    
    97   48  171 1    
    98   48  172 1    
    99   48  173 1    
   100   49   50 am   BACKBONE|DICT|INTERRES
   101   49  174 1    
   102   50   51 2    
   103   50   52 1    
   104   52   53 1    
   105   52   54 1    
   106   52  175 1    
   107   53  176 1    
   108   53  177 1    
   109   53  178 1    
   110   54   55 am   BACKBONE|DICT|INTERRES
   111   54  179 1    
   112   55   56 2    
   113   55   57 1    
   114   57   58 1    
   115   57   59 1    
   116   57  180 1    
   117   58  181 1    
   118   58  182 1    
   119   58  183 1    
   120   59   60 am   BACKBONE|DICT|INTERRES
   121   59  184 1    
   122   60   61 2    
   123   60   62 1    
   124   62   63 1    
   125   62   64 1    
   126   62  185 1    
   127   63  186 1    
   128   63  187 1    
   129   63  188 1    
   130   64   65 am   BACKBONE|DICT|INTERRES
   131   64  189 1    
   132   65   66 2    
   133   67   68 2    
   134   67   69 am   BACKBONE|DICT|INTERRES
   135   69   70 1    
   136   69  190 1    
   137   70   71 1    
   138   70   72 1    
   139   70  191 1    
   140   71  192 1    
   141   71  193 1    
   142   71  194 1    
   143   72   73 2    
   144   72   74 am   BACKBONE|DICT|INTERRES
   145   74   75 1    
   146   74  195 1    
   147   75   76 1    
   148   75   77 1    
   149   75  196 1    
   150   76  197 1    
   151   76  198 1    
   152   76  199 1    
   153   77   78 2    
   154   77   79 am   BACKBONE|DICT|INTERRES
   155   79   80 1    
   156   79  200 1    
   157   80   81 1    
   158   80   82 1    
   159   80  201 1    
   160   81  202 1    
   161   81  203 1    
   162   81  204 1    
   163   82   83 2    
   164   82   84 am   BACKBONE|DICT|INTERRES
   165   84   85 1    
   166   84  205 1    
   167   85   86 1    
   168   85   87 1    
   169   85  206 1    
   170   86  207 1    
   171   86  208 1    
   172   86  209 1    
   173   87   88 2    
   174   87   89 am   BACKBONE|DICT|INTERRES
   175   89   90 1    
   176   89  210 1    
   177   90   91 1    
   178   90   92 1    
   179   90  211 1    
   180   91  212 1    
   181   91  213 1    
   182   91  214 1    
   183   92   93 2    
   184   92   94 am   BACKBONE|DICT|INTERRES
   185   94   95 1    
   186   94  215 1    
   187   95   96 1    
   188   95   97 1    
   189   95  216 1    
   190   96  217 1    
   191   96  218 1    
   192   96  219 1    
   193   97   98 2    
   194   97   99 am   BACKBONE|DICT|INTERRES
   195   99  100 1    
   196   99  220 1    
   197  100  101 1    
   198  100  102 1    
   199  100  221 1    
   200  101  222 1    
   201  101  223 1    
   202  101  224 1    
   203  102  103 2    
   204  102  104 am   BACKBONE|DICT|INTERRES
   205  104  105 1    
   206  104  225 1    
   207  105  106 1    
   208  105  107 1    
   209  105  226 1    
   210  106  227 1    
   211  106  228 1    
   212  106  229 1    
   213  107  108 2    
   214  107  109 am   BACKBONE|DICT|INTERRES
   215  109  110 1    
   216  109  230 1    
   217  110  111 1    
   218  110  112 1    
   219  110  231 1    
   220  111  232 1    
   221  111  233 1    
   222  111  234 1    
   223  112  113 2    
   224  112  114 am   BACKBONE|DICT|INTERRES
   225  114  115 1    
   226  114  235 1    
   227  115  116 1    
   228  115  117 1    
   229  115  236 1    
   230  116  237 1    
   231  116  238 1    
   232  116  239 1    
   233  117  118 2    
   234  117  119 am   BACKBONE|DICT|INTERRES
   235  119  120 1    
   236  119  240 1    
   237  120  121 1    
   238  120  124 1    
   239  120  241 1    
   240  121  122 am   BACKBONE|DICT|INTERRES
   241  121  123 2    
   242  122  242 1    
   243  122  243 1    
   244  124  125 1    
   245  124  244 1    
   246  124  245 1    
   247  125  126 1    
   248  126  246 1    
   249  126  247 1    
@<TRIPOS>SUBSTRUCTURE
     1 UNK         1 GROUP             0       ****    0 ROOT    
