@<TRIPOS>MOLECULE
3R540
247   249    1
SMALL
USER_CHARGES


@<TRIPOS>ATOM
      1 CA          3.9067   -9.8122  -48.9596 C.3       0 UNK        -0.1800 
      2 C           3.0582  -10.6056  -47.9780 C.2       0 UNK         0.5000 
      3 O           3.2532  -10.4926  -46.7684 O.2       0 UNK        -0.5000 
      4 N           2.1012  -11.3923  -48.4863 N.am      1 UNK        -0.5000 
      5 CA          1.2229  -12.2909  -47.7188 C.3       1 UNK         0.1400 
      6 C6          0.4231  -13.2377  -48.6431 C.3       23 UNK        -0.0398 
      7 S7          1.5257  -14.3112  -49.6275 S.3       23 UNK        -0.2404 
      8 C8          1.4480  -15.8709  -48.6911 C.3       23 UNK        -0.0205 
      9 C9          0.4498  -16.8538  -49.2906 C.ar      23 UNK        -0.0193 
     10 C10        -0.9215  -16.5798  -49.2848 C.ar      23 UNK        -0.1150 
     11 C11        -1.8381  -17.4998  -49.8013 C.ar      23 UNK        -0.0193 
     12 C12        -1.3720  -18.7045  -50.3356 C.ar      23 UNK        -0.1150 
     13 C13        -0.0035  -18.9918  -50.3502 C.ar      23 UNK        -0.0193 
     14 C14         0.8999  -18.0628  -49.8269 C.ar      23 UNK        -0.1150 
     15 C15         0.5087  -20.3076  -50.9203 C.3       23 UNK        -0.0205 
     16 S16        -0.2062  -21.7685  -50.0988 S.3       23 UNK        -0.2404 
     17 C17         0.0461  -21.3725  -48.3372 C.3       23 UNK        -0.0398 
     18 CA         -0.2082  -22.5702  -47.3947 C.3       11 UNK         0.1400 
     19 N           0.2322  -22.2654  -46.0315 N.am      11 UNK        -0.5000 
     20 C           0.2827  -23.1448  -45.0225 C.2       10 UNK         0.5000 
     21 O          -0.0144  -24.3326  -45.1362 O.2       10 UNK        -0.5000 
     22 CA          0.6760  -22.5944  -43.6413 C.3       10 UNK         0.1400 
     23 CB          2.1922  -22.3675  -43.5526 C.3       10 UNK        -0.1800 
     24 N          -0.0354  -21.3583  -43.3141 N.am      10 UNK        -0.5000 
     25 C          -1.3651  -21.2706  -43.1618 C.2       9 UNK         0.5000 
     26 O          -2.1253  -22.2368  -43.2266 O.2       9 UNK        -0.5000 
     27 CA         -1.9505  -19.8644  -42.9388 C.3       9 UNK         0.1400 
     28 CB         -1.8024  -19.4385  -41.4707 C.3       9 UNK        -0.1800 
     29 N          -1.3496  -18.8514  -43.8073 N.am      9 UNK        -0.5000 
     30 C          -1.4190  -18.8526  -45.1462 C.2       8 UNK         0.5000 
     31 O          -2.0220  -19.7015  -45.8003 O.2       8 UNK        -0.5000 
     32 CA         -0.6336  -17.7540  -45.8823 C.3       8 UNK         0.1400 
     33 CB         -1.3753  -16.4089  -45.8284 C.3       8 UNK        -0.1800 
     34 N           0.7236  -17.6000  -45.3590 N.am      8 UNK        -0.5000 
     35 C           1.6603  -18.5591  -45.4040 C.2       7 UNK         0.5000 
     36 O           1.4997  -19.6529  -45.9448 O.2       7 UNK        -0.5000 
     37 CA          2.9773  -18.2690  -44.6674 C.3       7 UNK         0.1400 
     38 CB          3.9331  -17.4546  -45.5528 C.3       7 UNK        -0.1800 
     39 N           2.7431  -17.5725  -43.4014 N.am      7 UNK        -0.5000 
     40 C           2.1750  -18.1422  -42.3272 C.2       6 UNK         0.5000 
     41 O           1.8342  -19.3237  -42.2824 O.2       6 UNK        -0.5000 
     42 CA          1.8989  -17.2310  -41.1168 C.3       6 UNK         0.1400 
     43 CB          3.1459  -17.1190  -40.2275 C.3       6 UNK        -0.1800 
     44 N           1.4610  -15.8915  -41.5097 N.am      6 UNK        -0.5000 
     45 C           0.3120  -15.6226  -42.1464 C.2       5 UNK         0.5000 
     46 O          -0.5352  -16.4749  -42.4077 O.2       5 UNK        -0.5000 
     47 CA          0.0971  -14.1707  -42.6134 C.3       5 UNK         0.1400 
     48 CB         -0.6954  -13.3737  -41.5679 C.3       5 UNK        -0.1800 
     49 N           1.3498  -13.4712  -42.9024 N.am      5 UNK        -0.5000 
     50 C           2.2071  -13.7967  -43.8775 C.2       4 UNK         0.5000 
     51 O           2.0282  -14.7444  -44.6457 O.2       4 UNK        -0.5000 
     52 CA          3.4736  -12.9225  -43.9858 C.3       4 UNK         0.1400 
     53 CB          4.4003  -13.3514  -45.1376 C.3       4 UNK        -0.1800 
     54 N           3.1448  -11.5046  -44.1379 N.am      4 UNK        -0.5000 
     55 C           2.7836  -10.6716  -43.1517 C.2       3 UNK         0.5000 
     56 O           2.6867  -11.0157  -41.9729 O.2       3 UNK        -0.5000 
     57 CA          2.4264   -9.2340  -43.5590 C.3       3 UNK         0.1400 
     58 CB          3.6901   -8.4303  -43.9047 C.3       3 UNK        -0.1800 
     59 N           1.5250   -9.2458  -44.7090 N.am      3 UNK        -0.5000 
     60 C           0.1873   -9.2024  -44.6311 C.2       2 UNK         0.5000 
     61 O          -0.4338   -9.0453  -43.5794 O.2       2 UNK        -0.5000 
     62 CA         -0.5938   -9.3781  -45.9501 C.3       2 UNK         0.1400 
     63 CB         -0.8518   -8.0153  -46.6104 C.3       2 UNK        -0.1800 
     64 N           0.0975  -10.2487  -46.9024 N.am      2 UNK        -0.5000 
     65 C           0.2820  -11.5655  -46.7304 C.2       1 UNK         0.5000 
     66 O          -0.2368  -12.2060  -45.8164 O.2       1 UNK        -0.5000 
     67 C          -1.6784  -23.0453  -47.4324 C.2       11 UNK         0.5000 
     68 O          -1.9746  -24.0575  -48.0705 O.2       11 UNK        -0.5000 
     69 N          -2.5614  -22.3476  -46.7040 N.am      12 UNK        -0.5000 
     70 CA         -3.9793  -22.6837  -46.5648 C.3       12 UNK         0.1400 
     71 CB         -4.6989  -21.5644  -45.7982 C.3       12 UNK        -0.1800 
     72 C          -4.2326  -24.0483  -45.8946 C.2       12 UNK         0.5000 
     73 O          -5.2499  -24.6765  -46.1843 O.2       12 UNK        -0.5000 
     74 N          -3.3114  -24.4878  -45.0287 N.am      13 UNK        -0.5000 
     75 CA         -3.3341  -25.8090  -44.4094 C.3       13 UNK         0.1400 
     76 CB         -2.5913  -25.7539  -43.0647 C.3       13 UNK        -0.1800 
     77 C          -2.7281  -26.8838  -45.3304 C.2       13 UNK         0.5000 
     78 O          -3.3351  -27.9404  -45.5083 O.2       13 UNK        -0.5000 
     79 N          -1.5315  -26.6123  -45.8692 N.am      14 UNK        -0.5000 
     80 CA         -0.7215  -27.5768  -46.6125 C.3       14 UNK         0.1400 
     81 CB          0.7412  -27.1043  -46.6335 C.3       14 UNK        -0.1800 
     82 C          -1.2225  -27.8380  -48.0423 C.2       14 UNK         0.5000 
     83 O          -1.3529  -28.9993  -48.4324 O.2       14 UNK        -0.5000 
     84 N          -1.4617  -26.7640  -48.8035 N.am      15 UNK        -0.5000 
     85 CA         -1.8612  -26.8214  -50.2101 C.3       15 UNK         0.1400 
     86 CB         -1.0728  -25.7691  -51.0036 C.3       15 UNK        -0.1800 
     87 C          -3.3704  -26.5989  -50.3724 C.2       15 UNK         0.5000 
     88 O          -3.9922  -27.2625  -51.2039 O.2       15 UNK        -0.5000 
     89 N          -3.9316  -25.6824  -49.5695 N.am      16 UNK        -0.5000 
     90 CA         -5.3481  -25.3134  -49.5251 C.3       16 UNK         0.1400 
     91 CB         -6.1713  -26.4571  -48.8878 C.3       16 UNK        -0.1800 
     92 C          -5.8616  -24.8573  -50.9076 C.2       16 UNK         0.5000 
     93 O          -5.3212  -23.9003  -51.4654 O.2       16 UNK        -0.5000 
     94 N          -6.8628  -25.5646  -51.4498 N.am      17 UNK        -0.5000 
     95 CA         -7.4978  -25.3197  -52.7467 C.3       17 UNK         0.1400 
     96 CB         -8.6222  -26.3465  -52.9486 C.3       17 UNK        -0.1800 
     97 C          -6.5344  -25.3399  -53.9502 C.2       17 UNK         0.5000 
     98 O          -6.8132  -24.6794  -54.9512 O.2       17 UNK        -0.5000 
     99 N          -5.4136  -26.0670  -53.8325 N.am      18 UNK        -0.5000 
    100 CA        -4.3839  -26.1728  -54.8681 C.3       18 UNK         0.1400 
    101 CB        -3.4559  -27.3521  -54.5375 C.3       18 UNK        -0.1800 
    102 C         -3.5616  -24.8831  -55.0665 C.2       18 UNK         0.5000 
    103 O         -2.9202  -24.7447  -56.1089 O.2       18 UNK        -0.5000 
    104 N         -3.5810  -23.9735  -54.0822 N.am      19 UNK        -0.5000 
    105 CA        -2.8166  -22.7245  -54.0877 C.3       19 UNK         0.1400 
    106 CB        -1.5878  -22.8928  -53.1841 C.3       19 UNK        -0.1800 
    107 C         -3.6763  -21.5151  -53.6770 C.2       19 UNK         0.5000 
    108 O         -3.1276  -20.4687  -53.3283 O.2       19 UNK        -0.5000 
    109 N         -5.0078  -21.6559  -53.7570 N.am      20 UNK        -0.5000 
    110 CA        -6.0025  -20.6584  -53.3437 C.3       20 UNK         0.1400 
    111 CB        -7.3911  -21.3151  -53.3410 C.3       20 UNK        -0.1800 
    112 C         -6.0084  -19.3531  -54.1683 C.2       20 UNK         0.5000 
    113 O         -6.6729  -18.3943  -53.7731 O.2       20 UNK        -0.5000 
    114 N         -5.2654  -19.3236  -55.2832 N.am      21 UNK        -0.5000 
    115 CA        -4.9658  -18.1160  -56.0527 C.3       21 UNK         0.1400 
    116 CB        -4.3250  -18.5206  -57.3891 C.3       21 UNK        -0.1800 
    117 C         -4.0527  -17.1323  -55.2900 C.2       21 UNK         0.5000 
    118 O         -4.1483  -15.9268  -55.5232 O.2       21 UNK        -0.5000 
    119 N         -3.2036  -17.6584  -54.3923 N.am      22 UNK        -0.5000 
    120 CA        -2.3216  -16.9070  -53.4781 C.3       22 UNK         0.1400 
    121 C         -1.2312  -16.0374  -54.1783 C.2       22 UNK         0.5000 
    122 N         -0.8404  -16.3449  -55.4095 N.am      22 UNK        -0.7600 
    123 O         -0.7103  -15.0877  -53.6000 O.2       22 UNK        -0.5000 
    124 C124       -3.1191  -16.1316  -52.3898 C.3       23 UNK        -0.0398 
    125 S125       -4.1483  -17.2543  -51.3775 S.3       23 UNK        -0.2404 
    126 C126       -3.3300  -17.1923  -49.7492 C.3       23 UNK        -0.0205 
    127 H127        3.6144  -10.0005  -49.9929 H         1 UNK         0.0600 
    128 H128        4.9568  -10.0817  -48.8477 H         1 UNK         0.0600 
    129 H129        3.8049   -8.7447  -48.7648 H         1 UNK         0.0600 
    130 H130        1.9947  -11.4450  -49.4896 H         1 UNK         0.3000 
    131 H131        1.8688  -12.9145  -47.0990 H         1 UNK         0.0600 
    132 H132       -0.2566  -13.8564  -48.0570 H         1 UNK         0.0800 
    133 H133       -0.2044  -12.6655  -49.3285 H         1 UNK         0.0800 
    134 H134        1.2046  -15.6806  -47.6453 H         1 UNK         0.0800 
    135 H135        2.4479  -16.3074  -48.6833 H         1 UNK         0.0800 
    136 H136       -1.2818  -15.6534  -48.8655 H         1 UNK         0.1150 
    137 H137       -2.0749  -19.4222  -50.7369 H         1 UNK         0.1150 
    138 H138        1.9576  -18.2856  -49.8292 H         1 UNK         0.1150 
    139 H139        0.2723  -20.3450  -51.9839 H         1 UNK         0.0800 
    140 H140        1.5955  -20.3659  -50.8449 H         1 UNK         0.0800 
    141 H141       -0.5889  -20.5283  -48.0633 H         1 UNK         0.0800 
    142 H142        1.0749  -21.0283  -48.2233 H         1 UNK         0.0800 
    143 H143        0.4067  -23.4032  -47.7424 H         1 UNK         0.0600 
    144 H144        0.5226  -21.3064  -45.8589 H         1 UNK         0.3000 
    145 H145        0.4023  -23.3441  -42.8959 H         1 UNK         0.0600 
    146 H146        2.4856  -22.0598  -42.5488 H         1 UNK         0.0600 
    147 H147        2.7383  -23.2826  -43.7847 H         1 UNK         0.0600 
    148 H148        2.5276  -21.5987  -44.2488 H         1 UNK         0.0600 
    149 H149        0.5316  -20.5256  -43.1887 H         1 UNK         0.3000 
    150 H150       -3.0160  -19.9088  -43.1726 H         1 UNK         0.0600 
    151 H151       -2.2642  -20.1675  -40.8037 H         1 UNK         0.0600 
    152 H152       -2.2857  -18.4784  -41.2885 H         1 UNK         0.0600 
    153 H153       -0.7553  -19.3452  -41.1820 H         1 UNK         0.0600 
    154 H154       -0.8739  -18.0815  -43.3437 H         1 UNK         0.3000 
    155 H155       -0.5494  -18.0600  -46.9257 H         1 UNK         0.0600 
    156 H156       -1.5767  -16.0944  -44.8051 H         1 UNK         0.0600 
    157 H157       -0.8042  -15.6164  -46.3106 H         1 UNK         0.0600 
    158 H158       -2.3350  -16.4784  -46.3416 H         1 UNK         0.0600 
    159 H159        0.9504  -16.7229  -44.9075 H         1 UNK         0.3000 
    160 H160        3.4565  -19.2250  -44.4458 H         1 UNK         0.0600 
    161 H161        4.1858  -18.0085  -46.4576 H         1 UNK         0.0600 
    162 H162        3.4941  -16.5080  -45.8670 H         1 UNK         0.0600 
    163 H163        4.8664  -17.2374  -45.0333 H         1 UNK         0.0600 
    164 H164        2.9376  -16.5820  -43.3865 H         1 UNK         0.3000 
    165 H165        1.1003  -17.6894  -40.5299 H         1 UNK         0.0600 
    166 H166        2.9384  -16.5377  -39.3289 H         1 UNK         0.0600 
    167 H167        3.4837  -18.1047  -39.9045 H         1 UNK         0.0600 
    168 H168        3.9754  -16.6432  -40.7521 H         1 UNK         0.0600 
    169 H169        2.0960  -15.1291  -41.3255 H         1 UNK         0.3000 
    170 H170       -0.4865  -14.2023  -43.5358 H         1 UNK         0.0600 
    171 H171       -1.6484  -13.8570  -41.3486 H         1 UNK         0.0600 
    172 H172       -0.1473  -13.2838  -40.6293 H         1 UNK         0.0600 
    173 H173       -0.9164  -12.3676  -41.9259 H         1 UNK         0.0600 
    174 H174        1.5756  -12.6670  -42.3265 H         1 UNK         0.3000 
    175 H175        4.0303  -13.0532  -43.0557 H         1 UNK         0.0600 
    176 H176        3.9134  -13.2640  -46.1081 H         1 UNK         0.0600 
    177 H177        5.3028  -12.7406  -45.1633 H         1 UNK         0.0600 
    178 H178        4.7158  -14.3887  -45.0206 H         1 UNK         0.0600 
    179 H179        3.1878  -11.1392  -45.0872 H         1 UNK         0.3000 
    180 H180        1.9439   -8.7495  -42.7074 H         1 UNK         0.0600 
    181 H181        4.2265   -8.8569  -44.7530 H         1 UNK         0.0600 
    182 H182        4.3790   -8.4055  -43.0594 H         1 UNK         0.0600 
    183 H183        3.4421   -7.3981  -44.1523 H         1 UNK         0.0600 
    184 H184        1.9552   -9.4337  -45.6072 H         1 UNK         0.3000 
    185 H185       -1.5581   -9.8305  -45.7090 H         1 UNK         0.0600 
    186 H186       -1.4602   -8.1209  -47.5088 H         1 UNK         0.0600 
    187 H187       -1.3873   -7.3490  -45.9328 H         1 UNK         0.0600 
    188 H188        0.0790   -7.5201  -46.8903 H         1 UNK         0.0600 
    189 H189        0.5504   -9.8011  -47.6858 H         1 UNK         0.3000 
    190 H190       -2.2540  -21.4971  -46.2369 H         1 UNK         0.3000 
    191 H191       -4.4023  -22.7279  -47.5697 H         1 UNK         0.0600 
    192 H192       -4.2923  -21.4407  -44.7943 H         1 UNK         0.0600 
    193 H193       -5.7635  -21.7796  -45.6979 H         1 UNK         0.0600 
    194 H194       -4.6085  -20.6099  -46.3169 H         1 UNK         0.0600 
    195 H195       -2.5258  -23.8890  -44.8080 H         1 UNK         0.3000 
    196 H196       -4.3692  -26.0896  -44.2023 H         1 UNK         0.0600 
    197 H197       -2.6032  -26.7267  -42.5719 H         1 UNK         0.0600 
    198 H198       -3.0598  -25.0394  -42.3875 H         1 UNK         0.0600 
    199 H199       -1.5486  -25.4595  -43.1863 H         1 UNK         0.0600 
    200 H200       -1.0847  -25.7234  -45.6538 H         1 UNK         0.3000 
    201 H201       -0.7514  -28.5272  -46.0751 H         1 UNK         0.0600 
    202 H202        1.1367  -27.0041  -45.6225 H         1 UNK         0.0600 
    203 H203        0.8465  -26.1384  -47.1293 H         1 UNK         0.0600 
    204 H204        1.3758  -27.8167  -47.1621 H         1 UNK         0.0600 
    205 H205       -1.4056  -25.8379  -48.3891 H         1 UNK         0.3000 
    206 H206       -1.6242  -27.7997  -50.6335 H         1 UNK         0.0600 
    207 H207       -0.0016  -25.9656  -50.9607 H         1 UNK         0.0600 
    208 H208       -1.3635  -25.7737  -52.0547 H         1 UNK         0.0600 
    209 H209       -1.2417  -24.7638  -50.6177 H         1 UNK         0.0600 
    210 H210       -3.3161  -25.1461  -48.9654 H         1 UNK         0.3000 
    211 H211       -5.4262  -24.4428  -48.8752 H         1 UNK         0.0600 
    212 H212       -6.1571  -27.3658  -49.4905 H         1 UNK         0.0600 
    213 H213       -7.2116  -26.1624  -48.7442 H         1 UNK         0.0600 
    214 H214       -5.7769  -26.7164  -47.9052 H         1 UNK         0.0600 
    215 H215       -7.2153  -26.3529  -50.9267 H         1 UNK         0.3000 
    216 H216       -7.9518  -24.3294  -52.7079 H         1 UNK         0.0600 
    217 H217       -9.1405  -26.1789  -53.8939 H         1 UNK         0.0600 
    218 H218       -9.3675  -26.2782  -52.1559 H         1 UNK         0.0600 
    219 H219       -8.2369  -27.3669  -52.9619 H         1 UNK         0.0600 
    220 H220       -5.2334  -26.5545  -52.9625 H         1 UNK         0.3000 
    221 H221       -4.8812  -26.3908  -55.8156 H         1 UNK         0.0600 
    222 H222       -2.8808  -27.1698  -53.6296 H         1 UNK         0.0600 
    223 H223       -4.0195  -28.2750  -54.3998 H         1 UNK         0.0600 
    224 H224       -2.7427  -27.5245  -55.3445 H         1 UNK         0.0600 
    225 H225       -4.1403  -24.1486  -53.2535 H         1 UNK         0.3000 
    226 H226       -2.4642  -22.5015  -55.0964 H         1 UNK         0.0600 
    227 H227       -0.9733  -23.7354  -53.5007 H         1 UNK         0.0600 
    228 H228       -0.9551  -22.0058  -53.2093 H         1 UNK         0.0600 
    229 H229       -1.8872  -23.0602  -52.1499 H         1 UNK         0.0600 
    230 H230       -5.3720  -22.5394  -54.0836 H         1 UNK         0.3000 
    231 H231       -5.7665  -20.3695  -52.3173 H         1 UNK         0.0600 
    232 H232       -8.1712  -20.5964  -53.0866 H         1 UNK         0.0600 
    233 H233       -7.4372  -22.1094  -52.5976 H         1 UNK         0.0600 
    234 H234       -7.6388  -21.7417  -54.3137 H         1 UNK         0.0600 
    235 H235       -4.7694  -20.1631  -55.5414 H         1 UNK         0.3000 
    236 H236       -5.9060  -17.6021  -56.2640 H         1 UNK         0.0600 
    237 H237       -4.9912  -19.1599  -57.9686 H         1 UNK         0.0600 
    238 H238       -4.1072  -17.6427  -57.9988 H         1 UNK         0.0600 
    239 H239       -3.3876  -19.0582  -57.2405 H         1 UNK         0.0600 
    240 H240       -3.2212  -18.6605  -54.2330 H         1 UNK         0.3000 
    241 H241       -1.7423  -17.6706  -52.9592 H         1 UNK         0.0600 
    242 H242       -0.1316  -15.7872  -55.8593 H         1 UNK         0.3800 
    243 H243       -1.2535  -17.1228  -55.8983 H         1 UNK         0.3800 
    244 H244       -2.4471  -15.5792  -51.7316 H         1 UNK         0.0800 
    245 H245       -3.7665  -15.3840  -52.8493 H         1 UNK         0.0800 
    246 H246       -3.5075  -16.2088  -49.3115 H         1 UNK         0.0800 
    247 H247       -3.8118  -17.9126  -49.0869 H         1 UNK         0.0800 
@<TRIPOS>BOND
     1    1    2 1    
     2    1  127 1    
     3    1  128 1    
     4    1  129 1    
     5    2    3 2    
     6    2    4 am   BACKBONE|DICT|INTERRES
     7    4    5 1    
     8    4  130 1    
     9    5    6 1    
    10    5   65 1    
    11    5  131 1    
    12    6    7 1    
    13    6  132 1    
    14    6  133 1    
    15    7    8 1    
    16    8    9 1    
    17    8  134 1    
    18    8  135 1    
    19    9   10 ar   
    20    9   14 ar   
    21   10   11 ar   
    22   10  136 1    
    23   11   12 ar   
    24   11  126 1    
    25   12   13 ar   
    26   12  137 1    
    27   13   14 ar   
    28   13   15 1    
    29   14  138 1    
    30   15   16 1    
    31   15  139 1    
    32   15  140 1    
    33   16   17 1    
    34   17   18 1    
    35   17  141 1    
    36   17  142 1    
    37   18   19 1    
    38   18   67 1    
    39   18  143 1    
    40   19   20 am   BACKBONE|DICT|INTERRES
    41   19  144 1    
    42   20   21 2    
    43   20   22 1    
    44   22   23 1    
    45   22   24 1    
    46   22  145 1    
    47   23  146 1    
    48   23  147 1    
    49   23  148 1    
    50   24   25 am   BACKBONE|DICT|INTERRES
    51   24  149 1    
    52   25   26 2    
    53   25   27 1    
    54   27   28 1    
    55   27   29 1    
    56   27  150 1    
    57   28  151 1    
    58   28  152 1    
    59   28  153 1    
    60   29   30 am   BACKBONE|DICT|INTERRES
    61   29  154 1    
    62   30   31 2    
    63   30   32 1    
    64   32   33 1    
    65   32   34 1    
    66   32  155 1    
    67   33  156 1    
    68   33  157 1    
    69   33  158 1    
    70   34   35 am   BACKBONE|DICT|INTERRES
    71   34  159 1    
    72   35   36 2    
    73   35   37 1    
    74   37   38 1    
    75   37   39 1    
    76   37  160 1    
    77   38  161 1    
    78   38  162 1    
    79   38  163 1    
    80   39   40 am   BACKBONE|DICT|INTERRES
    81   39  164 1    
    82   40   41 2    
    83   40   42 1    
    84   42   43 1    
    85   42   44 1    
    86   42  165 1    
    87   43  166 1    
    88   43  167 1    
    89   43  168 1    
    90   44   45 am   BACKBONE|DICT|INTERRES
    91   44  169 1    
    92   45   46 2    
    93   45   47 1    
    94   47   48 1    
    95   47   49 1    
    96   47  170 1    
    97   48  171 1    
    98   48  172 1    
    99   48  173 1    
   100   49   50 am   BACKBONE|DICT|INTERRES
   101   49  174 1    
   102   50   51 2    
   103   50   52 1    
   104   52   53 1    
   105   52   54 1    
   106   52  175 1    
   107   53  176 1    
   108   53  177 1    
   109   53  178 1    
   110   54   55 am   BACKBONE|DICT|INTERRES
   111   54  179 1    
   112   55   56 2    
   113   55   57 1    
   114   57   58 1    
   115   57   59 1    
   116   57  180 1    
   117   58  181 1    
   118   58  182 1    
   119   58  183 1    
   120   59   60 am   BACKBONE|DICT|INTERRES
   121   59  184 1    
   122   60   61 2    
   123   60   62 1    
   124   62   63 1    
   125   62   64 1    
   126   62  185 1    
   127   63  186 1    
   128   63  187 1    
   129   63  188 1    
   130   64   65 am   BACKBONE|DICT|INTERRES
   131   64  189 1    
   132   65   66 2    
   133   67   68 2    
   134   67   69 am   BACKBONE|DICT|INTERRES
   135   69   70 1    
   136   69  190 1    
   137   70   71 1    
   138   70   72 1    
   139   70  191 1    
   140   71  192 1    
   141   71  193 1    
   142   71  194 1    
   143   72   73 2    
   144   72   74 am   BACKBONE|DICT|INTERRES
   145   74   75 1    
   146   74  195 1    
   147   75   76 1    
   148   75   77 1    
   149   75  196 1    
   150   76  197 1    
   151   76  198 1    
   152   76  199 1    
   153   77   78 2    
   154   77   79 am   BACKBONE|DICT|INTERRES
   155   79   80 1    
   156   79  200 1    
   157   80   81 1    
   158   80   82 1    
   159   80  201 1    
   160   81  202 1    
   161   81  203 1    
   162   81  204 1    
   163   82   83 2    
   164   82   84 am   BACKBONE|DICT|INTERRES
   165   84   85 1    
   166   84  205 1    
   167   85   86 1    
   168   85   87 1    
   169   85  206 1    
   170   86  207 1    
   171   86  208 1    
   172   86  209 1    
   173   87   88 2    
   174   87   89 am   BACKBONE|DICT|INTERRES
   175   89   90 1    
   176   89  210 1    
   177   90   91 1    
   178   90   92 1    
   179   90  211 1    
   180   91  212 1    
   181   91  213 1    
   182   91  214 1    
   183   92   93 2    
   184   92   94 am   BACKBONE|DICT|INTERRES
   185   94   95 1    
   186   94  215 1    
   187   95   96 1    
   188   95   97 1    
   189   95  216 1    
   190   96  217 1    
   191   96  218 1    
   192   96  219 1    
   193   97   98 2    
   194   97   99 am   BACKBONE|DICT|INTERRES
   195   99  100 1    
   196   99  220 1    
   197  100  101 1    
   198  100  102 1    
   199  100  221 1    
   200  101  222 1    
   201  101  223 1    
   202  101  224 1    
   203  102  103 2    
   204  102  104 am   BACKBONE|DICT|INTERRES
   205  104  105 1    
   206  104  225 1    
   207  105  106 1    
   208  105  107 1    
   209  105  226 1    
   210  106  227 1    
   211  106  228 1    
   212  106  229 1    
   213  107  108 2    
   214  107  109 am   BACKBONE|DICT|INTERRES
   215  109  110 1    
   216  109  230 1    
   217  110  111 1    
   218  110  112 1    
   219  110  231 1    
   220  111  232 1    
   221  111  233 1    
   222  111  234 1    
   223  112  113 2    
   224  112  114 am   BACKBONE|DICT|INTERRES
   225  114  115 1    
   226  114  235 1    
   227  115  116 1    
   228  115  117 1    
   229  115  236 1    
   230  116  237 1    
   231  116  238 1    
   232  116  239 1    
   233  117  118 2    
   234  117  119 am   BACKBONE|DICT|INTERRES
   235  119  120 1    
   236  119  240 1    
   237  120  121 1    
   238  120  124 1    
   239  120  241 1    
   240  121  122 am   BACKBONE|DICT|INTERRES
   241  121  123 2    
   242  122  242 1    
   243  122  243 1    
   244  124  125 1    
   245  124  244 1    
   246  124  245 1    
   247  125  126 1    
   248  126  246 1    
   249  126  247 1    
@<TRIPOS>SUBSTRUCTURE
     1 UNK         1 GROUP             0       ****    0 ROOT    
