@<TRIPOS>MOLECULE
3R540
247   249    1
SMALL
USER_CHARGES


@<TRIPOS>ATOM
      1 CA          4.3059  -10.0384  -50.6134 C.3       0 UNK        -0.1800 
      2 C           4.0203  -11.0877  -49.5487 C.2       0 UNK         0.5000 
      3 O           4.1023  -10.7910  -48.3561 O.2       0 UNK        -0.5000 
      4 N           3.6751  -12.3111  -49.9697 N.am      1 UNK        -0.5000 
      5 CA          3.3452  -13.4522  -49.1075 C.3       1 UNK         0.1400 
      6 C6          3.6616  -14.7945  -49.8199 C.3       23 UNK        -0.0398 
      7 S7          4.0484  -16.1354  -48.6449 S.3       23 UNK        -0.2404 
      8 C8          4.8696  -17.3411  -49.7317 C.3       23 UNK        -0.0205 
      9 C9          3.8809  -18.0231  -50.6646 C.ar      23 UNK        -0.0193 
     10 C10         3.6355  -17.5000  -51.9365 C.ar      23 UNK        -0.1150 
     11 C11         2.7204  -18.1174  -52.7914 C.ar      23 UNK        -0.0193 
     12 C12         2.0703  -19.2830  -52.3760 C.ar      23 UNK        -0.1150 
     13 C13         2.3143  -19.8307  -51.1122 C.ar      23 UNK        -0.0193 
     14 C14         3.2154  -19.1827  -50.2567 C.ar      23 UNK        -0.1150 
     15 C15         1.5706  -21.1043  -50.7083 C.3       23 UNK        -0.0205 
     16 S16         2.4860  -22.2073  -49.5760 S.3       23 UNK        -0.2404 
     17 C17         1.9475  -21.5833  -47.9473 C.3       23 UNK        -0.0398 
     18 CA          0.8962  -22.4986  -47.2747 C.3       11 UNK         0.1400 
     19 N           0.7861  -22.2385  -45.8372 N.am      11 UNK        -0.5000 
     20 C           0.0659  -22.9770  -44.9801 C.2       10 UNK         0.5000 
     21 O          -0.5512  -23.9928  -45.3004 O.2       10 UNK        -0.5000 
     22 CA         -0.0200  -22.4695  -43.5303 C.3       10 UNK         0.1400 
     23 CB          1.2553  -22.8227  -42.7508 C.3       10 UNK        -0.1800 
     24 N          -0.2651  -21.0290  -43.4530 N.am      10 UNK        -0.5000 
     25 C          -1.3666  -20.4197  -43.9158 C.2       9 UNK         0.5000 
     26 O          -2.3162  -21.0148  -44.4240 O.2       9 UNK        -0.5000 
     27 CA         -1.3920  -18.8829  -43.8447 C.3       9 UNK         0.1400 
     28 CB         -1.7110  -18.4112  -42.4189 C.3       9 UNK        -0.1800 
     29 N          -0.1386  -18.2787  -44.2960 N.am      9 UNK        -0.5000 
     30 C           0.3790  -18.4176  -45.5257 C.2       8 UNK         0.5000 
     31 O          -0.1638  -19.0415  -46.4358 O.2       8 UNK        -0.5000 
     32 CA          1.7647  -17.7992  -45.7612 C.3       8 UNK         0.1400 
     33 CB          1.6484  -16.2843  -45.9558 C.3       8 UNK        -0.1800 
     34 N           2.6755  -18.0827  -44.6541 N.am      8 UNK        -0.5000 
     35 C           3.1388  -19.3024  -44.3482 C.2       7 UNK         0.5000 
     36 O           2.8737  -20.3182  -44.9909 O.2       7 UNK        -0.5000 
     37 CA          4.0080  -19.4062  -43.0827 C.3       7 UNK         0.1400 
     38 CB          5.4609  -19.0130  -43.3889 C.3       7 UNK        -0.1800 
     39 N           3.4991  -18.5786  -41.9874 N.am      7 UNK        -0.5000 
     40 C           2.3368  -18.7956  -41.3555 C.2       6 UNK         0.5000 
     41 O           1.5846  -19.7351  -41.6117 O.2       6 UNK        -0.5000 
     42 CA          1.9264  -17.7653  -40.2879 C.3       6 UNK         0.1400 
     43 CB          2.5577  -18.1120  -38.9314 C.3       6 UNK        -0.1800 
     44 N           2.2674  -16.3852  -40.6464 N.am      6 UNK        -0.5000 
     45 C           1.7611  -15.7295  -41.6986 C.2       5 UNK         0.5000 
     46 O           0.9999  -16.2432  -42.5217 O.2       5 UNK        -0.5000 
     47 CA          2.2115  -14.2709  -41.8844 C.3       5 UNK         0.1400 
     48 CB          3.2977  -14.1746  -42.9665 C.3       5 UNK        -0.1800 
     49 N           1.0752  -13.4367  -42.2664 N.am      5 UNK        -0.5000 
     50 C           0.1515  -12.9809  -41.4061 C.2       4 UNK         0.5000 
     51 O           0.2369  -13.1112  -40.1841 O.2       4 UNK        -0.5000 
     52 CA         -1.0827  -12.2706  -42.0023 C.3       4 UNK         0.1400 
     53 CB         -0.8614  -10.7510  -42.0484 C.3       4 UNK        -0.1800 
     54 N          -1.4045  -12.7439  -43.3475 N.am      4 UNK        -0.5000 
     55 C          -1.8430  -13.9754  -43.6392 C.2       3 UNK         0.5000 
     56 O          -2.2334  -14.7685  -42.7832 O.2       3 UNK        -0.5000 
     57 CA         -1.8335  -14.4069  -45.1233 C.3       3 UNK         0.1400 
     58 CB         -3.2403  -14.8180  -45.5870 C.3       3 UNK        -0.1800 
     59 N          -1.2964  -13.4190  -46.0702 N.am      3 UNK        -0.5000 
     60 C          -0.0351  -12.9696  -46.1196 C.2       2 UNK         0.5000 
     61 O           0.8275  -13.2482  -45.2845 O.2       2 UNK        -0.5000 
     62 CA          0.2975  -11.9887  -47.2555 C.3       2 UNK         0.1400 
     63 CB          0.2944  -10.5438  -46.7335 C.3       2 UNK        -0.1800 
     64 N           1.6024  -12.2787  -47.8437 N.am      2 UNK        -0.5000 
     65 C           1.8858  -13.3442  -48.6033 C.2       1 UNK         0.5000 
     66 O           1.0398  -14.1735  -48.9420 O.2       1 UNK        -0.5000 
     67 C          -0.4753  -22.4102  -47.9760 C.2       11 UNK         0.5000 
     68 O          -0.8286  -23.3139  -48.7337 O.2       11 UNK        -0.5000 
     69 N          -1.2393  -21.3494  -47.6792 N.am      12 UNK        -0.5000 
     70 CA         -2.5891  -21.1345  -48.1939 C.3       12 UNK         0.1400 
     71 CB         -3.1053  -19.7551  -47.7589 C.3       12 UNK        -0.1800 
     72 C          -3.5659  -22.2452  -47.7742 C.2       12 UNK         0.5000 
     73 O          -4.2881  -22.7612  -48.6250 O.2       12 UNK        -0.5000 
     74 N          -3.5416  -22.6201  -46.4872 N.am      13 UNK        -0.5000 
     75 CA         -4.3464  -23.7025  -45.9189 C.3       13 UNK         0.1400 
     76 CB         -4.1798  -23.7233  -44.3925 C.3       13 UNK        -0.1800 
     77 C          -4.0201  -25.0806  -46.5221 C.2       13 UNK         0.5000 
     78 O          -4.9413  -25.8527  -46.7914 O.2       13 UNK        -0.5000 
     79 N          -2.7265  -25.3524  -46.7531 N.am      14 UNK        -0.5000 
     80 CA         -2.2433  -26.5492  -47.4453 C.3       14 UNK         0.1400 
     81 CB         -0.7128  -26.6295  -47.3436 C.3       14 UNK        -0.1800 
     82 C          -2.7033  -26.5961  -48.9140 C.2       14 UNK         0.5000 
     83 O          -3.1330  -27.6490  -49.3860 O.2       14 UNK        -0.5000 
     84 N          -2.6786  -25.4401  -49.5891 N.am      15 UNK        -0.5000 
     85 CA         -3.2019  -25.2185  -50.9377 C.3       15 UNK         0.1400 
     86 CB         -2.4383  -24.0469  -51.5724 C.3       15 UNK        -0.1800 
     87 C          -4.7356  -25.0173  -50.9550 C.2       15 UNK         0.5000 
     88 O          -5.2395  -24.0924  -51.5960 O.2       15 UNK        -0.5000 
     89 N          -5.4525  -25.8965  -50.2429 N.am      16 UNK        -0.5000 
     90 CA         -6.9098  -26.0533  -50.1787 C.3       16 UNK         0.1400 
     91 CB         -7.4628  -26.4423  -51.5662 C.3       16 UNK        -0.1800 
     92 C          -7.7001  -24.8742  -49.5709 C.2       16 UNK         0.5000 
     93 O          -8.9313  -24.9258  -49.5882 O.2       16 UNK        -0.5000 
     94 N          -7.0190  -23.8395  -49.0556 N.am      17 UNK        -0.5000 
     95 CA         -7.5381  -22.6005  -48.4562 C.3       17 UNK         0.1400 
     96 CB         -8.4060  -22.8890  -47.2163 C.3       17 UNK        -0.1800 
     97 C          -8.2626  -21.6656  -49.4451 C.2       17 UNK         0.5000 
     98 O          -7.9877  -20.4658  -49.4520 O.2       17 UNK        -0.5000 
     99 N          -9.1714  -22.2193  -50.2556 N.am      18 UNK        -0.5000 
    100 CA        -9.9572  -21.5054  -51.2595 C.3       18 UNK         0.1400 
    101 CB       -11.1448  -22.3820  -51.6855 C.3       18 UNK        -0.1800 
    102 C         -9.1217  -21.0907  -52.4830 C.2       18 UNK         0.5000 
    103 O         -9.3164  -19.9906  -53.0015 O.2       18 UNK        -0.5000 
    104 N         -8.2129  -21.9733  -52.9222 N.am      19 UNK        -0.5000 
    105 CA        -7.2938  -21.7134  -54.0304 C.3       19 UNK         0.1400 
    106 CB        -6.8477  -23.0423  -54.6615 C.3       19 UNK        -0.1800 
    107 C         -6.0895  -20.8827  -53.5599 C.2       19 UNK         0.5000 
    108 O         -5.7661  -19.8684  -54.1783 O.2       19 UNK        -0.5000 
    109 N         -5.4545  -21.3364  -52.4690 N.am      20 UNK        -0.5000 
    110 CA        -4.3407  -20.7158  -51.7422 C.3       20 UNK         0.1400 
    111 CB        -4.7509  -19.3425  -51.1732 C.3       20 UNK        -0.1800 
    112 C         -3.0074  -20.6374  -52.5172 C.2       20 UNK         0.5000 
    113 O         -2.0487  -20.0633  -51.9988 O.2       20 UNK        -0.5000 
    114 N         -2.9619  -21.2071  -53.7314 N.am      21 UNK        -0.5000 
    115 CA        -1.8674  -21.2517  -54.7128 C.3       21 UNK         0.1400 
    116 CB        -0.6444  -22.0076  -54.1623 C.3       21 UNK        -0.1800 
    117 C         -1.4607  -19.8794  -55.2877 C.2       21 UNK         0.5000 
    118 O         -1.3010  -19.7568  -56.5025 O.2       21 UNK        -0.5000 
    119 N         -1.3125  -18.8777  -54.4165 N.am      22 UNK        -0.5000 
    120 CA        -0.9821  -17.4847  -54.7485 C.3       22 UNK         0.1400 
    121 C         -2.1891  -16.6342  -55.2476 C.2       22 UNK         0.5000 
    122 N         -3.4178  -17.1384  -55.2309 N.am      22 UNK        -0.7600 
    123 O         -2.0070  -15.4954  -55.6686 O.2       22 UNK        -0.5000 
    124 C124       -0.2250  -16.8014  -53.5716 C.3       23 UNK        -0.0398 
    125 S125        1.3613  -16.0615  -54.0874 S.3       23 UNK        -0.2404 
    126 C126        2.4423  -17.5279  -54.1663 C.3       23 UNK        -0.0205 
    127 H127        5.3240   -9.6640  -50.5071 H         1 UNK         0.0600 
    128 H128        3.6195   -9.1986  -50.5055 H         1 UNK         0.0600 
    129 H129        4.1951  -10.4413  -51.6204 H         1 UNK         0.0600 
    130 H130        3.5887  -12.4782  -50.9624 H         1 UNK         0.3000 
    131 H131        3.9871  -13.3909  -48.2255 H         1 UNK         0.0600 
    132 H132        4.5399  -14.6705  -50.4550 H         1 UNK         0.0800 
    133 H133        2.8561  -15.1050  -50.4877 H         1 UNK         0.0800 
    134 H134        5.6600  -16.8507  -50.3019 H         1 UNK         0.0800 
    135 H135        5.3652  -18.0898  -49.1118 H         1 UNK         0.0800 
    136 H136        4.1451  -16.6026  -52.2580 H         1 UNK         0.1150 
    137 H137        1.3652  -19.7620  -53.0404 H         1 UNK         0.1150 
    138 H138        3.4116  -19.5751  -49.2703 H         1 UNK         0.1150 
    139 H139        0.6027  -20.8356  -50.2831 H         1 UNK         0.0800 
    140 H140        1.3552  -21.6902  -51.6018 H         1 UNK         0.0800 
    141 H141        1.5885  -20.5556  -48.0245 H         1 UNK         0.0800 
    142 H142        2.8434  -21.5390  -47.3275 H         1 UNK         0.0800 
    143 H143        1.2411  -23.5306  -47.3710 H         1 UNK         0.0600 
    144 H144        1.2963  -21.4355  -45.4824 H         1 UNK         0.3000 
    145 H145       -0.8609  -22.9754  -43.0516 H         1 UNK         0.0600 
    146 H146        1.4536  -23.8945  -42.7901 H         1 UNK         0.0600 
    147 H147        2.1296  -22.3107  -43.1536 H         1 UNK         0.0600 
    148 H148        1.1625  -22.5475  -41.7001 H         1 UNK         0.0600 
    149 H149        0.4524  -20.4700  -42.9998 H         1 UNK         0.3000 
    150 H150       -2.1849  -18.5288  -44.5065 H         1 UNK         0.0600 
    151 H151       -1.7618  -17.3247  -42.3647 H         1 UNK         0.0600 
    152 H152       -0.9580  -18.7431  -41.7044 H         1 UNK         0.0600 
    153 H153       -2.6740  -18.7999  -42.0860 H         1 UNK         0.0600 
    154 H154        0.3608  -17.7083  -43.6187 H         1 UNK         0.3000 
    155 H155        2.1857  -18.2321  -46.6714 H         1 UNK         0.0600 
    156 H156        1.0441  -16.0492  -46.8326 H         1 UNK         0.0600 
    157 H157        2.6237  -15.8203  -46.0960 H         1 UNK         0.0600 
    158 H158        1.1780  -15.8089  -45.0971 H         1 UNK         0.0600 
    159 H159        2.8984  -17.3126  -44.0422 H         1 UNK         0.3000 
    160 H160        3.9972  -20.4481  -42.7556 H         1 UNK         0.0600 
    161 H161        5.8689  -19.6260  -44.1938 H         1 UNK         0.0600 
    162 H162        6.0998  -19.1562  -42.5173 H         1 UNK         0.0600 
    163 H163        5.5418  -17.9699  -43.6973 H         1 UNK         0.0600 
    164 H164        4.0566  -17.7833  -41.7135 H         1 UNK         0.3000 
    165 H165        0.8411  -17.8204  -40.1803 H         1 UNK         0.0600 
    166 H166        2.1990  -17.4450  -38.1473 H         1 UNK         0.0600 
    167 H167        2.3033  -19.1296  -38.6315 H         1 UNK         0.0600 
    168 H168        3.6456  -18.0411  -38.9621 H         1 UNK         0.0600 
    169 H169        2.8934  -15.8999  -40.0199 H         1 UNK         0.3000 
    170 H170        2.6282  -13.8993  -40.9459 H         1 UNK         0.0600 
    171 H171        3.6426  -13.1474  -43.0857 H         1 UNK         0.0600 
    172 H172        4.1658  -14.7817  -42.7070 H         1 UNK         0.0600 
    173 H173        2.9347  -14.5160  -43.9357 H         1 UNK         0.0600 
    174 H174        0.9147  -13.3337  -43.2636 H         1 UNK         0.3000 
    175 H175       -1.9348  -12.4763  -41.3512 H         1 UNK         0.0600 
    176 H176       -0.0279  -10.4853  -42.7001 H         1 UNK         0.0600 
    177 H177       -1.7499  -10.2335  -42.4105 H         1 UNK         0.0600 
    178 H178       -0.6398  -10.3588  -41.0550 H         1 UNK         0.0600 
    179 H179       -1.1046  -12.1612  -44.1142 H         1 UNK         0.3000 
    180 H180       -1.1953  -15.2908  -45.1784 H         1 UNK         0.0600 
    181 H181       -3.2210  -15.2161  -46.6018 H         1 UNK         0.0600 
    182 H182       -3.9311  -13.9744  -45.5677 H         1 UNK         0.0600 
    183 H183       -3.6548  -15.5974  -44.9459 H         1 UNK         0.0600 
    184 H184       -1.9438  -13.1015  -46.7773 H         1 UNK         0.3000 
    185 H185       -0.4582  -12.0769  -48.0388 H         1 UNK         0.0600 
    186 H186        1.0435  -10.3958  -45.9543 H         1 UNK         0.0600 
    187 H187        0.5011   -9.8347  -47.5353 H         1 UNK         0.0600 
    188 H188       -0.6763  -10.2817  -46.3106 H         1 UNK         0.0600 
    189 H189        2.3565  -11.6350  -47.6320 H         1 UNK         0.3000 
    190 H190       -0.8662  -20.6222  -47.0722 H         1 UNK         0.3000 
    191 H191       -2.5207  -21.1421  -49.2823 H         1 UNK         0.0600 
    192 H192       -3.1189  -19.6526  -46.6738 H         1 UNK         0.0600 
    193 H193       -4.1217  -19.5863  -48.1164 H         1 UNK         0.0600 
    194 H194       -2.4804  -18.9577  -48.1615 H         1 UNK         0.0600 
    195 H195       -2.9403  -22.1159  -45.8398 H         1 UNK         0.3000 
    196 H196       -5.3926  -23.4859  -46.1422 H         1 UNK         0.0600 
    197 H197       -4.7793  -24.5161  -43.9436 H         1 UNK         0.0600 
    198 H198       -4.5017  -22.7811  -43.9488 H         1 UNK         0.0600 
    199 H199       -3.1415  -23.8908  -44.1040 H         1 UNK         0.0600 
    200 H200       -2.0221  -24.6861  -46.4505 H         1 UNK         0.3000 
    201 H201       -2.6620  -27.4206  -46.9378 H         1 UNK         0.0600 
    202 H202       -0.3894  -26.6700  -46.3033 H         1 UNK         0.0600 
    203 H203       -0.2300  -25.7703  -47.8092 H         1 UNK         0.0600 
    204 H204       -0.3353  -27.5259  -47.8370 H         1 UNK         0.0600 
    205 H205       -2.2878  -24.6237  -49.1279 H         1 UNK         0.3000 
    206 H206       -2.9986  -26.1044  -51.5423 H         1 UNK         0.0600 
    207 H207       -2.7924  -23.8481  -52.5840 H         1 UNK         0.0600 
    208 H208       -2.5546  -23.1359  -50.9871 H         1 UNK         0.0600 
    209 H209       -1.3716  -24.2617  -51.6371 H         1 UNK         0.0600 
    210 H210       -4.9247  -26.5942  -49.7311 H         1 UNK         0.3000 
    211 H211       -7.0824  -26.8964  -49.5085 H         1 UNK         0.0600 
    212 H212       -7.3790  -25.6228  -52.2806 H         1 UNK         0.0600 
    213 H213       -8.5168  -26.7169  -51.5088 H         1 UNK         0.0600 
    214 H214       -6.9305  -27.3004  -51.9767 H         1 UNK         0.0600 
    215 H215       -6.0069  -23.8649  -49.1284 H         1 UNK         0.3000 
    216 H216       -6.6669  -22.0490  -48.1045 H         1 UNK         0.0600 
    217 H217       -8.6730  -21.9620  -46.7076 H         1 UNK         0.0600 
    218 H218       -7.8736  -23.5123  -46.4980 H         1 UNK         0.0600 
    219 H219       -9.3364  -23.3953  -47.4737 H         1 UNK         0.0600 
    220 H220       -9.3299  -23.2194  -50.1584 H         1 UNK         0.3000 
    221 H221      -10.3529  -20.5963  -50.8016 H         1 UNK         0.0600 
    222 H222      -10.8140  -23.3247  -52.1233 H         1 UNK         0.0600 
    223 H223      -11.7866  -22.6149  -50.8356 H         1 UNK         0.0600 
    224 H224      -11.7608  -21.8722  -52.4276 H         1 UNK         0.0600 
    225 H225       -8.1047  -22.8458  -52.4271 H         1 UNK         0.3000 
    226 H226       -7.8149  -21.1408  -54.8009 H         1 UNK         0.0600 
    227 H227       -7.7004  -23.5895  -55.0636 H         1 UNK         0.0600 
    228 H228       -6.1559  -22.8692  -55.4868 H         1 UNK         0.0600 
    229 H229       -6.3464  -23.6914  -53.9442 H         1 UNK         0.0600 
    230 H230       -5.7295  -22.2436  -52.1022 H         1 UNK         0.3000 
    231 H231       -4.1566  -21.3761  -50.8971 H         1 UNK         0.0600 
    232 H232       -4.9379  -18.6140  -51.9622 H         1 UNK         0.0600 
    233 H233       -5.6537  -19.4220  -50.5680 H         1 UNK         0.0600 
    234 H234       -3.9692  -18.9310  -50.5343 H         1 UNK         0.0600 
    235 H235       -3.8261  -21.6194  -54.0511 H         1 UNK         0.3000 
    236 H236       -2.2523  -21.8318  -55.5531 H         1 UNK         0.0600 
    237 H237       -0.2527  -21.5418  -53.2602 H         1 UNK         0.0600 
    238 H238       -0.8940  -23.0408  -53.9245 H         1 UNK         0.0600 
    239 H239        0.1637  -22.0320  -54.8945 H         1 UNK         0.0600 
    240 H240       -1.4840  -19.0891  -53.4360 H         1 UNK         0.3000 
    241 H241       -0.3107  -17.5293  -55.6080 H         1 UNK         0.0600 
    242 H242       -4.1866  -16.5769  -55.5619 H         1 UNK         0.3800 
    243 H243       -3.5918  -18.0730  -54.8962 H         1 UNK         0.3800 
    244 H244       -0.8241  -16.0159  -53.1073 H         1 UNK         0.0800 
    245 H245       -0.0296  -17.5035  -52.7609 H         1 UNK         0.0800 
    246 H246        3.3868  -17.2427  -54.6318 H         1 UNK         0.0800 
    247 H247        1.9952  -18.2756  -54.8235 H         1 UNK         0.0800 
@<TRIPOS>BOND
     1    1    2 1    
     2    1  127 1    
     3    1  128 1    
     4    1  129 1    
     5    2    3 2    
     6    2    4 am   BACKBONE|DICT|INTERRES
     7    4    5 1    
     8    4  130 1    
     9    5    6 1    
    10    5   65 1    
    11    5  131 1    
    12    6    7 1    
    13    6  132 1    
    14    6  133 1    
    15    7    8 1    
    16    8    9 1    
    17    8  134 1    
    18    8  135 1    
    19    9   10 ar   
    20    9   14 ar   
    21   10   11 ar   
    22   10  136 1    
    23   11   12 ar   
    24   11  126 1    
    25   12   13 ar   
    26   12  137 1    
    27   13   14 ar   
    28   13   15 1    
    29   14  138 1    
    30   15   16 1    
    31   15  139 1    
    32   15  140 1    
    33   16   17 1    
    34   17   18 1    
    35   17  141 1    
    36   17  142 1    
    37   18   19 1    
    38   18   67 1    
    39   18  143 1    
    40   19   20 am   BACKBONE|DICT|INTERRES
    41   19  144 1    
    42   20   21 2    
    43   20   22 1    
    44   22   23 1    
    45   22   24 1    
    46   22  145 1    
    47   23  146 1    
    48   23  147 1    
    49   23  148 1    
    50   24   25 am   BACKBONE|DICT|INTERRES
    51   24  149 1    
    52   25   26 2    
    53   25   27 1    
    54   27   28 1    
    55   27   29 1    
    56   27  150 1    
    57   28  151 1    
    58   28  152 1    
    59   28  153 1    
    60   29   30 am   BACKBONE|DICT|INTERRES
    61   29  154 1    
    62   30   31 2    
    63   30   32 1    
    64   32   33 1    
    65   32   34 1    
    66   32  155 1    
    67   33  156 1    
    68   33  157 1    
    69   33  158 1    
    70   34   35 am   BACKBONE|DICT|INTERRES
    71   34  159 1    
    72   35   36 2    
    73   35   37 1    
    74   37   38 1    
    75   37   39 1    
    76   37  160 1    
    77   38  161 1    
    78   38  162 1    
    79   38  163 1    
    80   39   40 am   BACKBONE|DICT|INTERRES
    81   39  164 1    
    82   40   41 2    
    83   40   42 1    
    84   42   43 1    
    85   42   44 1    
    86   42  165 1    
    87   43  166 1    
    88   43  167 1    
    89   43  168 1    
    90   44   45 am   BACKBONE|DICT|INTERRES
    91   44  169 1    
    92   45   46 2    
    93   45   47 1    
    94   47   48 1    
    95   47   49 1    
    96   47  170 1    
    97   48  171 1    
    98   48  172 1    
    99   48  173 1    
   100   49   50 am   BACKBONE|DICT|INTERRES
   101   49  174 1    
   102   50   51 2    
   103   50   52 1    
   104   52   53 1    
   105   52   54 1    
   106   52  175 1    
   107   53  176 1    
   108   53  177 1    
   109   53  178 1    
   110   54   55 am   BACKBONE|DICT|INTERRES
   111   54  179 1    
   112   55   56 2    
   113   55   57 1    
   114   57   58 1    
   115   57   59 1    
   116   57  180 1    
   117   58  181 1    
   118   58  182 1    
   119   58  183 1    
   120   59   60 am   BACKBONE|DICT|INTERRES
   121   59  184 1    
   122   60   61 2    
   123   60   62 1    
   124   62   63 1    
   125   62   64 1    
   126   62  185 1    
   127   63  186 1    
   128   63  187 1    
   129   63  188 1    
   130   64   65 am   BACKBONE|DICT|INTERRES
   131   64  189 1    
   132   65   66 2    
   133   67   68 2    
   134   67   69 am   BACKBONE|DICT|INTERRES
   135   69   70 1    
   136   69  190 1    
   137   70   71 1    
   138   70   72 1    
   139   70  191 1    
   140   71  192 1    
   141   71  193 1    
   142   71  194 1    
   143   72   73 2    
   144   72   74 am   BACKBONE|DICT|INTERRES
   145   74   75 1    
   146   74  195 1    
   147   75   76 1    
   148   75   77 1    
   149   75  196 1    
   150   76  197 1    
   151   76  198 1    
   152   76  199 1    
   153   77   78 2    
   154   77   79 am   BACKBONE|DICT|INTERRES
   155   79   80 1    
   156   79  200 1    
   157   80   81 1    
   158   80   82 1    
   159   80  201 1    
   160   81  202 1    
   161   81  203 1    
   162   81  204 1    
   163   82   83 2    
   164   82   84 am   BACKBONE|DICT|INTERRES
   165   84   85 1    
   166   84  205 1    
   167   85   86 1    
   168   85   87 1    
   169   85  206 1    
   170   86  207 1    
   171   86  208 1    
   172   86  209 1    
   173   87   88 2    
   174   87   89 am   BACKBONE|DICT|INTERRES
   175   89   90 1    
   176   89  210 1    
   177   90   91 1    
   178   90   92 1    
   179   90  211 1    
   180   91  212 1    
   181   91  213 1    
   182   91  214 1    
   183   92   93 2    
   184   92   94 am   BACKBONE|DICT|INTERRES
   185   94   95 1    
   186   94  215 1    
   187   95   96 1    
   188   95   97 1    
   189   95  216 1    
   190   96  217 1    
   191   96  218 1    
   192   96  219 1    
   193   97   98 2    
   194   97   99 am   BACKBONE|DICT|INTERRES
   195   99  100 1    
   196   99  220 1    
   197  100  101 1    
   198  100  102 1    
   199  100  221 1    
   200  101  222 1    
   201  101  223 1    
   202  101  224 1    
   203  102  103 2    
   204  102  104 am   BACKBONE|DICT|INTERRES
   205  104  105 1    
   206  104  225 1    
   207  105  106 1    
   208  105  107 1    
   209  105  226 1    
   210  106  227 1    
   211  106  228 1    
   212  106  229 1    
   213  107  108 2    
   214  107  109 am   BACKBONE|DICT|INTERRES
   215  109  110 1    
   216  109  230 1    
   217  110  111 1    
   218  110  112 1    
   219  110  231 1    
   220  111  232 1    
   221  111  233 1    
   222  111  234 1    
   223  112  113 2    
   224  112  114 am   BACKBONE|DICT|INTERRES
   225  114  115 1    
   226  114  235 1    
   227  115  116 1    
   228  115  117 1    
   229  115  236 1    
   230  116  237 1    
   231  116  238 1    
   232  116  239 1    
   233  117  118 2    
   234  117  119 am   BACKBONE|DICT|INTERRES
   235  119  120 1    
   236  119  240 1    
   237  120  121 1    
   238  120  124 1    
   239  120  241 1    
   240  121  122 am   BACKBONE|DICT|INTERRES
   241  121  123 2    
   242  122  242 1    
   243  122  243 1    
   244  124  125 1    
   245  124  244 1    
   246  124  245 1    
   247  125  126 1    
   248  126  246 1    
   249  126  247 1    
@<TRIPOS>SUBSTRUCTURE
     1 UNK         1 GROUP             0       ****    0 ROOT    
