@<TRIPOS>MOLECULE
3R540
247   249    1
SMALL
USER_CHARGES


@<TRIPOS>ATOM
      1 CA         -3.5265  -18.5817  -47.0971 C.3       0 UNK        -0.1800 
      2 C          -3.2154  -17.1061  -47.3074 C.2       0 UNK         0.5000 
      3 O          -4.0006  -16.2545  -46.8916 O.2       0 UNK        -0.5000 
      4 N          -2.0860  -16.7996  -47.9597 N.am      1 UNK        -0.5000 
      5 CA         -1.6254  -15.4358  -48.2410 C.3       1 UNK         0.1400 
      6 C6         -0.4621  -15.4106  -49.2594 C.3       23 UNK        -0.0398 
      7 S7         -0.9936  -15.9735  -50.9089 S.3       23 UNK        -0.2404 
      8 C8          0.6029  -16.2730  -51.7273 C.3       23 UNK        -0.0205 
      9 C9          0.9227  -17.7576  -51.8220 C.ar      23 UNK        -0.0193 
     10 C10         0.9274  -18.3981  -53.0641 C.ar      23 UNK        -0.1150 
     11 C11         1.2524  -19.7537  -53.1644 C.ar      23 UNK        -0.0193 
     12 C12         1.5625  -20.4689  -52.0038 C.ar      23 UNK        -0.1150 
     13 C13         1.5790  -19.8434  -50.7531 C.ar      23 UNK        -0.0193 
     14 C14         1.2564  -18.4822  -50.6747 C.ar      23 UNK        -0.1150 
     15 C15         2.0209  -20.6653  -49.5403 C.3       23 UNK        -0.0205 
     16 S16         1.7620  -19.8929  -47.9046 S.3       23 UNK        -0.2404 
     17 C17         0.0149  -20.3031  -47.5890 C.3       23 UNK        -0.0398 
     18 CA         -0.1112  -21.6477  -46.8389 C.3       11 UNK         0.1400 
     19 N           0.4456  -21.6038  -45.4831 N.am      11 UNK        -0.5000 
     20 C           0.7096  -22.6908  -44.7463 C.2       10 UNK         0.5000 
     21 O           0.4637  -23.8370  -45.1213 O.2       10 UNK        -0.5000 
     22 CA          1.3075  -22.4661  -43.3484 C.3       10 UNK         0.1400 
     23 CB          2.7728  -22.0145  -43.4409 C.3       10 UNK        -0.1800 
     24 N           0.5339  -21.5036  -42.5669 N.am      10 UNK        -0.5000 
     25 C          -0.7182  -21.7131  -42.1356 C.2       9 UNK         0.5000 
     26 O          -1.3327  -22.7672  -42.3023 O.2       9 UNK        -0.5000 
     27 CA         -1.4155  -20.5388  -41.4229 C.3       9 UNK         0.1400 
     28 CB         -1.0089  -20.4824  -39.9429 C.3       9 UNK        -0.1800 
     29 N          -1.1554  -19.2432  -42.0533 N.am      9 UNK        -0.5000 
     30 C          -1.4971  -18.9295  -43.3119 C.2       8 UNK         0.5000 
     31 O          -2.0804  -19.6955  -44.0756 O.2       8 UNK        -0.5000 
     32 CA         -1.0586  -17.5511  -43.8289 C.3       8 UNK         0.1400 
     33 CB         -1.9519  -16.4409  -43.2582 C.3       8 UNK        -0.1800 
     34 N           0.3417  -17.2698  -43.5240 N.am      8 UNK        -0.5000 
     35 C           1.3752  -18.0010  -43.9638 C.2       7 UNK         0.5000 
     36 O           1.2602  -18.9806  -44.6982 O.2       7 UNK        -0.5000 
     37 CA          2.7653  -17.6146  -43.4361 C.3       7 UNK         0.1400 
     38 CB          3.3160  -16.3877  -44.1787 C.3       7 UNK        -0.1800 
     39 N           2.7471  -17.3655  -41.9939 N.am      7 UNK        -0.5000 
     40 C           2.5159  -18.3081  -41.0678 C.2       6 UNK         0.5000 
     41 O           2.3278  -19.4953  -41.3304 O.2       6 UNK        -0.5000 
     42 CA          2.4499  -17.8388  -39.6037 C.3       6 UNK         0.1400 
     43 CB          3.8588  -17.7544  -38.9979 C.3       6 UNK        -0.1800 
     44 N           1.7812  -16.5458  -39.4591 N.am      6 UNK        -0.5000 
     45 C           0.4759  -16.3381  -39.6831 C.2       5 UNK         0.5000 
     46 O          -0.3143  -17.2230  -40.0126 O.2       5 UNK        -0.5000 
     47 CA         -0.0080  -14.8793  -39.5756 C.3       5 UNK         0.1400 
     48 CB         -0.2569  -14.4935  -38.1098 C.3       5 UNK        -0.1800 
     49 N           0.9269  -13.9254  -40.1842 N.am      5 UNK        -0.5000 
     50 C           1.2391  -13.9222  -41.4856 C.2       4 UNK         0.5000 
     51 O           0.7661  -14.7230  -42.2979 O.2       4 UNK        -0.5000 
     52 CA          2.2684  -12.8886  -41.9639 C.3       4 UNK         0.1400 
     53 CB          3.6986  -13.3264  -41.5962 C.3       4 UNK        -0.1800 
     54 N           2.1133  -12.8018  -43.4081 N.am      4 UNK        -0.5000 
     55 C           2.6159  -11.8970  -44.2520 C.2       3 UNK         0.5000 
     56 O           3.3737  -10.9847  -43.9208 O.2       3 UNK        -0.5000 
     57 CA          2.1580  -12.0310  -45.7187 C.3       3 UNK         0.1400 
     58 CB          3.1208  -12.9315  -46.5077 C.3       3 UNK        -0.1800 
     59 N           0.8018  -12.5796  -45.8191 N.am      3 UNK        -0.5000 
     60 C          -0.3150  -11.9130  -45.5011 C.2       2 UNK         0.5000 
     61 O          -0.3245  -10.7150  -45.2123 O.2       2 UNK        -0.5000 
     62 CA         -1.6300  -12.7244  -45.4911 C.3       2 UNK         0.1400 
     63 CB         -2.8747  -11.8372  -45.3076 C.3       2 UNK        -0.1800 
     64 N          -1.8188  -13.5500  -46.6865 N.am      2 UNK        -0.5000 
     65 C          -1.2146  -14.7169  -46.9415 C.2       1 UNK         0.5000 
     66 O          -0.3456  -15.2087  -46.2191 O.2       1 UNK        -0.5000 
     67 C          -1.5516  -22.1928  -46.8722 C.2       11 UNK         0.5000 
     68 O          -1.8936  -22.8958  -47.8220 O.2       11 UNK        -0.5000 
     69 N          -2.3446  -21.9468  -45.8203 N.am      12 UNK        -0.5000 
     70 CA         -3.6750  -22.5325  -45.6274 C.3       12 UNK         0.1400 
     71 CB         -4.3666  -21.8539  -44.4355 C.3       12 UNK        -0.1800 
     72 C          -3.6695  -24.0658  -45.4441 C.2       12 UNK         0.5000 
     73 O          -4.7142  -24.6891  -45.6329 O.2       12 UNK        -0.5000 
     74 N          -2.5145  -24.6503  -45.0998 N.am      13 UNK        -0.5000 
     75 CA         -2.3042  -26.0949  -45.0550 C.3       13 UNK         0.1400 
     76 CB         -1.4732  -26.4515  -43.8117 C.3       13 UNK        -0.1800 
     77 C          -1.6141  -26.5889  -46.3384 C.2       13 UNK         0.5000 
     78 O          -2.0603  -27.5760  -46.9237 O.2       13 UNK        -0.5000 
     79 N          -0.5302  -25.9105  -46.7412 N.am      14 UNK        -0.5000 
     80 CA          0.3511  -26.3241  -47.8334 C.3       14 UNK         0.1400 
     81 CB          1.6846  -25.5677  -47.7217 C.3       14 UNK        -0.1800 
     82 C          -0.2570  -26.1398  -49.2346 C.2       14 UNK         0.5000 
     83 O          -0.1447  -27.0454  -50.0622 O.2       14 UNK        -0.5000 
     84 N          -0.8664  -24.9740  -49.4819 N.am      15 UNK        -0.5000 
     85 CA         -1.4592  -24.6031  -50.7692 C.3       15 UNK         0.1400 
     86 CB         -0.9791  -23.1940  -51.1543 C.3       15 UNK        -0.1800 
     87 C          -2.9951  -24.6526  -50.7253 C.2       15 UNK         0.5000 
     88 O          -3.6190  -24.8719  -51.7641 O.2       15 UNK        -0.5000 
     89 N          -3.5725  -24.4359  -49.5347 N.am      16 UNK        -0.5000 
     90 CA         -4.9966  -24.4064  -49.1869 C.3       16 UNK         0.1400 
     91 CB         -5.6911  -25.7494  -49.4850 C.3       16 UNK        -0.1800 
     92 C          -5.7456  -23.2117  -49.7994 C.2       16 UNK         0.5000 
     93 O          -6.2438  -22.3621  -49.0607 O.2       16 UNK        -0.5000 
     94 N          -5.7915  -23.1582  -51.1341 N.am      17 UNK        -0.5000 
     95 CA         -6.3610  -22.0587  -51.9098 C.3       17 UNK         0.1400 
     96 CB         -6.6089  -22.5479  -53.3441 C.3       17 UNK        -0.1800 
     97 C          -5.4518  -20.8170  -51.9131 C.2       17 UNK         0.5000 
     98 O          -5.9605  -19.6955  -51.9490 O.2       17 UNK        -0.5000 
     99 N          -4.1280  -21.0464  -51.8850 N.am      18 UNK        -0.5000 
    100 CA        -3.0582  -20.0457  -51.9565 C.3       18 UNK         0.1400 
    101 CB        -2.9391  -19.2988  -50.6127 C.3       18 UNK        -0.1800 
    102 C         -3.2395  -19.1415  -53.1925 C.2       18 UNK         0.5000 
    103 O         -3.3326  -19.6782  -54.2968 O.2       18 UNK        -0.5000 
    104 N         -3.3535  -17.8186  -53.0054 N.am      19 UNK        -0.5000 
    105 CA        -3.5634  -16.8140  -54.0563 C.3       19 UNK         0.1400 
    106 CB        -3.7426  -15.4306  -53.4123 C.3       19 UNK        -0.1800 
    107 C         -4.7374  -17.0914  -55.0181 C.2       19 UNK         0.5000 
    108 O         -4.6563  -16.7003  -56.1829 O.2       19 UNK        -0.5000 
    109 N         -5.7850  -17.7827  -54.5444 N.am      20 UNK        -0.5000 
    110 CA        -6.9397  -18.1749  -55.3573 C.3       20 UNK         0.1400 
    111 CB        -8.0722  -18.6599  -54.4399 C.3       20 UNK        -0.1800 
    112 C         -6.6113  -19.2296  -56.4359 C.2       20 UNK         0.5000 
    113 O         -7.3406  -19.3150  -57.4248 O.2       20 UNK        -0.5000 
    114 N         -5.5268  -19.9929  -56.2432 N.am      21 UNK        -0.5000 
    115 CA        -4.9866  -20.9362  -57.2224 C.3       21 UNK         0.1400 
    116 CB        -4.7319  -22.2882  -56.5385 C.3       21 UNK        -0.1800 
    117 C         -3.6886  -20.3991  -57.8481 C.2       21 UNK         0.5000 
    118 O         -3.4969  -20.5327  -59.0574 O.2       21 UNK        -0.5000 
    119 N         -2.8202  -19.8129  -57.0158 N.am      22 UNK        -0.5000 
    120 CA        -1.4971  -19.2958  -57.3920 C.3       22 UNK         0.1400 
    121 C         -1.5219  -17.9811  -58.2236 C.2       22 UNK         0.5000 
    122 N         -2.5849  -17.1869  -58.1990 N.am      22 UNK        -0.7600 
    123 O         -0.5527  -17.6782  -58.9140 O.2       22 UNK        -0.5000 
    124 C124       -0.5825  -19.1373  -56.1507 C.3       23 UNK        -0.0398 
    125 S125       -0.2927  -20.7183  -55.2786 S.3       23 UNK        -0.2404 
    126 C126        1.3396  -20.4345  -54.5251 C.3       23 UNK        -0.0205 
    127 H127       -4.4344  -18.8542  -47.6351 H         1 UNK         0.0600 
    128 H128       -2.7217  -19.2245  -47.4474 H         1 UNK         0.0600 
    129 H129       -3.6860  -18.7841  -46.0386 H         1 UNK         0.0600 
    130 H130       -1.4720  -17.5344  -48.2746 H         1 UNK         0.3000 
    131 H131       -2.4646  -14.8911  -48.6797 H         1 UNK         0.0600 
    132 H132        0.3687  -16.0232  -48.9067 H         1 UNK         0.0800 
    133 H133       -0.0704  -14.3979  -49.3732 H         1 UNK         0.0800 
    134 H134        0.5632  -15.8294  -52.7233 H         1 UNK         0.0800 
    135 H135        1.4065  -15.7564  -51.2006 H         1 UNK         0.0800 
    136 H136        0.7029  -17.8338  -53.9570 H         1 UNK         0.1150 
    137 H137        1.8318  -21.5132  -52.0782 H         1 UNK         0.1150 
    138 H138        1.2826  -17.9677  -49.7273 H         1 UNK         0.1150 
    139 H139        1.5278  -21.6383  -49.5572 H         1 UNK         0.0800 
    140 H140        3.0881  -20.8642  -49.6457 H         1 UNK         0.0800 
    141 H141       -0.5174  -20.3243  -48.5420 H         1 UNK         0.0800 
    142 H142       -0.4235  -19.4970  -46.9992 H         1 UNK         0.0800 
    143 H143        0.4830  -22.3764  -47.3935 H         1 UNK         0.0600 
    144 H144        0.6916  -20.6826  -45.1235 H         1 UNK         0.3000 
    145 H145        1.2844  -23.4222  -42.8214 H         1 UNK         0.0600 
    146 H146        3.2250  -21.9443  -42.4516 H         1 UNK         0.0600 
    147 H147        3.3645  -22.7249  -44.0195 H         1 UNK         0.0600 
    148 H148        2.8682  -21.0402  -43.9204 H         1 UNK         0.0600 
    149 H149        0.9904  -20.6241  -42.3474 H         1 UNK         0.3000 
    150 H150       -2.4916  -20.7172  -41.4723 H         1 UNK         0.0600 
    151 H151       -1.2078  -21.4326  -39.4459 H         1 UNK         0.0600 
    152 H152       -1.5680  -19.7132  -39.4099 H         1 UNK         0.0600 
    153 H153        0.0532  -20.2652  -39.8258 H         1 UNK         0.0600 
    154 H154       -0.6954  -18.5428  -41.4799 H         1 UNK         0.3000 
    155 H155       -1.1657  -17.5514  -44.9154 H         1 UNK         0.0600 
    156 H156       -1.8799  -16.3800  -42.1720 H         1 UNK         0.0600 
    157 H157       -2.9983  -16.6119  -43.5140 H         1 UNK         0.0600 
    158 H158       -1.6723  -15.4704  -43.6639 H         1 UNK         0.0600 
    159 H159        0.5247  -16.4501  -42.9512 H         1 UNK         0.3000 
    160 H160        3.4388  -18.4534  -43.6247 H         1 UNK         0.0600 
    161 H161        4.3200  -16.1353  -43.8380 H         1 UNK         0.0600 
    162 H162        2.6825  -15.5127  -44.0410 H         1 UNK         0.0600 
    163 H163        3.3749  -16.5795  -45.2509 H         1 UNK         0.0600 
    164 H164        2.8483  -16.4088  -41.6939 H         1 UNK         0.3000 
    165 H165        1.8804  -18.5816  -39.0411 H         1 UNK         0.0600 
    166 H166        3.8178  -17.4962  -37.9396 H         1 UNK         0.0600 
    167 H167        4.3751  -18.7120  -39.0778 H         1 UNK         0.0600 
    168 H168        4.4724  -17.0073  -39.5028 H         1 UNK         0.0600 
    169 H169        2.3562  -15.7598  -39.1946 H         1 UNK         0.3000 
    170 H170       -0.9569  -14.8077  -40.1116 H         1 UNK         0.0600 
    171 H171       -0.9600  -15.1823  -37.6394 H         1 UNK         0.0600 
    172 H172        0.6630  -14.5124  -37.5242 H         1 UNK         0.0600 
    173 H173       -0.6836  -13.4933  -38.0328 H         1 UNK         0.0600 
    174 H174        1.3485  -13.2440  -39.5693 H         1 UNK         0.3000 
    175 H175        2.0393  -11.9195  -41.5169 H         1 UNK         0.0600 
    176 H176        3.9564  -14.2842  -42.0483 H         1 UNK         0.0600 
    177 H177        4.4357  -12.5948  -41.9267 H         1 UNK         0.0600 
    178 H178        3.8132  -13.4299  -40.5167 H         1 UNK         0.0600 
    179 H179        1.4766  -13.5028  -43.7686 H         1 UNK         0.3000 
    180 H180        2.1693  -11.0359  -46.1683 H         1 UNK         0.0600 
    181 H181        3.1360  -13.9485  -46.1143 H         1 UNK         0.0600 
    182 H182        4.1402  -12.5463  -46.4634 H         1 UNK         0.0600 
    183 H183        2.8382  -12.9836  -47.5593 H         1 UNK         0.0600 
    184 H184        0.7116  -13.5685  -46.0317 H         1 UNK         0.3000 
    185 H185       -1.5731  -13.3836  -44.6239 H         1 UNK         0.0600 
    186 H186       -2.8125  -11.2567  -44.3862 H         1 UNK         0.0600 
    187 H187       -2.9930  -11.1344  -46.1332 H         1 UNK         0.0600 
    188 H188       -3.7816  -12.4391  -45.2458 H         1 UNK         0.0600 
    189 H189       -2.4982  -13.2049  -47.3491 H         1 UNK         0.3000 
    190 H190       -2.0256  -21.3110  -45.0932 H         1 UNK         0.3000 
    191 H191       -4.2625  -22.3190  -46.5228 H         1 UNK         0.0600 
    192 H192       -3.7920  -21.9758  -43.5167 H         1 UNK         0.0600 
    193 H193       -5.3578  -22.2751  -44.2626 H         1 UNK         0.0600 
    194 H194       -4.4979  -20.7865  -44.6118 H         1 UNK         0.0600 
    195 H195       -1.6987  -24.0704  -44.9492 H         1 UNK         0.3000 
    196 H196       -3.2602  -26.6158  -44.9695 H         1 UNK         0.0600 
    197 H197       -0.4932  -25.9739  -43.8221 H         1 UNK         0.0600 
    198 H198       -1.3127  -27.5283  -43.7461 H         1 UNK         0.0600 
    199 H199       -1.9825  -26.1416  -42.8990 H         1 UNK         0.0600 
    200 H200       -0.2065  -25.1281  -46.1759 H         1 UNK         0.3000 
    201 H201        0.5631  -27.3879  -47.7056 H         1 UNK         0.0600 
    202 H202        1.5487  -24.4906  -47.8193 H         1 UNK         0.0600 
    203 H203        2.3796  -25.8828  -48.5010 H         1 UNK         0.0600 
    204 H204        2.1652  -25.7568  -46.7616 H         1 UNK         0.0600 
    205 H205       -0.9685  -24.2983  -48.7320 H         1 UNK         0.3000 
    206 H206       -1.1331  -25.2905  -51.5524 H         1 UNK         0.0600 
    207 H207       -1.3541  -22.9111  -52.1386 H         1 UNK         0.0600 
    208 H208       -1.3124  -22.4385  -50.4419 H         1 UNK         0.0600 
    209 H209        0.1087  -23.1516  -51.2010 H         1 UNK         0.0600 
    210 H210       -2.9539  -24.1447  -48.7840 H         1 UNK         0.3000 
    211 H211       -5.0324  -24.2634  -48.1097 H         1 UNK         0.0600 
    212 H212       -5.7057  -25.9835  -50.5494 H         1 UNK         0.0600 
    213 H213       -6.7262  -25.7335  -49.1420 H         1 UNK         0.0600 
    214 H214       -5.1911  -26.5694  -48.9692 H         1 UNK         0.0600 
    215 H215       -5.2970  -23.8832  -51.6456 H         1 UNK         0.3000 
    216 H216       -7.3190  -21.7726  -51.4706 H         1 UNK         0.0600 
    217 H217       -6.9847  -21.7475  -53.9813 H         1 UNK         0.0600 
    218 H218       -7.3454  -23.3513  -53.3633 H         1 UNK         0.0600 
    219 H219       -5.6920  -22.9255  -53.7969 H         1 UNK         0.0600 
    220 H220       -3.8278  -22.0094  -51.8950 H         1 UNK         0.3000 
    221 H221       -2.1256  -20.5872  -52.1178 H         1 UNK         0.0600 
    222 H222       -3.8147  -18.6846  -50.3995 H         1 UNK         0.0600 
    223 H223       -2.8264  -20.0068  -49.7918 H         1 UNK         0.0600 
    224 H224       -2.0590  -18.6572  -50.6004 H         1 UNK         0.0600 
    225 H225       -3.2798  -17.4639  -52.0631 H         1 UNK         0.3000 
    226 H226       -2.6566  -16.7889  -54.6628 H         1 UNK         0.0600 
    227 H227       -2.8346  -15.1059  -52.9082 H         1 UNK         0.0600 
    228 H228       -3.9720  -14.6729  -54.1631 H         1 UNK         0.0600 
    229 H229       -4.5549  -15.4275  -52.6846 H         1 UNK         0.0600 
    230 H230       -5.7663  -18.1131  -53.5868 H         1 UNK         0.3000 
    231 H231       -7.2951  -17.2839  -55.8794 H         1 UNK         0.0600 
    232 H232       -8.3516  -17.8922  -53.7182 H         1 UNK         0.0600 
    233 H233       -7.7897  -19.5530  -53.8851 H         1 UNK         0.0600 
    234 H234       -8.9650  -18.9030  -55.0173 H         1 UNK         0.0600 
    235 H235       -4.9599  -19.8316  -55.4174 H         1 UNK         0.3000 
    236 H236       -5.6981  -21.1018  -58.0340 H         1 UNK         0.0600 
    237 H237       -4.2657  -22.9942  -57.2269 H         1 UNK         0.0600 
    238 H238       -4.0739  -22.1875  -55.6740 H         1 UNK         0.0600 
    239 H239       -5.6671  -22.7356  -56.2031 H         1 UNK         0.0600 
    240 H240       -3.0316  -19.7819  -56.0203 H         1 UNK         0.3000 
    241 H241       -1.0352  -20.0444  -58.0388 H         1 UNK         0.0600 
    242 H242       -2.5785  -16.3457  -58.7532 H         1 UNK         0.3800 
    243 H243       -3.3747  -17.3686  -57.5905 H         1 UNK         0.3800 
    244 H244        0.3819  -18.7219  -56.4474 H         1 UNK         0.0800 
    245 H245       -1.0206  -18.4285  -55.4478 H         1 UNK         0.0800 
    246 H246        1.8354  -21.4014  -54.4269 H         1 UNK         0.0800 
    247 H247        1.9715  -19.8470  -55.1922 H         1 UNK         0.0800 
@<TRIPOS>BOND
     1    1    2 1    
     2    1  127 1    
     3    1  128 1    
     4    1  129 1    
     5    2    3 2    
     6    2    4 am   BACKBONE|DICT|INTERRES
     7    4    5 1    
     8    4  130 1    
     9    5    6 1    
    10    5   65 1    
    11    5  131 1    
    12    6    7 1    
    13    6  132 1    
    14    6  133 1    
    15    7    8 1    
    16    8    9 1    
    17    8  134 1    
    18    8  135 1    
    19    9   10 ar   
    20    9   14 ar   
    21   10   11 ar   
    22   10  136 1    
    23   11   12 ar   
    24   11  126 1    
    25   12   13 ar   
    26   12  137 1    
    27   13   14 ar   
    28   13   15 1    
    29   14  138 1    
    30   15   16 1    
    31   15  139 1    
    32   15  140 1    
    33   16   17 1    
    34   17   18 1    
    35   17  141 1    
    36   17  142 1    
    37   18   19 1    
    38   18   67 1    
    39   18  143 1    
    40   19   20 am   BACKBONE|DICT|INTERRES
    41   19  144 1    
    42   20   21 2    
    43   20   22 1    
    44   22   23 1    
    45   22   24 1    
    46   22  145 1    
    47   23  146 1    
    48   23  147 1    
    49   23  148 1    
    50   24   25 am   BACKBONE|DICT|INTERRES
    51   24  149 1    
    52   25   26 2    
    53   25   27 1    
    54   27   28 1    
    55   27   29 1    
    56   27  150 1    
    57   28  151 1    
    58   28  152 1    
    59   28  153 1    
    60   29   30 am   BACKBONE|DICT|INTERRES
    61   29  154 1    
    62   30   31 2    
    63   30   32 1    
    64   32   33 1    
    65   32   34 1    
    66   32  155 1    
    67   33  156 1    
    68   33  157 1    
    69   33  158 1    
    70   34   35 am   BACKBONE|DICT|INTERRES
    71   34  159 1    
    72   35   36 2    
    73   35   37 1    
    74   37   38 1    
    75   37   39 1    
    76   37  160 1    
    77   38  161 1    
    78   38  162 1    
    79   38  163 1    
    80   39   40 am   BACKBONE|DICT|INTERRES
    81   39  164 1    
    82   40   41 2    
    83   40   42 1    
    84   42   43 1    
    85   42   44 1    
    86   42  165 1    
    87   43  166 1    
    88   43  167 1    
    89   43  168 1    
    90   44   45 am   BACKBONE|DICT|INTERRES
    91   44  169 1    
    92   45   46 2    
    93   45   47 1    
    94   47   48 1    
    95   47   49 1    
    96   47  170 1    
    97   48  171 1    
    98   48  172 1    
    99   48  173 1    
   100   49   50 am   BACKBONE|DICT|INTERRES
   101   49  174 1    
   102   50   51 2    
   103   50   52 1    
   104   52   53 1    
   105   52   54 1    
   106   52  175 1    
   107   53  176 1    
   108   53  177 1    
   109   53  178 1    
   110   54   55 am   BACKBONE|DICT|INTERRES
   111   54  179 1    
   112   55   56 2    
   113   55   57 1    
   114   57   58 1    
   115   57   59 1    
   116   57  180 1    
   117   58  181 1    
   118   58  182 1    
   119   58  183 1    
   120   59   60 am   BACKBONE|DICT|INTERRES
   121   59  184 1    
   122   60   61 2    
   123   60   62 1    
   124   62   63 1    
   125   62   64 1    
   126   62  185 1    
   127   63  186 1    
   128   63  187 1    
   129   63  188 1    
   130   64   65 am   BACKBONE|DICT|INTERRES
   131   64  189 1    
   132   65   66 2    
   133   67   68 2    
   134   67   69 am   BACKBONE|DICT|INTERRES
   135   69   70 1    
   136   69  190 1    
   137   70   71 1    
   138   70   72 1    
   139   70  191 1    
   140   71  192 1    
   141   71  193 1    
   142   71  194 1    
   143   72   73 2    
   144   72   74 am   BACKBONE|DICT|INTERRES
   145   74   75 1    
   146   74  195 1    
   147   75   76 1    
   148   75   77 1    
   149   75  196 1    
   150   76  197 1    
   151   76  198 1    
   152   76  199 1    
   153   77   78 2    
   154   77   79 am   BACKBONE|DICT|INTERRES
   155   79   80 1    
   156   79  200 1    
   157   80   81 1    
   158   80   82 1    
   159   80  201 1    
   160   81  202 1    
   161   81  203 1    
   162   81  204 1    
   163   82   83 2    
   164   82   84 am   BACKBONE|DICT|INTERRES
   165   84   85 1    
   166   84  205 1    
   167   85   86 1    
   168   85   87 1    
   169   85  206 1    
   170   86  207 1    
   171   86  208 1    
   172   86  209 1    
   173   87   88 2    
   174   87   89 am   BACKBONE|DICT|INTERRES
   175   89   90 1    
   176   89  210 1    
   177   90   91 1    
   178   90   92 1    
   179   90  211 1    
   180   91  212 1    
   181   91  213 1    
   182   91  214 1    
   183   92   93 2    
   184   92   94 am   BACKBONE|DICT|INTERRES
   185   94   95 1    
   186   94  215 1    
   187   95   96 1    
   188   95   97 1    
   189   95  216 1    
   190   96  217 1    
   191   96  218 1    
   192   96  219 1    
   193   97   98 2    
   194   97   99 am   BACKBONE|DICT|INTERRES
   195   99  100 1    
   196   99  220 1    
   197  100  101 1    
   198  100  102 1    
   199  100  221 1    
   200  101  222 1    
   201  101  223 1    
   202  101  224 1    
   203  102  103 2    
   204  102  104 am   BACKBONE|DICT|INTERRES
   205  104  105 1    
   206  104  225 1    
   207  105  106 1    
   208  105  107 1    
   209  105  226 1    
   210  106  227 1    
   211  106  228 1    
   212  106  229 1    
   213  107  108 2    
   214  107  109 am   BACKBONE|DICT|INTERRES
   215  109  110 1    
   216  109  230 1    
   217  110  111 1    
   218  110  112 1    
   219  110  231 1    
   220  111  232 1    
   221  111  233 1    
   222  111  234 1    
   223  112  113 2    
   224  112  114 am   BACKBONE|DICT|INTERRES
   225  114  115 1    
   226  114  235 1    
   227  115  116 1    
   228  115  117 1    
   229  115  236 1    
   230  116  237 1    
   231  116  238 1    
   232  116  239 1    
   233  117  118 2    
   234  117  119 am   BACKBONE|DICT|INTERRES
   235  119  120 1    
   236  119  240 1    
   237  120  121 1    
   238  120  124 1    
   239  120  241 1    
   240  121  122 am   BACKBONE|DICT|INTERRES
   241  121  123 2    
   242  122  242 1    
   243  122  243 1    
   244  124  125 1    
   245  124  244 1    
   246  124  245 1    
   247  125  126 1    
   248  126  246 1    
   249  126  247 1    
@<TRIPOS>SUBSTRUCTURE
     1 UNK         1 GROUP             0       ****    0 ROOT    
