@<TRIPOS>MOLECULE
3R540
247   249    1
SMALL
USER_CHARGES


@<TRIPOS>ATOM
      1 CA         -1.4896  -15.7044  -48.3580 C.3       0 UNK        -0.1800 
      2 C          -0.5110  -14.5464  -48.2171 C.2       0 UNK         0.5000 
      3 O          -0.6923  -13.6977  -47.3442 O.2       0 UNK        -0.5000 
      4 N           0.5298  -14.5091  -49.0619 N.am      1 UNK        -0.5000 
      5 CA          1.5021  -13.4070  -49.1736 C.3       1 UNK         0.1400 
      6 C6          2.4505  -13.5781  -50.3838 C.3       23 UNK        -0.0398 
      7 S7          1.5535  -13.7074  -51.9671 S.3       23 UNK        -0.2404 
      8 C8          2.1382  -15.3131  -52.5917 C.3       23 UNK        -0.0205 
      9 C9          1.5479  -16.4857  -51.8229 C.ar      23 UNK        -0.0193 
     10 C10         0.2258  -16.8765  -52.0579 C.ar      23 UNK        -0.1150 
     11 C11        -0.3085  -17.9934  -51.4108 C.ar      23 UNK        -0.0193 
     12 C12         0.4892  -18.7130  -50.5208 C.ar      23 UNK        -0.1150 
     13 C13         1.8010  -18.3172  -50.2491 C.ar      23 UNK        -0.0193 
     14 C14         2.3277  -17.2021  -50.9073 C.ar      23 UNK        -0.1150 
     15 C15         2.6489  -19.1195  -49.2694 C.3       23 UNK        -0.0205 
     16 S16         2.6416  -18.4388  -47.5743 S.3       23 UNK        -0.2404 
     17 C17         0.8662  -18.3426  -47.1720 C.3       23 UNK        -0.0398 
     18 CA          0.1666  -19.7135  -47.0141 C.3       11 UNK         0.1400 
     19 N           0.7056  -20.5106  -45.9129 N.am      11 UNK        -0.5000 
     20 C           0.3984  -21.7926  -45.6713 C.2       10 UNK         0.5000 
     21 O          -0.3472  -22.4536  -46.3967 O.2       10 UNK        -0.5000 
     22 CA          0.9505  -22.4134  -44.3719 C.3       10 UNK         0.1400 
     23 CB          1.3949  -23.8783  -44.5563 C.3       10 UNK        -0.1800 
     24 N           1.9893  -21.6010  -43.7264 N.am      10 UNK        -0.5000 
     25 C           3.2440  -21.3703  -44.1429 C.2       9 UNK         0.5000 
     26 O           3.7391  -21.8714  -45.1521 O.2       9 UNK        -0.5000 
     27 CA          4.0812  -20.3807  -43.3069 C.3       9 UNK         0.1400 
     28 CB          4.2406  -19.0497  -44.0602 C.3       9 UNK        -0.1800 
     29 N           3.5097  -20.1015  -41.9875 N.am      9 UNK        -0.5000 
     30 C           3.5156  -20.9456  -40.9466 C.2       8 UNK         0.5000 
     31 O           4.0268  -22.0653  -40.9742 O.2       8 UNK        -0.5000 
     32 CA          2.8059  -20.4617  -39.6717 C.3       8 UNK         0.1400 
     33 CB          3.7211  -19.5306  -38.8607 C.3       8 UNK        -0.1800 
     34 N           1.5595  -19.7614  -39.9858 N.am      8 UNK        -0.5000 
     35 C           0.3727  -20.3584  -40.1647 C.2       7 UNK         0.5000 
     36 O           0.1995  -21.5738  -40.0755 O.2       7 UNK        -0.5000 
     37 CA         -0.8233  -19.4478  -40.5094 C.3       7 UNK         0.1400 
     38 CB         -1.5279  -18.9746  -39.2295 C.3       7 UNK        -0.1800 
     39 N          -0.4327  -18.2804  -41.2998 N.am      7 UNK        -0.5000 
     40 C          -0.0903  -18.3337  -42.5922 C.2       6 UNK         0.5000 
     41 O          -0.1599  -19.3552  -43.2763 O.2       6 UNK        -0.5000 
     42 CA          0.4508  -17.0472  -43.2376 C.3       6 UNK         0.1400 
     43 CB         -0.6365  -16.3557  -44.0717 C.3       6 UNK        -0.1800 
     44 N           1.0526  -16.0866  -42.3045 N.am      6 UNK        -0.5000 
     45 C           2.1426  -16.3344  -41.5593 C.2       5 UNK         0.5000 
     46 O           2.6857  -17.4383  -41.5270 O.2       5 UNK        -0.5000 
     47 CA          2.7357  -15.1964  -40.7067 C.3       5 UNK         0.1400 
     48 CB          4.2119  -14.9555  -41.0625 C.3       5 UNK        -0.1800 
     49 N           2.0045  -13.9386  -40.8496 N.am      5 UNK        -0.5000 
     50 C           1.0188  -13.5328  -40.0376 C.2       4 UNK         0.5000 
     51 O           0.6351  -14.1733  -39.0582 O.2       4 UNK        -0.5000 
     52 CA          0.3267  -12.1976  -40.3831 C.3       4 UNK         0.1400 
     53 CB          0.9236  -11.0524  -39.5512 C.3       4 UNK        -0.1800 
     54 N           0.3977  -11.8406  -41.8027 N.am      4 UNK        -0.5000 
     55 C          -0.1410  -12.5536  -42.8005 C.2       3 UNK         0.5000 
     56 O          -0.7730  -13.5933  -42.6188 O.2       3 UNK        -0.5000 
     57 CA          0.0884  -12.0558  -44.2411 C.3       3 UNK         0.1400 
     58 CB          0.5712  -10.5909  -44.3301 C.3       3 UNK        -0.1800 
     59 N           0.9942  -12.9295  -44.9928 N.am      3 UNK        -0.5000 
     60 C           2.2518  -13.2768  -44.6702 C.2       2 UNK         0.5000 
     61 O           2.7903  -12.9679  -43.6059 O.2       2 UNK        -0.5000 
     62 CA          3.0621  -14.0912  -45.7055 C.3       2 UNK         0.1400 
     63 CB          3.3358  -15.5188  -45.2132 C.3       2 UNK        -0.1800 
     64 N           2.4332  -14.1714  -47.0249 N.am      2 UNK        -0.5000 
     65 C           2.3284  -13.1562  -47.8926 C.2       1 UNK         0.5000 
     66 O           2.8349  -12.0491  -47.7073 O.2       1 UNK        -0.5000 
     67 C          -1.3578  -19.5185  -46.8924 C.2       11 UNK         0.5000 
     68 O          -2.0339  -19.4533  -47.9167 O.2       11 UNK        -0.5000 
     69 N          -1.8761  -19.4628  -45.6558 N.am      12 UNK        -0.5000 
     70 CA         -3.3082  -19.3704  -45.3682 C.3       12 UNK         0.1400 
     71 CB         -3.5166  -19.0607  -43.8779 C.3       12 UNK        -0.1800 
     72 C          -4.0621  -20.6504  -45.7673 C.2       12 UNK         0.5000 
     73 O          -5.1520  -20.5648  -46.3324 O.2       12 UNK        -0.5000 
     74 N          -3.4458  -21.8120  -45.5054 N.am      13 UNK        -0.5000 
     75 CA         -3.9572  -23.1224  -45.9042 C.3       13 UNK         0.1400 
     76 CB         -3.1651  -24.2308  -45.1941 C.3       13 UNK        -0.1800 
     77 C          -3.9231  -23.3030  -47.4304 C.2       13 UNK         0.5000 
     78 O          -4.9062  -23.7683  -48.0057 O.2       13 UNK        -0.5000 
     79 N          -2.8178  -22.8800  -48.0613 N.am      14 UNK        -0.5000 
     80 CA         -2.6521  -22.8637  -49.5154 C.3       14 UNK         0.1400 
     81 CB         -1.2098  -22.4779  -49.8673 C.3       14 UNK        -0.1800 
     82 C          -3.6572  -21.9367  -50.2234 C.2       14 UNK         0.5000 
     83 O          -4.1907  -22.3184  -51.2620 O.2       14 UNK        -0.5000 
     84 N          -3.9329  -20.7637  -49.6346 N.am      15 UNK        -0.5000 
     85 CA         -4.9450  -19.8196  -50.1091 C.3       15 UNK         0.1400 
     86 CB         -4.8248  -18.4914  -49.3437 C.3       15 UNK        -0.1800 
     87 C          -6.3720  -20.3839  -49.9918 C.2       15 UNK         0.5000 
     88 O          -7.1478  -20.2637  -50.9397 O.2       15 UNK        -0.5000 
     89 N          -6.6839  -21.0103  -48.8473 N.am      16 UNK        -0.5000 
     90 CA         -7.9765  -21.6406  -48.5681 C.3       16 UNK         0.1400 
     91 CB         -8.0421  -22.0452  -47.0875 C.3       16 UNK        -0.1800 
     92 C          -8.2665  -22.8494  -49.4770 C.2       16 UNK         0.5000 
     93 O          -9.3899  -22.9912  -49.9613 O.2       16 UNK        -0.5000 
     94 N          -7.2444  -23.6823  -49.7123 N.am      17 UNK        -0.5000 
     95 CA         -7.2998  -24.8368  -50.6118 C.3       17 UNK         0.1400 
     96 CB         -6.1642  -25.8029  -50.2381 C.3       17 UNK        -0.1800 
     97 C          -7.1976  -24.4567  -52.1027 C.2       17 UNK         0.5000 
     98 O          -7.4231  -25.3135  -52.9575 O.2       17 UNK        -0.5000 
     99 N          -6.7944  -23.2117  -52.3900 N.am      18 UNK        -0.5000 
    100 CA        -6.4716  -22.5960  -53.6845 C.3       18 UNK         0.1400 
    101 CB        -7.6734  -22.6282  -54.6463 C.3       18 UNK        -0.1800 
    102 C         -5.1988  -23.1447  -54.3636 C.2       18 UNK         0.5000 
    103 O         -4.5610  -22.4103  -55.1233 O.2       18 UNK        -0.5000 
    104 N         -4.8602  -24.4154  -54.0975 N.am      19 UNK        -0.5000 
    105 CA        -3.6458  -25.1443  -54.4872 C.3       19 UNK         0.1400 
    106 CB        -2.4177  -24.5170  -53.7943 C.3       19 UNK        -0.1800 
    107 C         -3.4373  -25.2879  -56.0110 C.2       19 UNK         0.5000 
    108 O         -2.3382  -25.6421  -56.4401 O.2       19 UNK        -0.5000 
    109 N         -4.4833  -24.9858  -56.7974 N.am      20 UNK        -0.5000 
    110 CA        -4.4799  -24.8017  -58.2538 C.3       20 UNK         0.1400 
    111 CB        -4.2543  -26.1464  -58.9761 C.3       20 UNK        -0.1800 
    112 C         -3.4983  -23.6960  -58.7100 C.2       20 UNK         0.5000 
    113 O         -2.9352  -23.7846  -59.8031 O.2       20 UNK        -0.5000 
    114 N         -3.2947  -22.6870  -57.8523 N.am      21 UNK        -0.5000 
    115 CA        -2.2995  -21.6368  -58.0154 C.3       21 UNK         0.1400 
    116 CB        -0.9839  -22.0706  -57.3347 C.3       21 UNK        -0.1800 
    117 C         -2.8715  -20.3138  -57.4865 C.2       21 UNK         0.5000 
    118 O         -3.6035  -19.6430  -58.2158 O.2       21 UNK        -0.5000 
    119 N         -2.5154  -19.9484  -56.2494 N.am      22 UNK        -0.5000 
    120 CA        -2.8689  -18.6720  -55.6098 C.3       22 UNK         0.1400 
    121 C         -4.3572  -18.5138  -55.1793 C.2       22 UNK         0.5000 
    122 N         -5.1591  -19.5694  -55.1441 N.am      22 UNK        -0.7600 
    123 O         -4.7964  -17.4038  -54.8912 O.2       22 UNK        -0.5000 
    124 C124       -1.8836  -18.3249  -54.4654 C.3       23 UNK        -0.0398 
    125 S125       -1.8877  -19.5322  -53.0915 S.3       23 UNK        -0.2404 
    126 C126       -1.7454  -18.4291  -51.6522 C.3       23 UNK        -0.0205 
    127 H127       -1.2002  -16.3883  -49.1553 H         1 UNK         0.0600 
    128 H128       -1.5486  -16.2663  -47.4260 H         1 UNK         0.0600 
    129 H129       -2.4852  -15.3249  -48.5869 H         1 UNK         0.0600 
    130 H130        0.6222  -15.2306  -49.7641 H         1 UNK         0.3000 
    131 H131        0.9200  -12.4978  -49.3390 H         1 UNK         0.0600 
    132 H132        3.1213  -12.7207  -50.4655 H         1 UNK         0.0800 
    133 H133        3.0933  -14.4484  -50.2446 H         1 UNK         0.0800 
    134 H134        3.2288  -15.3409  -52.5683 H         1 UNK         0.0800 
    135 H135        1.8586  -15.4007  -53.6426 H         1 UNK         0.0800 
    136 H136       -0.3800  -16.3161  -52.7555 H         1 UNK         0.1150 
    137 H137        0.0784  -19.5826  -50.0346 H         1 UNK         0.1150 
    138 H138        3.3499  -16.9054  -50.7184 H         1 UNK         0.1150 
    139 H139        2.3156  -20.1578  -49.2422 H         1 UNK         0.0800 
    140 H140        3.6799  -19.1506  -49.6246 H         1 UNK         0.0800 
    141 H141        0.3851  -17.7486  -47.9469 H         1 UNK         0.0800 
    142 H142        0.7677  -17.7617  -46.2562 H         1 UNK         0.0800 
    143 H143        0.3347  -20.2910  -47.9221 H         1 UNK         0.0600 
    144 H144        1.2960  -20.0344  -45.2483 H         1 UNK         0.3000 
    145 H145        0.1126  -22.4168  -43.6733 H         1 UNK         0.0600 
    146 H146        1.7844  -24.2926  -43.6263 H         1 UNK         0.0600 
    147 H147        0.5558  -24.5039  -44.8629 H         1 UNK         0.0600 
    148 H148        2.1666  -23.9777  -45.3196 H         1 UNK         0.0600 
    149 H149        1.6860  -21.1037  -42.9005 H         1 UNK         0.3000 
    150 H150        5.0714  -20.8199  -43.1694 H         1 UNK         0.0600 
    151 H151        4.7147  -19.2011  -45.0308 H         1 UNK         0.0600 
    152 H152        4.8617  -18.3497  -43.5009 H         1 UNK         0.0600 
    153 H153        3.2780  -18.5711  -44.2388 H         1 UNK         0.0600 
    154 H154        3.1218  -19.1699  -41.8520 H         1 UNK         0.3000 
    155 H155        2.5848  -21.3358  -39.0553 H         1 UNK         0.0600 
    156 H156        3.9852  -18.6316  -39.4188 H         1 UNK         0.0600 
    157 H157        4.6505  -20.0348  -38.5931 H         1 UNK         0.0600 
    158 H158        3.2418  -19.2192  -37.9325 H         1 UNK         0.0600 
    159 H159        1.6348  -18.7665  -40.1495 H         1 UNK         0.3000 
    160 H160       -1.5349  -20.0390  -41.0902 H         1 UNK         0.0600 
    161 H161       -2.4154  -18.3862  -39.4633 H         1 UNK         0.0600 
    162 H162       -0.8715  -18.3617  -38.6104 H         1 UNK         0.0600 
    163 H163       -1.8515  -19.8233  -38.6254 H         1 UNK         0.0600 
    164 H164       -0.3629  -17.3969  -40.8164 H         1 UNK         0.3000 
    165 H165        1.2379  -17.3746  -43.9141 H         1 UNK         0.0600 
    166 H166       -0.2377  -15.4959  -44.6090 H         1 UNK         0.0600 
    167 H167       -1.0581  -17.0270  -44.8174 H         1 UNK         0.0600 
    168 H168       -1.4607  -16.0112  -43.4466 H         1 UNK         0.0600 
    169 H169        0.6218  -15.1700  -42.2617 H         1 UNK         0.3000 
    170 H170        2.6994  -15.5311  -39.6681 H         1 UNK         0.0600 
    171 H171        4.8003  -15.8669  -40.9478 H         1 UNK         0.0600 
    172 H172        4.3318  -14.6146  -42.0904 H         1 UNK         0.0600 
    173 H173        4.6537  -14.2029  -40.4095 H         1 UNK         0.0600 
    174 H174        2.2420  -13.3734  -41.6594 H         1 UNK         0.3000 
    175 H175       -0.7278  -12.2997  -40.1183 H         1 UNK         0.0600 
    176 H176        0.3871  -10.1188  -39.7215 H         1 UNK         0.0600 
    177 H177        0.8621  -11.2707  -38.4842 H         1 UNK         0.0600 
    178 H178        1.9744  -10.8862  -39.7923 H         1 UNK         0.0600 
    179 H179        0.9309  -11.0157  -42.0361 H         1 UNK         0.3000 
    180 H180       -0.8799  -12.1145  -44.7404 H         1 UNK         0.0600 
    181 H181        1.5652  -10.4545  -43.9027 H         1 UNK         0.0600 
    182 H182       -0.1127   -9.9176  -43.8116 H         1 UNK         0.0600 
    183 H183        0.6158  -10.2628  -45.3688 H         1 UNK         0.0600 
    184 H184        0.6157  -13.2658  -45.8727 H         1 UNK         0.3000 
    185 H185        4.0237  -13.5853  -45.8141 H         1 UNK         0.0600 
    186 H186        2.4325  -16.1219  -45.2442 H         1 UNK         0.0600 
    187 H187        4.0807  -16.0119  -45.8381 H         1 UNK         0.0600 
    188 H188        3.7138  -15.5311  -44.1912 H         1 UNK         0.0600 
    189 H189        1.9944  -15.0472  -47.2669 H         1 UNK         0.3000 
    190 H190       -1.2523  -19.5343  -44.8569 H         1 UNK         0.3000 
    191 H191       -3.7215  -18.5439  -45.9505 H         1 UNK         0.0600 
    192 H192       -3.0714  -19.8251  -43.2400 H         1 UNK         0.0600 
    193 H193       -4.5786  -19.0072  -43.6349 H         1 UNK         0.0600 
    194 H194       -3.0765  -18.1013  -43.6082 H         1 UNK         0.0600 
    195 H195       -2.5326  -21.7904  -45.0782 H         1 UNK         0.3000 
    196 H196       -4.9986  -23.1924  -45.5825 H         1 UNK         0.0600 
    197 H197       -3.5614  -25.2143  -45.4498 H         1 UNK         0.0600 
    198 H198       -3.2272  -24.1277  -44.1107 H         1 UNK         0.0600 
    199 H199       -2.1112  -24.2221  -45.4719 H         1 UNK         0.0600 
    200 H200       -2.0344  -22.5521  -47.5055 H         1 UNK         0.3000 
    201 H201       -2.8288  -23.8779  -49.8799 H         1 UNK         0.0600 
    202 H202       -0.4960  -23.1834  -49.4418 H         1 UNK         0.0600 
    203 H203       -0.9660  -21.4872  -49.4909 H         1 UNK         0.0600 
    204 H204       -1.0589  -22.4669  -50.9477 H         1 UNK         0.0600 
    205 H205       -3.3970  -20.4831  -48.8189 H         1 UNK         0.3000 
    206 H206       -4.7492  -19.6218  -51.1655 H         1 UNK         0.0600 
    207 H207       -3.8442  -18.0366  -49.4788 H         1 UNK         0.0600 
    208 H208       -5.5650  -17.7715  -49.6948 H         1 UNK         0.0600 
    209 H209       -4.9811  -18.6267  -48.2735 H         1 UNK         0.0600 
    210 H210       -6.0005  -21.0280  -48.0966 H         1 UNK         0.3000 
    211 H211       -8.7549  -20.8967  -48.7495 H         1 UNK         0.0600 
    212 H212       -7.2598  -22.7598  -46.8301 H         1 UNK         0.0600 
    213 H213       -9.0012  -22.5068  -46.8499 H         1 UNK         0.0600 
    214 H214       -7.9288  -21.1777  -46.4372 H         1 UNK         0.0600 
    215 H215       -6.3652  -23.5321  -49.2228 H         1 UNK         0.3000 
    216 H216       -8.2511  -25.3527  -50.4665 H         1 UNK         0.0600 
    217 H217       -6.1959  -26.7048  -50.8506 H         1 UNK         0.0600 
    218 H218       -6.2390  -26.1155  -49.1964 H         1 UNK         0.0600 
    219 H219       -5.1850  -25.3428  -50.3795 H         1 UNK         0.0600 
    220 H220       -6.5694  -22.6255  -51.5968 H         1 UNK         0.3000 
    221 H221       -6.2631  -21.5514  -53.4511 H         1 UNK         0.0600 
    222 H222       -7.9255  -23.6432  -54.9537 H         1 UNK         0.0600 
    223 H223       -8.5571  -22.1867  -54.1856 H         1 UNK         0.0600 
    224 H224       -7.4604  -22.0589  -55.5520 H         1 UNK         0.0600 
    225 H225       -5.5221  -24.9415  -53.5384 H         1 UNK         0.3000 
    226 H226       -3.7638  -26.1580  -54.1022 H         1 UNK         0.0600 
    227 H227       -2.2084  -23.5160  -54.1731 H         1 UNK         0.0600 
    228 H228       -1.5231  -25.1205  -53.9509 H         1 UNK         0.0600 
    229 H229       -2.5704  -24.4389  -52.7176 H         1 UNK         0.0600 
    230 H230       -5.3355  -24.7147  -56.3283 H         1 UNK         0.3000 
    231 H231       -5.4769  -24.4478  -58.5197 H         1 UNK         0.0600 
    232 H232       -4.9591  -26.9026  -58.6305 H         1 UNK         0.0600 
    233 H233       -3.2460  -26.5292  -58.8160 H         1 UNK         0.0600 
    234 H234       -4.3959  -26.0408  -60.0523 H         1 UNK         0.0600 
    235 H235       -3.8127  -22.6682  -56.9784 H         1 UNK         0.3000 
    236 H236       -2.0951  -21.4776  -59.0763 H         1 UNK         0.0600 
    237 H237       -0.5551  -22.9370  -57.8387 H         1 UNK         0.0600 
    238 H238       -0.2383  -21.2753  -57.3719 H         1 UNK         0.0600 
    239 H239       -1.1341  -22.3444  -56.2896 H         1 UNK         0.0600 
    240 H240       -1.9521  -20.5757  -55.6942 H         1 UNK         0.3000 
    241 H241       -2.7235  -17.9039  -56.3722 H         1 UNK         0.0600 
    242 H242       -6.1230  -19.4412  -54.8851 H         1 UNK         0.3800 
    243 H243       -4.7981  -20.5002  -55.3259 H         1 UNK         0.3800 
    244 H244       -0.8676  -18.2694  -54.8585 H         1 UNK         0.0800 
    245 H245       -2.1033  -17.3267  -54.0846 H         1 UNK         0.0800 
    246 H246       -2.1069  -18.9673  -50.7763 H         1 UNK         0.0800 
    247 H247       -2.3989  -17.5629  -51.7645 H         1 UNK         0.0800 
@<TRIPOS>BOND
     1    1    2 1    
     2    1  127 1    
     3    1  128 1    
     4    1  129 1    
     5    2    3 2    
     6    2    4 am   BACKBONE|DICT|INTERRES
     7    4    5 1    
     8    4  130 1    
     9    5    6 1    
    10    5   65 1    
    11    5  131 1    
    12    6    7 1    
    13    6  132 1    
    14    6  133 1    
    15    7    8 1    
    16    8    9 1    
    17    8  134 1    
    18    8  135 1    
    19    9   10 ar   
    20    9   14 ar   
    21   10   11 ar   
    22   10  136 1    
    23   11   12 ar   
    24   11  126 1    
    25   12   13 ar   
    26   12  137 1    
    27   13   14 ar   
    28   13   15 1    
    29   14  138 1    
    30   15   16 1    
    31   15  139 1    
    32   15  140 1    
    33   16   17 1    
    34   17   18 1    
    35   17  141 1    
    36   17  142 1    
    37   18   19 1    
    38   18   67 1    
    39   18  143 1    
    40   19   20 am   BACKBONE|DICT|INTERRES
    41   19  144 1    
    42   20   21 2    
    43   20   22 1    
    44   22   23 1    
    45   22   24 1    
    46   22  145 1    
    47   23  146 1    
    48   23  147 1    
    49   23  148 1    
    50   24   25 am   BACKBONE|DICT|INTERRES
    51   24  149 1    
    52   25   26 2    
    53   25   27 1    
    54   27   28 1    
    55   27   29 1    
    56   27  150 1    
    57   28  151 1    
    58   28  152 1    
    59   28  153 1    
    60   29   30 am   BACKBONE|DICT|INTERRES
    61   29  154 1    
    62   30   31 2    
    63   30   32 1    
    64   32   33 1    
    65   32   34 1    
    66   32  155 1    
    67   33  156 1    
    68   33  157 1    
    69   33  158 1    
    70   34   35 am   BACKBONE|DICT|INTERRES
    71   34  159 1    
    72   35   36 2    
    73   35   37 1    
    74   37   38 1    
    75   37   39 1    
    76   37  160 1    
    77   38  161 1    
    78   38  162 1    
    79   38  163 1    
    80   39   40 am   BACKBONE|DICT|INTERRES
    81   39  164 1    
    82   40   41 2    
    83   40   42 1    
    84   42   43 1    
    85   42   44 1    
    86   42  165 1    
    87   43  166 1    
    88   43  167 1    
    89   43  168 1    
    90   44   45 am   BACKBONE|DICT|INTERRES
    91   44  169 1    
    92   45   46 2    
    93   45   47 1    
    94   47   48 1    
    95   47   49 1    
    96   47  170 1    
    97   48  171 1    
    98   48  172 1    
    99   48  173 1    
   100   49   50 am   BACKBONE|DICT|INTERRES
   101   49  174 1    
   102   50   51 2    
   103   50   52 1    
   104   52   53 1    
   105   52   54 1    
   106   52  175 1    
   107   53  176 1    
   108   53  177 1    
   109   53  178 1    
   110   54   55 am   BACKBONE|DICT|INTERRES
   111   54  179 1    
   112   55   56 2    
   113   55   57 1    
   114   57   58 1    
   115   57   59 1    
   116   57  180 1    
   117   58  181 1    
   118   58  182 1    
   119   58  183 1    
   120   59   60 am   BACKBONE|DICT|INTERRES
   121   59  184 1    
   122   60   61 2    
   123   60   62 1    
   124   62   63 1    
   125   62   64 1    
   126   62  185 1    
   127   63  186 1    
   128   63  187 1    
   129   63  188 1    
   130   64   65 am   BACKBONE|DICT|INTERRES
   131   64  189 1    
   132   65   66 2    
   133   67   68 2    
   134   67   69 am   BACKBONE|DICT|INTERRES
   135   69   70 1    
   136   69  190 1    
   137   70   71 1    
   138   70   72 1    
   139   70  191 1    
   140   71  192 1    
   141   71  193 1    
   142   71  194 1    
   143   72   73 2    
   144   72   74 am   BACKBONE|DICT|INTERRES
   145   74   75 1    
   146   74  195 1    
   147   75   76 1    
   148   75   77 1    
   149   75  196 1    
   150   76  197 1    
   151   76  198 1    
   152   76  199 1    
   153   77   78 2    
   154   77   79 am   BACKBONE|DICT|INTERRES
   155   79   80 1    
   156   79  200 1    
   157   80   81 1    
   158   80   82 1    
   159   80  201 1    
   160   81  202 1    
   161   81  203 1    
   162   81  204 1    
   163   82   83 2    
   164   82   84 am   BACKBONE|DICT|INTERRES
   165   84   85 1    
   166   84  205 1    
   167   85   86 1    
   168   85   87 1    
   169   85  206 1    
   170   86  207 1    
   171   86  208 1    
   172   86  209 1    
   173   87   88 2    
   174   87   89 am   BACKBONE|DICT|INTERRES
   175   89   90 1    
   176   89  210 1    
   177   90   91 1    
   178   90   92 1    
   179   90  211 1    
   180   91  212 1    
   181   91  213 1    
   182   91  214 1    
   183   92   93 2    
   184   92   94 am   BACKBONE|DICT|INTERRES
   185   94   95 1    
   186   94  215 1    
   187   95   96 1    
   188   95   97 1    
   189   95  216 1    
   190   96  217 1    
   191   96  218 1    
   192   96  219 1    
   193   97   98 2    
   194   97   99 am   BACKBONE|DICT|INTERRES
   195   99  100 1    
   196   99  220 1    
   197  100  101 1    
   198  100  102 1    
   199  100  221 1    
   200  101  222 1    
   201  101  223 1    
   202  101  224 1    
   203  102  103 2    
   204  102  104 am   BACKBONE|DICT|INTERRES
   205  104  105 1    
   206  104  225 1    
   207  105  106 1    
   208  105  107 1    
   209  105  226 1    
   210  106  227 1    
   211  106  228 1    
   212  106  229 1    
   213  107  108 2    
   214  107  109 am   BACKBONE|DICT|INTERRES
   215  109  110 1    
   216  109  230 1    
   217  110  111 1    
   218  110  112 1    
   219  110  231 1    
   220  111  232 1    
   221  111  233 1    
   222  111  234 1    
   223  112  113 2    
   224  112  114 am   BACKBONE|DICT|INTERRES
   225  114  115 1    
   226  114  235 1    
   227  115  116 1    
   228  115  117 1    
   229  115  236 1    
   230  116  237 1    
   231  116  238 1    
   232  116  239 1    
   233  117  118 2    
   234  117  119 am   BACKBONE|DICT|INTERRES
   235  119  120 1    
   236  119  240 1    
   237  120  121 1    
   238  120  124 1    
   239  120  241 1    
   240  121  122 am   BACKBONE|DICT|INTERRES
   241  121  123 2    
   242  122  242 1    
   243  122  243 1    
   244  124  125 1    
   245  124  244 1    
   246  124  245 1    
   247  125  126 1    
   248  126  246 1    
   249  126  247 1    
@<TRIPOS>SUBSTRUCTURE
     1 UNK         1 GROUP             0       ****    0 ROOT    
