@<TRIPOS>MOLECULE
3R540
247   249    1
SMALL
USER_CHARGES


@<TRIPOS>ATOM
      1 CA          5.3331  -12.1344  -49.4812 C.3       0 UNK        -0.1800 
      2 C           4.1833  -12.7704  -48.7136 C.2       0 UNK         0.5000 
      3 O           3.0328  -12.3986  -48.9323 O.2       0 UNK        -0.5000 
      4 N           4.5058  -13.6985  -47.8014 N.am      1 UNK        -0.5000 
      5 CA          3.6485  -14.5552  -46.9587 C.3       1 UNK         0.1400 
      6 C6          2.9630  -15.7157  -47.7323 C.3       23 UNK        -0.0398 
      7 S7          1.4814  -15.2711  -48.7075 S.3       23 UNK        -0.2404 
      8 C8          2.0949  -15.4621  -50.4095 C.3       23 UNK        -0.0205 
      9 C9          1.7191  -16.8074  -51.0183 C.ar      23 UNK        -0.0193 
     10 C10         0.9383  -16.8471  -52.1767 C.ar      23 UNK        -0.1150 
     11 C11         0.6228  -18.0651  -52.7834 C.ar      23 UNK        -0.0193 
     12 C12         1.0846  -19.2553  -52.2167 C.ar      23 UNK        -0.1150 
     13 C13         1.8570  -19.2337  -51.0505 C.ar      23 UNK        -0.0193 
     14 C14         2.1742  -18.0070  -50.4588 C.ar      23 UNK        -0.1150 
     15 C15         2.3900  -20.5330  -50.4636 C.3       23 UNK        -0.0205 
     16 S16         1.0570  -21.6684  -49.9703 S.3       23 UNK        -0.2404 
     17 C17         0.5382  -21.0127  -48.3499 C.3       23 UNK        -0.0398 
     18 CA          0.0164  -22.1422  -47.4253 C.3       11 UNK         0.1400 
     19 N           0.2024  -21.8224  -46.0060 N.am      11 UNK        -0.5000 
     20 C           0.0733  -22.7072  -45.0069 C.2       10 UNK         0.5000 
     21 O          -0.1926  -23.8951  -45.1819 O.2       10 UNK        -0.5000 
     22 CA          0.2140  -22.1718  -43.5699 C.3       10 UNK         0.1400 
     23 CB          1.6919  -22.0193  -43.1831 C.3       10 UNK        -0.1800 
     24 N          -0.4931  -20.9057  -43.3691 N.am      10 UNK        -0.5000 
     25 C          -1.8226  -20.7649  -43.4733 C.2       9 UNK         0.5000 
     26 O          -2.5895  -21.6989  -43.6990 O.2       9 UNK        -0.5000 
     27 CA         -2.3945  -19.3424  -43.3584 C.3       9 UNK         0.1400 
     28 CB         -2.5782  -18.9468  -41.8861 C.3       9 UNK        -0.1800 
     29 N          -1.5722  -18.3464  -44.0434 N.am      9 UNK        -0.5000 
     30 C          -1.3330  -18.3282  -45.3633 C.2       8 UNK         0.5000 
     31 O          -1.8152  -19.1338  -46.1603 O.2       8 UNK        -0.5000 
     32 CA         -0.3319  -17.2706  -45.8620 C.3       8 UNK         0.1400 
     33 CB         -0.9697  -15.8722  -45.8790 C.3       8 UNK        -0.1800 
     34 N           0.8855  -17.2514  -45.0494 N.am      8 UNK        -0.5000 
     35 C           1.7379  -18.2805  -44.9342 C.2       7 UNK         0.5000 
     36 O           1.6270  -19.3308  -45.5649 O.2       7 UNK        -0.5000 
     37 CA          2.8759  -18.1362  -43.9081 C.3       7 UNK         0.1400 
     38 CB          4.1367  -17.5231  -44.5285 C.3       7 UNK        -0.1800 
     39 N           2.4734  -17.3523  -42.7424 N.am      7 UNK        -0.5000 
     40 C           1.6270  -17.8003  -41.8076 C.2       6 UNK         0.5000 
     41 O           1.1187  -18.9218  -41.8237 O.2       6 UNK        -0.5000 
     42 CA          1.2606  -16.8103  -40.6943 C.3       6 UNK         0.1400 
     43 CB          2.4155  -16.6477  -39.6944 C.3       6 UNK        -0.1800 
     44 N           0.8772  -15.4979  -41.2129 N.am      6 UNK        -0.5000 
     45 C          -0.2603  -15.2504  -41.8794 C.2       5 UNK         0.5000 
     46 O          -1.0059  -16.1440  -42.2790 O.2       5 UNK        -0.5000 
     47 CA         -0.6446  -13.7750  -42.1448 C.3       5 UNK         0.1400 
     48 CB         -2.1619  -13.5375  -42.0147 C.3       5 UNK        -0.1800 
     49 N           0.0979  -12.8015  -41.3364 N.am      5 UNK        -0.5000 
     50 C           0.1998  -12.7227  -39.9995 C.2       4 UNK         0.5000 
     51 O          -0.4924  -13.3797  -39.2209 O.2       4 UNK        -0.5000 
     52 CA          1.3046  -11.7895  -39.4450 C.3       4 UNK         0.1400 
     53 CB          1.9700  -12.3683  -38.1791 C.3       4 UNK        -0.1800 
     54 N           2.3293  -11.4249  -40.4375 N.am      4 UNK        -0.5000 
     55 C           3.1236  -12.2501  -41.1388 C.2       3 UNK         0.5000 
     56 O           3.1506  -13.4743  -40.9925 O.2       3 UNK        -0.5000 
     57 CA          3.9416  -11.5948  -42.2703 C.3       3 UNK         0.1400 
     58 CB          5.3630  -12.1767  -42.3420 C.3       3 UNK        -0.1800 
     59 N           3.3021  -11.7540  -43.5815 N.am      3 UNK        -0.5000 
     60 C           2.0546  -11.3932  -43.9197 C.2       2 UNK         0.5000 
     61 O           1.2763  -10.8324  -43.1485 O.2       2 UNK        -0.5000 
     62 CA          1.5729  -11.6985  -45.3523 C.3       2 UNK         0.1400 
     63 CB          1.3306  -10.3944  -46.1282 C.3       2 UNK        -0.1800 
     64 N           2.4736  -12.5404  -46.1381 N.am      2 UNK        -0.5000 
     65 C           2.6975  -13.8460  -45.9598 C.2       1 UNK         0.5000 
     66 O           2.2113  -14.4898  -45.0272 O.2       1 UNK        -0.5000 
     67 C          -1.4447  -22.5327  -47.7498 C.2       11 UNK         0.5000 
     68 O          -1.6761  -23.4288  -48.5661 O.2       11 UNK        -0.5000 
     69 N          -2.4102  -21.8819  -47.0854 N.am      12 UNK        -0.5000 
     70 CA         -3.8299  -22.2240  -47.1575 C.3       12 UNK         0.1400 
     71 CB         -4.6725  -21.0944  -46.5494 C.3       12 UNK        -0.1800 
     72 C          -4.1352  -23.5768  -46.4879 C.2       12 UNK         0.5000 
     73 O          -4.8354  -24.3948  -47.0816 O.2       12 UNK        -0.5000 
     74 N          -3.5692  -23.8179  -45.2964 N.am      13 UNK        -0.5000 
     75 CA         -3.6885  -25.0750  -44.5485 C.3       13 UNK         0.1400 
     76 CB         -3.0700  -24.9061  -43.1529 C.3       13 UNK        -0.1800 
     77 C          -3.0616  -26.2790  -45.2781 C.2       13 UNK         0.5000 
     78 O          -3.6017  -27.3832  -45.2070 O.2       13 UNK        -0.5000 
     79 N          -1.9637  -26.0336  -46.0056 N.am      14 UNK        -0.5000 
     80 CA         -1.3086  -26.9864  -46.9050 C.3       14 UNK         0.1400 
     81 CB          0.0993  -26.4632  -47.2333 C.3       14 UNK        -0.1800 
     82 C          -2.0959  -27.2531  -48.2067 C.2       14 UNK         0.5000 
     83 O          -1.7105  -28.1434  -48.9651 O.2       14 UNK        -0.5000 
     84 N          -3.1604  -26.4732  -48.4521 N.am      15 UNK        -0.5000 
     85 CA         -4.0344  -26.4798  -49.6283 C.3       15 UNK         0.1400 
     86 CB         -4.7726  -27.8266  -49.7725 C.3       15 UNK        -0.1800 
     87 C          -3.3255  -26.0354  -50.9246 C.2       15 UNK         0.5000 
     88 O          -3.7804  -26.3738  -52.0179 O.2       15 UNK        -0.5000 
     89 N          -2.2335  -25.2739  -50.7833 N.am      16 UNK        -0.5000 
     90 CA         -1.4223  -24.7680  -51.8875 C.3       16 UNK         0.1400 
     91 CB          0.0548  -24.7935  -51.4700 C.3       16 UNK        -0.1800 
     92 C          -1.8671  -23.3639  -52.3332 C.2       16 UNK         0.5000 
     93 O          -1.7683  -23.0594  -53.5214 O.2       16 UNK        -0.5000 
     94 N          -2.3721  -22.5511  -51.3937 N.am      17 UNK        -0.5000 
     95 CA         -2.9547  -21.2311  -51.6670 C.3       17 UNK         0.1400 
     96 CB         -2.4282  -20.2223  -50.6340 C.3       17 UNK        -0.1800 
     97 C          -4.4957  -21.2484  -51.6469 C.2       17 UNK         0.5000 
     98 O          -5.1152  -20.2757  -52.0809 O.2       17 UNK        -0.5000 
     99 N          -5.0915  -22.3315  -51.1272 N.am      18 UNK        -0.5000 
    100 CA        -6.5376  -22.5096  -50.9752 C.3       18 UNK         0.1400 
    101 CB        -6.7981  -23.7775  -50.1503 C.3       18 UNK        -0.1800 
    102 C         -7.2808  -22.5973  -52.3205 C.2       18 UNK         0.5000 
    103 O         -6.6790  -22.9479  -53.3362 O.2       18 UNK        -0.5000 
    104 N         -8.5857  -22.2886  -52.2926 N.am      19 UNK        -0.5000 
    105 CA        -9.5256  -22.3388  -53.4236 C.3       19 UNK         0.1400 
    106 CB        -9.7746  -23.8006  -53.8519 C.3       19 UNK        -0.1800 
    107 C         -9.1220  -21.4313  -54.6082 C.2       19 UNK         0.5000 
    108 O         -9.4271  -21.7459  -55.7598 O.2       19 UNK        -0.5000 
    109 N         -8.4334  -20.3236  -54.2918 N.am      20 UNK        -0.5000 
    110 CA        -7.8667  -19.3324  -55.2114 C.3       20 UNK         0.1400 
    111 CB        -8.9801  -18.5795  -55.9700 C.3       20 UNK        -0.1800 
    112 C         -6.7810  -19.9064  -56.1485 C.2       20 UNK         0.5000 
    113 O         -6.5975  -19.3964  -57.2560 O.2       20 UNK        -0.5000 
    114 N         -6.0442  -20.9280  -55.6814 N.am      21 UNK        -0.5000 
    115 CA        -4.9477  -21.5846  -56.4064 C.3       21 UNK         0.1400 
    116 CB        -4.4513  -22.7889  -55.5946 C.3       21 UNK        -0.1800 
    117 C         -3.7714  -20.6554  -56.7741 C.2       21 UNK         0.5000 
    118 O         -3.0225  -20.9691  -57.7006 O.2       21 UNK        -0.5000 
    119 N         -3.6525  -19.5182  -56.0770 N.am      22 UNK        -0.5000 
    120 CA        -2.7594  -18.4043  -56.4299 C.3       22 UNK         0.1400 
    121 C         -3.1417  -17.6582  -57.7452 C.2       22 UNK         0.5000 
    122 N         -4.3408  -17.8230  -58.2935 N.am      22 UNK        -0.7600 
    123 O         -2.3268  -16.9131  -58.2824 O.2       22 UNK        -0.5000 
    124 C124       -2.6216  -17.3878  -55.2686 C.3       23 UNK        -0.0398 
    125 S125       -1.9735  -18.1189  -53.7286 S.3       23 UNK        -0.2404 
    126 C126       -0.1876  -18.0816  -54.0682 C.3       23 UNK        -0.0205 
    127 H127        6.2987  -12.5420  -49.1806 H         1 UNK         0.0600 
    128 H128        5.3496  -11.0582  -49.3090 H         1 UNK         0.0600 
    129 H129        5.2095  -12.3075  -50.5503 H         1 UNK         0.0600 
    130 H130        5.4919  -13.8836  -47.6785 H         1 UNK         0.3000 
    131 H131        4.3860  -15.0305  -46.3137 H         1 UNK         0.0600 
    132 H132        3.6984  -16.2021  -48.3728 H         1 UNK         0.0800 
    133 H133        2.6561  -16.4882  -47.0298 H         1 UNK         0.0800 
    134 H134        3.1767  -15.3302  -50.4480 H         1 UNK         0.0800 
    135 H135        1.6778  -14.6471  -51.0029 H         1 UNK         0.0800 
    136 H136        0.5856  -15.9265  -52.6202 H         1 UNK         0.1150 
    137 H137        0.8458  -20.2008  -52.6839 H         1 UNK         0.1150 
    138 H138        2.7841  -17.9868  -49.5680 H         1 UNK         0.1150 
    139 H139        3.0505  -20.3465  -49.6156 H         1 UNK         0.0800 
    140 H140        3.0008  -21.0270  -51.2203 H         1 UNK         0.0800 
    141 H141       -0.1982  -20.2180  -48.4820 H         1 UNK         0.0800 
    142 H142        1.4095  -20.5390  -47.8973 H         1 UNK         0.0800 
    143 H143        0.6241  -23.0312  -47.6083 H         1 UNK         0.0600 
    144 H144        0.4691  -20.8670  -45.7844 H         1 UNK         0.3000 
    145 H145       -0.2325  -22.9068  -42.8972 H         1 UNK         0.0600 
    146 H146        2.2107  -22.9762  -43.2516 H         1 UNK         0.0600 
    147 H147        1.7985  -21.6640  -42.1581 H         1 UNK         0.0600 
    148 H148        2.2111  -21.3206  -43.8376 H         1 UNK         0.0600 
    149 H149        0.0679  -20.0987  -43.1174 H         1 UNK         0.3000 
    150 H150       -3.3775  -19.3420  -43.8335 H         1 UNK         0.0600 
    151 H151       -1.6230  -18.8802  -41.3643 H         1 UNK         0.0600 
    152 H152       -3.1923  -19.6773  -41.3581 H         1 UNK         0.0600 
    153 H153       -3.0747  -17.9804  -41.7978 H         1 UNK         0.0600 
    154 H154       -1.1672  -17.6211  -43.4568 H         1 UNK         0.3000 
    155 H155       -0.0482  -17.5297  -46.8844 H         1 UNK         0.0600 
    156 H156       -0.2719  -15.1218  -46.2493 H         1 UNK         0.0600 
    157 H157       -1.2968  -15.5595  -44.8879 H         1 UNK         0.0600 
    158 H158       -1.8425  -15.8533  -46.5326 H         1 UNK         0.0600 
    159 H159        1.0788  -16.4023  -44.5348 H         1 UNK         0.3000 
    160 H160        3.1343  -19.1425  -43.5730 H         1 UNK         0.0600 
    161 H161        4.0260  -16.4508  -44.6657 H         1 UNK         0.0600 
    162 H162        4.3653  -17.9694  -45.4974 H         1 UNK         0.0600 
    163 H163        5.0019  -17.6820  -43.8847 H         1 UNK         0.0600 
    164 H164        2.8211  -16.4063  -42.6743 H         1 UNK         0.3000 
    165 H165        0.4047  -17.2220  -40.1551 H         1 UNK         0.0600 
    166 H166        2.7115  -17.6116  -39.2786 H         1 UNK         0.0600 
    167 H167        3.2963  -16.2051  -40.1611 H         1 UNK         0.0600 
    168 H168        2.1247  -16.0086  -38.8603 H         1 UNK         0.0600 
    169 H169        1.4869  -14.7217  -40.9789 H         1 UNK         0.3000 
    170 H170       -0.3665  -13.5794  -43.1812 H         1 UNK         0.0600 
    171 H171       -2.4177  -12.4994  -42.2267 H         1 UNK         0.0600 
    172 H172       -2.5232  -13.7752  -41.0138 H         1 UNK         0.0600 
    173 H173       -2.7188  -14.1570  -42.7187 H         1 UNK         0.0600 
    174 H174        0.6738  -12.1581  -41.8716 H         1 UNK         0.3000 
    175 H175        0.8041  -10.8617  -39.1649 H         1 UNK         0.0600 
    176 H176        2.4311  -13.3377  -38.3713 H         1 UNK         0.0600 
    177 H177        1.2410  -12.5066  -37.3799 H         1 UNK         0.0600 
    178 H178        2.7418  -11.6995  -37.7984 H         1 UNK         0.0600 
    179 H179        2.3392  -10.4462  -40.6917 H         1 UNK         0.3000 
    180 H180        4.0253  -10.5257  -42.0658 H         1 UNK         0.0600 
    181 H181        5.3537  -13.2345  -42.6086 H         1 UNK         0.0600 
    182 H182        5.8710  -12.0850  -41.3811 H         1 UNK         0.0600 
    183 H183        5.9684  -11.6504  -43.0802 H         1 UNK         0.0600 
    184 H184        3.8493  -12.2241  -44.2864 H         1 UNK         0.3000 
    185 H185        0.6195  -12.2231  -45.2627 H         1 UNK         0.0600 
    186 H186        0.6214   -9.7504  -45.6065 H         1 UNK         0.0600 
    187 H187        2.2539   -9.8289  -46.2600 H         1 UNK         0.0600 
    188 H188        0.9170  -10.5955  -47.1168 H         1 UNK         0.0600 
    189 H189        2.8478  -12.1311  -46.9871 H         1 UNK         0.3000 
    190 H190       -2.1537  -21.1087  -46.4798 H         1 UNK         0.3000 
    191 H191       -4.1021  -22.3083  -48.2116 H         1 UNK         0.0600 
    192 H192       -4.4899  -20.1493  -47.0613 H         1 UNK         0.0600 
    193 H193       -5.7374  -21.3128  -46.6373 H         1 UNK         0.0600 
    194 H194       -4.4536  -20.9485  -45.4920 H         1 UNK         0.0600 
    195 H195       -3.0471  -23.0718  -44.8418 H         1 UNK         0.3000 
    196 H196       -4.7528  -25.2848  -44.4242 H         1 UNK         0.0600 
    197 H197       -3.1693  -25.8209  -42.5674 H         1 UNK         0.0600 
    198 H198       -3.5637  -24.1091  -42.5967 H         1 UNK         0.0600 
    199 H199       -2.0082  -24.6662  -43.2104 H         1 UNK         0.0600 
    200 H200       -1.5313  -25.1173  -45.9290 H         1 UNK         0.3000 
    201 H201       -1.2080  -27.9398  -46.3827 H         1 UNK         0.0600 
    202 H202        0.6431  -27.1650  -47.8668 H         1 UNK         0.0600 
    203 H203        0.6891  -26.3216  -46.3275 H         1 UNK         0.0600 
    204 H204        0.0596  -25.5093  -47.7601 H         1 UNK         0.0600 
    205 H205       -3.3994  -25.7740  -47.7589 H         1 UNK         0.3000 
    206 H206       -4.7887  -25.7213  -49.4284 H         1 UNK         0.0600 
    207 H207       -5.2596  -28.1103  -48.8395 H         1 UNK         0.0600 
    208 H208       -5.5487  -27.7665  -50.5363 H         1 UNK         0.0600 
    209 H209       -4.0967  -28.6327  -50.0585 H         1 UNK         0.0600 
    210 H210       -1.9542  -24.9875  -49.8508 H         1 UNK         0.3000 
    211 H211       -1.5266  -25.4255  -52.7534 H         1 UNK         0.0600 
    212 H212        0.4190  -25.8183  -51.3974 H         1 UNK         0.0600 
    213 H213        0.6839  -24.2734  -52.1938 H         1 UNK         0.0600 
    214 H214        0.2048  -24.3259  -50.4981 H         1 UNK         0.0600 
    215 H215       -2.3358  -22.8524  -50.4265 H         1 UNK         0.3000 
    216 H216       -2.6537  -20.8820  -52.6565 H         1 UNK         0.0600 
    217 H217       -2.6824  -20.5112  -49.6148 H         1 UNK         0.0600 
    218 H218       -2.8478  -19.2304  -50.8063 H         1 UNK         0.0600 
    219 H219       -1.3463  -20.1218  -50.7025 H         1 UNK         0.0600 
    220 H220       -4.5092  -23.1103  -50.8654 H         1 UNK         0.3000 
    221 H221       -6.9216  -21.6485  -50.4243 H         1 UNK         0.0600 
    222 H222       -6.4622  -24.6714  -50.6769 H         1 UNK         0.0600 
    223 H223       -6.2916  -23.7338  -49.1873 H         1 UNK         0.0600 
    224 H224       -7.8623  -23.9023  -49.9466 H         1 UNK         0.0600 
    225 H225       -8.9912  -22.0057  -51.4108 H         1 UNK         0.3000 
    226 H226      -10.4712  -21.9411  -53.0525 H         1 UNK         0.0600 
    227 H227      -10.0688  -24.4159  -53.0017 H         1 UNK         0.0600 
    228 H228      -10.5770  -23.8631  -54.5879 H         1 UNK         0.0600 
    229 H229       -8.8861  -24.2482  -54.2983 H         1 UNK         0.0600 
    230 H230       -8.2267  -20.1735  -53.3141 H         1 UNK         0.3000 
    231 H231       -7.3542  -18.6031  -54.5825 H         1 UNK         0.0600 
    232 H232       -9.4928  -19.2241  -56.6843 H         1 UNK         0.0600 
    233 H233       -8.5717  -17.7361  -56.5281 H         1 UNK         0.0600 
    234 H234       -9.7255  -18.1799  -55.2825 H         1 UNK         0.0600 
    235 H235       -6.2732  -21.3199  -54.7752 H         1 UNK         0.3000 
    236 H236       -5.3572  -21.9587  -57.3467 H         1 UNK         0.0600 
    237 H237       -4.1613  -22.4951  -54.5859 H         1 UNK         0.0600 
    238 H238       -5.2245  -23.5526  -55.5122 H         1 UNK         0.0600 
    239 H239       -3.5850  -23.2574  -56.0634 H         1 UNK         0.0600 
    240 H240       -4.2937  -19.3539  -55.3158 H         1 UNK         0.3000 
    241 H241       -1.7717  -18.8327  -56.6100 H         1 UNK         0.0600 
    242 H242       -5.0406  -18.4284  -57.8742 H         1 UNK         0.3800 
    243 H243       -4.5621  -17.3326  -59.1454 H         1 UNK         0.3800 
    244 H244       -1.9782  -16.5534  -55.5534 H         1 UNK         0.0800 
    245 H245       -3.5936  -16.9456  -55.0436 H         1 UNK         0.0800 
    246 H246        0.0796  -18.9476  -54.6756 H         1 UNK         0.0800 
    247 H247        0.0662  -17.2022  -54.6618 H         1 UNK         0.0800 
@<TRIPOS>BOND
     1    1    2 1    
     2    1  127 1    
     3    1  128 1    
     4    1  129 1    
     5    2    3 2    
     6    2    4 am   BACKBONE|DICT|INTERRES
     7    4    5 1    
     8    4  130 1    
     9    5    6 1    
    10    5   65 1    
    11    5  131 1    
    12    6    7 1    
    13    6  132 1    
    14    6  133 1    
    15    7    8 1    
    16    8    9 1    
    17    8  134 1    
    18    8  135 1    
    19    9   10 ar   
    20    9   14 ar   
    21   10   11 ar   
    22   10  136 1    
    23   11   12 ar   
    24   11  126 1    
    25   12   13 ar   
    26   12  137 1    
    27   13   14 ar   
    28   13   15 1    
    29   14  138 1    
    30   15   16 1    
    31   15  139 1    
    32   15  140 1    
    33   16   17 1    
    34   17   18 1    
    35   17  141 1    
    36   17  142 1    
    37   18   19 1    
    38   18   67 1    
    39   18  143 1    
    40   19   20 am   BACKBONE|DICT|INTERRES
    41   19  144 1    
    42   20   21 2    
    43   20   22 1    
    44   22   23 1    
    45   22   24 1    
    46   22  145 1    
    47   23  146 1    
    48   23  147 1    
    49   23  148 1    
    50   24   25 am   BACKBONE|DICT|INTERRES
    51   24  149 1    
    52   25   26 2    
    53   25   27 1    
    54   27   28 1    
    55   27   29 1    
    56   27  150 1    
    57   28  151 1    
    58   28  152 1    
    59   28  153 1    
    60   29   30 am   BACKBONE|DICT|INTERRES
    61   29  154 1    
    62   30   31 2    
    63   30   32 1    
    64   32   33 1    
    65   32   34 1    
    66   32  155 1    
    67   33  156 1    
    68   33  157 1    
    69   33  158 1    
    70   34   35 am   BACKBONE|DICT|INTERRES
    71   34  159 1    
    72   35   36 2    
    73   35   37 1    
    74   37   38 1    
    75   37   39 1    
    76   37  160 1    
    77   38  161 1    
    78   38  162 1    
    79   38  163 1    
    80   39   40 am   BACKBONE|DICT|INTERRES
    81   39  164 1    
    82   40   41 2    
    83   40   42 1    
    84   42   43 1    
    85   42   44 1    
    86   42  165 1    
    87   43  166 1    
    88   43  167 1    
    89   43  168 1    
    90   44   45 am   BACKBONE|DICT|INTERRES
    91   44  169 1    
    92   45   46 2    
    93   45   47 1    
    94   47   48 1    
    95   47   49 1    
    96   47  170 1    
    97   48  171 1    
    98   48  172 1    
    99   48  173 1    
   100   49   50 am   BACKBONE|DICT|INTERRES
   101   49  174 1    
   102   50   51 2    
   103   50   52 1    
   104   52   53 1    
   105   52   54 1    
   106   52  175 1    
   107   53  176 1    
   108   53  177 1    
   109   53  178 1    
   110   54   55 am   BACKBONE|DICT|INTERRES
   111   54  179 1    
   112   55   56 2    
   113   55   57 1    
   114   57   58 1    
   115   57   59 1    
   116   57  180 1    
   117   58  181 1    
   118   58  182 1    
   119   58  183 1    
   120   59   60 am   BACKBONE|DICT|INTERRES
   121   59  184 1    
   122   60   61 2    
   123   60   62 1    
   124   62   63 1    
   125   62   64 1    
   126   62  185 1    
   127   63  186 1    
   128   63  187 1    
   129   63  188 1    
   130   64   65 am   BACKBONE|DICT|INTERRES
   131   64  189 1    
   132   65   66 2    
   133   67   68 2    
   134   67   69 am   BACKBONE|DICT|INTERRES
   135   69   70 1    
   136   69  190 1    
   137   70   71 1    
   138   70   72 1    
   139   70  191 1    
   140   71  192 1    
   141   71  193 1    
   142   71  194 1    
   143   72   73 2    
   144   72   74 am   BACKBONE|DICT|INTERRES
   145   74   75 1    
   146   74  195 1    
   147   75   76 1    
   148   75   77 1    
   149   75  196 1    
   150   76  197 1    
   151   76  198 1    
   152   76  199 1    
   153   77   78 2    
   154   77   79 am   BACKBONE|DICT|INTERRES
   155   79   80 1    
   156   79  200 1    
   157   80   81 1    
   158   80   82 1    
   159   80  201 1    
   160   81  202 1    
   161   81  203 1    
   162   81  204 1    
   163   82   83 2    
   164   82   84 am   BACKBONE|DICT|INTERRES
   165   84   85 1    
   166   84  205 1    
   167   85   86 1    
   168   85   87 1    
   169   85  206 1    
   170   86  207 1    
   171   86  208 1    
   172   86  209 1    
   173   87   88 2    
   174   87   89 am   BACKBONE|DICT|INTERRES
   175   89   90 1    
   176   89  210 1    
   177   90   91 1    
   178   90   92 1    
   179   90  211 1    
   180   91  212 1    
   181   91  213 1    
   182   91  214 1    
   183   92   93 2    
   184   92   94 am   BACKBONE|DICT|INTERRES
   185   94   95 1    
   186   94  215 1    
   187   95   96 1    
   188   95   97 1    
   189   95  216 1    
   190   96  217 1    
   191   96  218 1    
   192   96  219 1    
   193   97   98 2    
   194   97   99 am   BACKBONE|DICT|INTERRES
   195   99  100 1    
   196   99  220 1    
   197  100  101 1    
   198  100  102 1    
   199  100  221 1    
   200  101  222 1    
   201  101  223 1    
   202  101  224 1    
   203  102  103 2    
   204  102  104 am   BACKBONE|DICT|INTERRES
   205  104  105 1    
   206  104  225 1    
   207  105  106 1    
   208  105  107 1    
   209  105  226 1    
   210  106  227 1    
   211  106  228 1    
   212  106  229 1    
   213  107  108 2    
   214  107  109 am   BACKBONE|DICT|INTERRES
   215  109  110 1    
   216  109  230 1    
   217  110  111 1    
   218  110  112 1    
   219  110  231 1    
   220  111  232 1    
   221  111  233 1    
   222  111  234 1    
   223  112  113 2    
   224  112  114 am   BACKBONE|DICT|INTERRES
   225  114  115 1    
   226  114  235 1    
   227  115  116 1    
   228  115  117 1    
   229  115  236 1    
   230  116  237 1    
   231  116  238 1    
   232  116  239 1    
   233  117  118 2    
   234  117  119 am   BACKBONE|DICT|INTERRES
   235  119  120 1    
   236  119  240 1    
   237  120  121 1    
   238  120  124 1    
   239  120  241 1    
   240  121  122 am   BACKBONE|DICT|INTERRES
   241  121  123 2    
   242  122  242 1    
   243  122  243 1    
   244  124  125 1    
   245  124  244 1    
   246  124  245 1    
   247  125  126 1    
   248  126  246 1    
   249  126  247 1    
@<TRIPOS>SUBSTRUCTURE
     1 UNK         1 GROUP             0       ****    0 ROOT    
