@<TRIPOS>MOLECULE
3R540
247   249    1
SMALL
USER_CHARGES


@<TRIPOS>ATOM
      1 CA          3.1832   -9.5732  -52.4050 C.3       0 UNK        -0.1800 
      2 C           3.4098  -10.5371  -51.2486 C.2       0 UNK         0.5000 
      3 O           4.4055  -10.4152  -50.5350 O.2       0 UNK        -0.5000 
      4 N           2.4934  -11.4913  -51.0622 N.am      1 UNK        -0.5000 
      5 CA          2.5209  -12.4957  -50.0026 C.3       1 UNK         0.1400 
      6 C6          3.3900  -13.7243  -50.3891 C.3       23 UNK        -0.0398 
      7 S7          4.2397  -14.4965  -48.9696 S.3       23 UNK        -0.2404 
      8 C8          3.0277  -15.7131  -48.3711 C.3       23 UNK        -0.0205 
      9 C9          2.8227  -16.8845  -49.3207 C.ar      23 UNK        -0.0193 
     10 C10         1.8141  -16.8319  -50.2843 C.ar      23 UNK        -0.1150 
     11 C11         1.5423  -17.9334  -51.0969 C.ar      23 UNK        -0.0193 
     12 C12         2.2924  -19.1029  -50.9453 C.ar      23 UNK        -0.1150 
     13 C13         3.3084  -19.1703  -49.9856 C.ar      23 UNK        -0.0193 
     14 C14         3.5775  -18.0534  -49.1857 C.ar      23 UNK        -0.1150 
     15 C15         4.1147  -20.4489  -49.8074 C.3       23 UNK        -0.0205 
     16 S16         3.7627  -21.2698  -48.2188 S.3       23 UNK        -0.2404 
     17 C17         2.0659  -21.9052  -48.4610 C.3       23 UNK        -0.0398 
     18 CA          1.8193  -23.2351  -47.6980 C.3       11 UNK         0.1400 
     19 N           2.0849  -23.0917  -46.2642 N.am      11 UNK        -0.5000 
     20 C           2.3505  -24.0975  -45.4216 C.2       10 UNK         0.5000 
     21 O           2.5797  -25.2519  -45.7896 O.2       10 UNK        -0.5000 
     22 CA          2.3178  -23.7527  -43.9181 C.3       10 UNK         0.1400 
     23 CB          3.0303  -24.7959  -43.0317 C.3       10 UNK        -0.1800 
     24 N           2.7878  -22.3951  -43.6311 N.am      10 UNK        -0.5000 
     25 C           4.0251  -21.9039  -43.7969 C.2       9 UNK         0.5000 
     26 O           4.9816  -22.5748  -44.1871 O.2       9 UNK        -0.5000 
     27 CA          4.2433  -20.4089  -43.4790 C.3       9 UNK         0.1400 
     28 CB          4.6172  -19.6362  -44.7550 C.3       9 UNK        -0.1800 
     29 N           3.0851  -19.7608  -42.8582 N.am      9 UNK        -0.5000 
     30 C           2.6899  -19.9193  -41.5880 C.2       8 UNK         0.5000 
     31 O           3.3037  -20.5947  -40.7615 O.2       8 UNK        -0.5000 
     32 CA          1.3641  -19.2423  -41.1844 C.3       8 UNK         0.1400 
     33 CB          1.6065  -17.7931  -40.7373 C.3       8 UNK        -0.1800 
     34 N           0.3556  -19.2648  -42.2489 N.am      8 UNK        -0.5000 
     35 C          -0.2076  -20.3791  -42.7403 C.2       7 UNK         0.5000 
     36 O           0.0425  -21.5102  -42.3245 O.2       7 UNK        -0.5000 
     37 CA         -1.1650  -20.2120  -43.9347 C.3       7 UNK         0.1400 
     38 CB         -2.5667  -19.7869  -43.4757 C.3       7 UNK        -0.1800 
     39 N          -0.6610  -19.2665  -44.9273 N.am      7 UNK        -0.5000 
     40 C           0.4560  -19.4531  -45.6437 C.2       6 UNK         0.5000 
     41 O           1.1536  -20.4642  -45.5703 O.2       6 UNK        -0.5000 
     42 CA          0.8796  -18.3000  -46.5682 C.3       6 UNK         0.1400 
     43 CB         -0.0148  -18.2533  -47.8141 C.3       6 UNK        -0.1800 
     44 N           0.8197  -17.0020  -45.8998 N.am      6 UNK        -0.5000 
     45 C           1.5179  -16.6520  -44.8122 C.2       5 UNK         0.5000 
     46 O           2.3498  -17.3741  -44.2687 O.2       5 UNK        -0.5000 
     47 CA          1.1872  -15.2829  -44.1960 C.3       5 UNK         0.1400 
     48 CB          1.9504  -14.1550  -44.9081 C.3       5 UNK        -0.1800 
     49 N          -0.2499  -15.0090  -44.2256 N.am      5 UNK        -0.5000 
     50 C          -1.1616  -15.6742  -43.5009 C.2       4 UNK         0.5000 
     51 O          -0.8809  -16.5582  -42.6909 O.2       4 UNK        -0.5000 
     52 CA         -2.6369  -15.3206  -43.7638 C.3       4 UNK         0.1400 
     53 CB         -3.0351  -14.0467  -43.0036 C.3       4 UNK        -0.1800 
     54 N          -2.9182  -15.1448  -45.1900 N.am      4 UNK        -0.5000 
     55 C          -2.8870  -16.1374  -46.0910 C.2       3 UNK         0.5000 
     56 O          -2.6794  -17.3136  -45.7964 O.2       3 UNK        -0.5000 
     57 CA         -3.0698  -15.7422  -47.5711 C.3       3 UNK         0.1400 
     58 CB         -4.5559  -15.7800  -47.9582 C.3       3 UNK        -0.1800 
     59 N          -2.5112  -14.4235  -47.8966 N.am      3 UNK        -0.5000 
     60 C          -1.2125  -14.1060  -47.7987 C.2       2 UNK         0.5000 
     61 O          -0.3511  -14.8922  -47.4057 O.2       2 UNK        -0.5000 
     62 CA         -0.8308  -12.6472  -48.1027 C.3       2 UNK         0.1400 
     63 CB         -1.0621  -11.7781  -46.8560 C.3       2 UNK        -0.1800 
     64 N           0.5680  -12.5015  -48.5146 N.am      2 UNK        -0.5000 
     65 C           1.0500  -12.8462  -49.7152 C.2       1 UNK         0.5000 
     66 O           0.3647  -13.3485  -50.6084 O.2       1 UNK        -0.5000 
     67 C           0.3754  -23.7573  -47.9008 C.2       11 UNK         0.5000 
     68 O          -0.3807  -23.8721  -46.9320 O.2       11 UNK        -0.5000 
     69 N          -0.0067  -24.0466  -49.1550 N.am      12 UNK        -0.5000 
     70 CA         -1.3048  -24.6230  -49.5498 C.3       12 UNK         0.1400 
     71 CB         -1.3561  -24.7301  -51.0809 C.3       12 UNK        -0.1800 
     72 C          -2.5542  -23.8831  -49.0221 C.2       12 UNK         0.5000 
     73 O          -3.5920  -24.5113  -48.8054 O.2       12 UNK        -0.5000 
     74 N          -2.4122  -22.5775  -48.7597 N.am      13 UNK        -0.5000 
     75 CA         -3.3951  -21.7197  -48.0969 C.3       13 UNK         0.1400 
     76 CB         -2.8179  -20.3056  -48.0048 C.3       13 UNK        -0.1800 
     77 C          -3.8181  -22.1964  -46.6930 C.2       13 UNK         0.5000 
     78 O          -4.9337  -21.8951  -46.2733 O.2       13 UNK        -0.5000 
     79 N          -2.9559  -22.9582  -46.0016 N.am      14 UNK        -0.5000 
     80 CA         -3.2612  -23.5826  -44.7118 C.3       14 UNK         0.1400 
     81 CB         -1.9845  -24.2123  -44.1326 C.3       14 UNK        -0.1800 
     82 C          -4.3815  -24.6383  -44.8040 C.2       14 UNK         0.5000 
     83 O          -5.1108  -24.8292  -43.8303 O.2       14 UNK        -0.5000 
     84 N          -4.5030  -25.2904  -45.9684 N.am      15 UNK        -0.5000 
     85 CA         -5.5580  -26.2527  -46.2740 C.3       15 UNK         0.1400 
     86 CB         -4.9632  -27.4077  -47.0954 C.3       15 UNK        -0.1800 
     87 C          -6.7138  -25.5861  -47.0379 C.2       15 UNK         0.5000 
     88 O          -7.8761  -25.8578  -46.7352 O.2       15 UNK        -0.5000 
     89 N          -6.3796  -24.7392  -48.0220 N.am      16 UNK        -0.5000 
     90 CA         -7.3402  -24.1202  -48.9372 C.3       16 UNK         0.1400 
     91 CB         -6.5893  -23.6268  -50.1826 C.3       16 UNK        -0.1800 
     92 C          -8.1496  -22.9610  -48.3270 C.2       16 UNK         0.5000 
     93 O          -9.2027  -22.6268  -48.8704 O.2       16 UNK        -0.5000 
     94 N          -7.6293  -22.3275  -47.2652 N.am      17 UNK        -0.5000 
     95 CA         -8.1113  -21.1174  -46.5777 C.3       17 UNK         0.1400 
     96 CB         -9.5479  -21.2879  -46.0475 C.3       17 UNK        -0.1800 
     97 C          -7.9608  -19.8220  -47.4047 C.2       17 UNK         0.5000 
     98 O          -7.6127  -18.7813  -46.8449 O.2       17 UNK        -0.5000 
     99 N          -8.2009  -19.9093  -48.7175 N.am      18 UNK        -0.5000 
    100 CA        -7.8980  -18.8932  -49.7227 C.3       18 UNK         0.1400 
    101 CB        -8.6951  -19.2345  -50.9941 C.3       18 UNK        -0.1800 
    102 C         -6.3851  -18.8184  -50.0221 C.2       18 UNK         0.5000 
    103 O         -5.6036  -19.6062  -49.4894 O.2       18 UNK        -0.5000 
    104 N         -5.9984  -17.8915  -50.9093 N.am      19 UNK        -0.5000 
    105 CA        -4.6152  -17.6496  -51.3431 C.3       19 UNK         0.1400 
    106 CB        -4.5841  -16.3447  -52.1525 C.3       19 UNK        -0.1800 
    107 C         -3.9576  -18.8065  -52.1326 C.2       19 UNK         0.5000 
    108 O         -2.7420  -18.7801  -52.3325 O.2       19 UNK        -0.5000 
    109 N         -4.7570  -19.8029  -52.5423 N.am      20 UNK        -0.5000 
    110 CA        -4.3591  -21.0690  -53.1601 C.3       20 UNK         0.1400 
    111 CB        -3.5938  -21.9428  -52.1397 C.3       20 UNK        -0.1800 
    112 C         -3.6064  -20.8609  -54.4889 C.2       20 UNK         0.5000 
    113 O         -4.2347  -20.5060  -55.4870 O.2       20 UNK        -0.5000 
    114 N         -2.2884  -21.0993  -54.4826 N.am      21 UNK        -0.5000 
    115 CA        -1.3995  -20.9640  -55.6358 C.3       21 UNK         0.1400 
    116 CB        -0.0560  -21.6313  -55.3014 C.3       21 UNK        -0.1800 
    117 C         -1.1774  -19.5050  -56.0781 C.2       21 UNK         0.5000 
    118 O         -0.8647  -19.2751  -57.2475 O.2       21 UNK        -0.5000 
    119 N         -1.3269  -18.5537  -55.1490 N.am      22 UNK        -0.5000 
    120 CA        -1.2029  -17.1158  -55.4144 C.3       22 UNK         0.1400 
    121 C         -2.5131  -16.5425  -56.0171 C.2       22 UNK         0.5000 
    122 N         -2.4197  -15.7073  -57.0428 N.am      22 UNK        -0.7600 
    123 O         -3.6110  -16.8125  -55.5368 O.2       22 UNK        -0.5000 
    124 C124       -0.8018  -16.3361  -54.1410 C.3       23 UNK        -0.0398 
    125 S125        0.8481  -16.8019  -53.5157 S.3       23 UNK        -0.2404 
    126 C126        0.4041  -17.8530  -52.0983 C.3       23 UNK        -0.0205 
    127 H127        2.2669   -9.8016  -52.9500 H         1 UNK         0.0600 
    128 H128        4.0168   -9.6249  -53.1053 H         1 UNK         0.0600 
    129 H129        3.1117   -8.5511  -52.0332 H         1 UNK         0.0600 
    130 H130        1.6812  -11.5418  -51.6640 H         1 UNK         0.3000 
    131 H131        2.9413  -12.0300  -49.1081 H         1 UNK         0.0600 
    132 H132        2.8358  -14.4576  -50.9726 H         1 UNK         0.0800 
    133 H133        4.1930  -13.4036  -51.0539 H         1 UNK         0.0800 
    134 H134        2.0780  -15.2149  -48.1831 H         1 UNK         0.0800 
    135 H135        3.3623  -16.0865  -47.4022 H         1 UNK         0.0800 
    136 H136        1.2041  -15.9445  -50.3775 H         1 UNK         0.1150 
    137 H137        2.0775  -19.9617  -51.5653 H         1 UNK         0.1150 
    138 H138        4.3517  -18.1088  -48.4332 H         1 UNK         0.1150 
    139 H139        3.9355  -21.1458  -50.6275 H         1 UNK         0.0800 
    140 H140        5.1768  -20.2029  -49.8449 H         1 UNK         0.0800 
    141 H141        1.8992  -22.0414  -49.5302 H         1 UNK         0.0800 
    142 H142        1.3642  -21.1365  -48.1389 H         1 UNK         0.0800 
    143 H143        2.4973  -23.9897  -48.1019 H         1 UNK         0.0600 
    144 H144        1.8765  -22.1745  -45.8770 H         1 UNK         0.3000 
    145 H145        1.2637  -23.7620  -43.6389 H         1 UNK         0.0600 
    146 H146        2.9826  -24.5166  -41.9792 H         1 UNK         0.0600 
    147 H147        2.5594  -25.7748  -43.1282 H         1 UNK         0.0600 
    148 H148        4.0798  -24.9125  -43.3023 H         1 UNK         0.0600 
    149 H149        2.0703  -21.7518  -43.3213 H         1 UNK         0.3000 
    150 H150        5.0844  -20.3463  -42.7858 H         1 UNK         0.0600 
    151 H151        5.4898  -20.0736  -45.2417 H         1 UNK         0.0600 
    152 H152        4.8585  -18.5971  -44.5310 H         1 UNK         0.0600 
    153 H153        3.8024  -19.6415  -45.4796 H         1 UNK         0.0600 
    154 H154        2.5649  -19.1195  -43.4505 H         1 UNK         0.3000 
    155 H155        0.9589  -19.7944  -40.3340 H         1 UNK         0.0600 
    156 H156        2.3253  -17.7523  -39.9180 H         1 UNK         0.0600 
    157 H157        0.6848  -17.3294  -40.3853 H         1 UNK         0.0600 
    158 H158        1.9996  -17.1815  -41.5493 H         1 UNK         0.0600 
    159 H159        0.0684  -18.3656  -42.6221 H         1 UNK         0.3000 
    160 H160       -1.2529  -21.1813  -44.4268 H         1 UNK         0.0600 
    161 H161       -2.5590  -18.7957  -43.0215 H         1 UNK         0.0600 
    162 H162       -2.9658  -20.4857  -42.7396 H         1 UNK         0.0600 
    163 H163       -3.2632  -19.7651  -44.3145 H         1 UNK         0.0600 
    164 H164       -1.2149  -18.4298  -45.0856 H         1 UNK         0.3000 
    165 H165        1.9117  -18.4701  -46.8786 H         1 UNK         0.0600 
    166 H166        0.1537  -17.3491  -48.3907 H         1 UNK         0.0600 
    167 H167        0.1648  -19.1060  -48.4683 H         1 UNK         0.0600 
    168 H168       -1.0686  -18.2456  -47.5533 H         1 UNK         0.0600 
    169 H169        0.2085  -16.3066  -46.3199 H         1 UNK         0.3000 
    170 H170        1.5076  -15.3007  -43.1523 H         1 UNK         0.0600 
    171 H171        3.0262  -14.3316  -44.8716 H         1 UNK         0.0600 
    172 H172        1.6712  -14.0703  -45.9577 H         1 UNK         0.0600 
    173 H173        1.7631  -13.1920  -44.4332 H         1 UNK         0.0600 
    174 H174       -0.5689  -14.3404  -44.9096 H         1 UNK         0.3000 
    175 H175       -3.2491  -16.1456  -43.3930 H         1 UNK         0.0600 
    176 H176       -2.8465  -14.1560  -41.9348 H         1 UNK         0.0600 
    177 H177       -2.4748  -13.1768  -43.3488 H         1 UNK         0.0600 
    178 H178       -4.0969  -13.8317  -43.1246 H         1 UNK         0.0600 
    179 H179       -3.1064  -14.2068  -45.5101 H         1 UNK         0.3000 
    180 H180       -2.5450  -16.4815  -48.1789 H         1 UNK         0.0600 
    181 H181       -4.9777  -16.7719  -47.7863 H         1 UNK         0.0600 
    182 H182       -5.1427  -15.0682  -47.3764 H         1 UNK         0.0600 
    183 H183       -4.6973  -15.5467  -49.0131 H         1 UNK         0.0600 
    184 H184       -3.1670  -13.7213  -48.2076 H         1 UNK         0.3000 
    185 H185       -1.4702  -12.2821  -48.9092 H         1 UNK         0.0600 
    186 H186       -2.1007  -11.8270  -46.5262 H         1 UNK         0.0600 
    187 H187       -0.4366  -12.0956  -46.0205 H         1 UNK         0.0600 
    188 H188       -0.8399  -10.7304  -47.0601 H         1 UNK         0.0600 
    189 H189        1.1930  -12.1004  -47.8312 H         1 UNK         0.3000 
    190 H190        0.6635  -23.9377  -49.9023 H         1 UNK         0.3000 
    191 H191       -1.3451  -25.6331  -49.1376 H         1 UNK         0.0600 
    192 H192       -1.2211  -23.7580  -51.5558 H         1 UNK         0.0600 
    193 H193       -2.3135  -25.1320  -51.4163 H         1 UNK         0.0600 
    194 H194       -0.5786  -25.3961  -51.4555 H         1 UNK         0.0600 
    195 H195       -1.5189  -22.1566  -48.9617 H         1 UNK         0.3000 
    196 H196       -4.2886  -21.6962  -48.7197 H         1 UNK         0.0600 
    197 H197       -3.5305  -19.6163  -47.5488 H         1 UNK         0.0600 
    198 H198       -2.5670  -19.9098  -48.9894 H         1 UNK         0.0600 
    199 H199       -1.9199  -20.3059  -47.3892 H         1 UNK         0.0600 
    200 H200       -2.0535  -23.1898  -46.4115 H         1 UNK         0.3000 
    201 H201       -3.5969  -22.7981  -44.0306 H         1 UNK         0.0600 
    202 H202       -2.1677  -24.6210  -43.1382 H         1 UNK         0.0600 
    203 H203       -1.6183  -25.0263  -44.7594 H         1 UNK         0.0600 
    204 H204       -1.1836  -23.4805  -44.0390 H         1 UNK         0.0600 
    205 H205       -3.8825  -25.0440  -46.7293 H         1 UNK         0.3000 
    206 H206       -5.9628  -26.6740  -45.3513 H         1 UNK         0.0600 
    207 H207       -4.1780  -27.9205  -46.5398 H         1 UNK         0.0600 
    208 H208       -5.7268  -28.1480  -47.3373 H         1 UNK         0.0600 
    209 H209       -4.5338  -27.0591  -48.0356 H         1 UNK         0.0600 
    210 H210       -5.3962  -24.6025  -48.2396 H         1 UNK         0.3000 
    211 H211       -8.0516  -24.8859  -49.2539 H         1 UNK         0.0600 
    212 H212       -7.2830  -23.2573  -50.9389 H         1 UNK         0.0600 
    213 H213       -6.0024  -24.4241  -50.6392 H         1 UNK         0.0600 
    214 H214       -5.9142  -22.8097  -49.9341 H         1 UNK         0.0600 
    215 H215       -6.7145  -22.6294  -46.9472 H         1 UNK         0.3000 
    216 H216       -7.4609  -21.0031  -45.7093 H         1 UNK         0.0600 
    217 H217       -9.8299  -20.4415  -45.4203 H         1 UNK         0.0600 
    218 H218       -9.6397  -22.1882  -45.4399 H         1 UNK         0.0600 
    219 H219      -10.2794  -21.3489  -46.8534 H         1 UNK         0.0600 
    220 H220       -8.5095  -20.8111  -49.0633 H         1 UNK         0.3000 
    221 H221       -8.2210  -17.9198  -49.3485 H         1 UNK         0.0600 
    222 H222       -8.3783  -20.1863  -51.4231 H         1 UNK         0.0600 
    223 H223       -9.7620  -19.3055  -50.7807 H         1 UNK         0.0600 
    224 H224       -8.5748  -18.4697  -51.7619 H         1 UNK         0.0600 
    225 H225       -6.6993  -17.2907  -51.3185 H         1 UNK         0.3000 
    226 H226       -4.0103  -17.5063  -50.4456 H         1 UNK         0.0600 
    227 H227       -3.5634  -16.0660  -52.4092 H         1 UNK         0.0600 
    228 H228       -5.1432  -16.4375  -53.0844 H         1 UNK         0.0600 
    229 H229       -5.0075  -15.5150  -51.5863 H         1 UNK         0.0600 
    230 H230       -5.7437  -19.7008  -52.3598 H         1 UNK         0.3000 
    231 H231       -5.2825  -21.5937  -53.4096 H         1 UNK         0.0600 
    232 H232       -4.1968  -22.1153  -51.2508 H         1 UNK         0.0600 
    233 H233       -2.6622  -21.4835  -51.8079 H         1 UNK         0.0600 
    234 H234       -3.3581  -22.9202  -52.5616 H         1 UNK         0.0600 
    235 H235       -1.8575  -21.3630  -53.6092 H         1 UNK         0.3000 
    236 H236       -1.8486  -21.4983  -56.4756 H         1 UNK         0.0600 
    237 H237       -0.1881  -22.6849  -55.0543 H         1 UNK         0.0600 
    238 H238        0.6270  -21.5811  -56.1504 H         1 UNK         0.0600 
    239 H239        0.4348  -21.1457  -54.4568 H         1 UNK         0.0600 
    240 H240       -1.6581  -18.8106  -54.2266 H         1 UNK         0.3000 
    241 H241       -0.4049  -16.9720  -56.1461 H         1 UNK         0.0600 
    242 H242       -1.5296  -15.4661  -57.4515 H         1 UNK         0.3800 
    243 H243       -3.2635  -15.3166  -57.4329 H         1 UNK         0.3800 
    244 H244       -0.7734  -15.2648  -54.3480 H         1 UNK         0.0800 
    245 H245       -1.5474  -16.4693  -53.3586 H         1 UNK         0.0800 
    246 H246        0.1235  -18.8450  -52.4550 H         1 UNK         0.0800 
    247 H247       -0.4714  -17.4477  -51.5888 H         1 UNK         0.0800 
@<TRIPOS>BOND
     1    1    2 1    
     2    1  127 1    
     3    1  128 1    
     4    1  129 1    
     5    2    3 2    
     6    2    4 am   BACKBONE|DICT|INTERRES
     7    4    5 1    
     8    4  130 1    
     9    5    6 1    
    10    5   65 1    
    11    5  131 1    
    12    6    7 1    
    13    6  132 1    
    14    6  133 1    
    15    7    8 1    
    16    8    9 1    
    17    8  134 1    
    18    8  135 1    
    19    9   10 ar   
    20    9   14 ar   
    21   10   11 ar   
    22   10  136 1    
    23   11   12 ar   
    24   11  126 1    
    25   12   13 ar   
    26   12  137 1    
    27   13   14 ar   
    28   13   15 1    
    29   14  138 1    
    30   15   16 1    
    31   15  139 1    
    32   15  140 1    
    33   16   17 1    
    34   17   18 1    
    35   17  141 1    
    36   17  142 1    
    37   18   19 1    
    38   18   67 1    
    39   18  143 1    
    40   19   20 am   BACKBONE|DICT|INTERRES
    41   19  144 1    
    42   20   21 2    
    43   20   22 1    
    44   22   23 1    
    45   22   24 1    
    46   22  145 1    
    47   23  146 1    
    48   23  147 1    
    49   23  148 1    
    50   24   25 am   BACKBONE|DICT|INTERRES
    51   24  149 1    
    52   25   26 2    
    53   25   27 1    
    54   27   28 1    
    55   27   29 1    
    56   27  150 1    
    57   28  151 1    
    58   28  152 1    
    59   28  153 1    
    60   29   30 am   BACKBONE|DICT|INTERRES
    61   29  154 1    
    62   30   31 2    
    63   30   32 1    
    64   32   33 1    
    65   32   34 1    
    66   32  155 1    
    67   33  156 1    
    68   33  157 1    
    69   33  158 1    
    70   34   35 am   BACKBONE|DICT|INTERRES
    71   34  159 1    
    72   35   36 2    
    73   35   37 1    
    74   37   38 1    
    75   37   39 1    
    76   37  160 1    
    77   38  161 1    
    78   38  162 1    
    79   38  163 1    
    80   39   40 am   BACKBONE|DICT|INTERRES
    81   39  164 1    
    82   40   41 2    
    83   40   42 1    
    84   42   43 1    
    85   42   44 1    
    86   42  165 1    
    87   43  166 1    
    88   43  167 1    
    89   43  168 1    
    90   44   45 am   BACKBONE|DICT|INTERRES
    91   44  169 1    
    92   45   46 2    
    93   45   47 1    
    94   47   48 1    
    95   47   49 1    
    96   47  170 1    
    97   48  171 1    
    98   48  172 1    
    99   48  173 1    
   100   49   50 am   BACKBONE|DICT|INTERRES
   101   49  174 1    
   102   50   51 2    
   103   50   52 1    
   104   52   53 1    
   105   52   54 1    
   106   52  175 1    
   107   53  176 1    
   108   53  177 1    
   109   53  178 1    
   110   54   55 am   BACKBONE|DICT|INTERRES
   111   54  179 1    
   112   55   56 2    
   113   55   57 1    
   114   57   58 1    
   115   57   59 1    
   116   57  180 1    
   117   58  181 1    
   118   58  182 1    
   119   58  183 1    
   120   59   60 am   BACKBONE|DICT|INTERRES
   121   59  184 1    
   122   60   61 2    
   123   60   62 1    
   124   62   63 1    
   125   62   64 1    
   126   62  185 1    
   127   63  186 1    
   128   63  187 1    
   129   63  188 1    
   130   64   65 am   BACKBONE|DICT|INTERRES
   131   64  189 1    
   132   65   66 2    
   133   67   68 2    
   134   67   69 am   BACKBONE|DICT|INTERRES
   135   69   70 1    
   136   69  190 1    
   137   70   71 1    
   138   70   72 1    
   139   70  191 1    
   140   71  192 1    
   141   71  193 1    
   142   71  194 1    
   143   72   73 2    
   144   72   74 am   BACKBONE|DICT|INTERRES
   145   74   75 1    
   146   74  195 1    
   147   75   76 1    
   148   75   77 1    
   149   75  196 1    
   150   76  197 1    
   151   76  198 1    
   152   76  199 1    
   153   77   78 2    
   154   77   79 am   BACKBONE|DICT|INTERRES
   155   79   80 1    
   156   79  200 1    
   157   80   81 1    
   158   80   82 1    
   159   80  201 1    
   160   81  202 1    
   161   81  203 1    
   162   81  204 1    
   163   82   83 2    
   164   82   84 am   BACKBONE|DICT|INTERRES
   165   84   85 1    
   166   84  205 1    
   167   85   86 1    
   168   85   87 1    
   169   85  206 1    
   170   86  207 1    
   171   86  208 1    
   172   86  209 1    
   173   87   88 2    
   174   87   89 am   BACKBONE|DICT|INTERRES
   175   89   90 1    
   176   89  210 1    
   177   90   91 1    
   178   90   92 1    
   179   90  211 1    
   180   91  212 1    
   181   91  213 1    
   182   91  214 1    
   183   92   93 2    
   184   92   94 am   BACKBONE|DICT|INTERRES
   185   94   95 1    
   186   94  215 1    
   187   95   96 1    
   188   95   97 1    
   189   95  216 1    
   190   96  217 1    
   191   96  218 1    
   192   96  219 1    
   193   97   98 2    
   194   97   99 am   BACKBONE|DICT|INTERRES
   195   99  100 1    
   196   99  220 1    
   197  100  101 1    
   198  100  102 1    
   199  100  221 1    
   200  101  222 1    
   201  101  223 1    
   202  101  224 1    
   203  102  103 2    
   204  102  104 am   BACKBONE|DICT|INTERRES
   205  104  105 1    
   206  104  225 1    
   207  105  106 1    
   208  105  107 1    
   209  105  226 1    
   210  106  227 1    
   211  106  228 1    
   212  106  229 1    
   213  107  108 2    
   214  107  109 am   BACKBONE|DICT|INTERRES
   215  109  110 1    
   216  109  230 1    
   217  110  111 1    
   218  110  112 1    
   219  110  231 1    
   220  111  232 1    
   221  111  233 1    
   222  111  234 1    
   223  112  113 2    
   224  112  114 am   BACKBONE|DICT|INTERRES
   225  114  115 1    
   226  114  235 1    
   227  115  116 1    
   228  115  117 1    
   229  115  236 1    
   230  116  237 1    
   231  116  238 1    
   232  116  239 1    
   233  117  118 2    
   234  117  119 am   BACKBONE|DICT|INTERRES
   235  119  120 1    
   236  119  240 1    
   237  120  121 1    
   238  120  124 1    
   239  120  241 1    
   240  121  122 am   BACKBONE|DICT|INTERRES
   241  121  123 2    
   242  122  242 1    
   243  122  243 1    
   244  124  125 1    
   245  124  244 1    
   246  124  245 1    
   247  125  126 1    
   248  126  246 1    
   249  126  247 1    
@<TRIPOS>SUBSTRUCTURE
     1 UNK         1 GROUP             0       ****    0 ROOT    
