@<TRIPOS>MOLECULE
3R540
247   249    1
SMALL
USER_CHARGES


@<TRIPOS>ATOM
      1 CA          4.1787  -14.7301  -45.7770 C.3       0 UNK        -0.1800 
      2 C           4.6410  -13.7053  -46.8114 C.2       0 UNK         0.5000 
      3 O           5.8444  -13.5323  -46.9894 O.2       0 UNK        -0.5000 
      4 N           3.7426  -13.0092  -47.5228 N.am      1 UNK        -0.5000 
      5 CA          2.2837  -13.0405  -47.3709 C.3       1 UNK         0.1400 
      6 C6          1.5549  -12.6529  -48.6920 C.3       23 UNK        -0.0398 
      7 S7          0.3607  -13.9252  -49.2098 S.3       23 UNK        -0.2404 
      8 C8          1.3881  -14.9188  -50.3357 C.3       23 UNK        -0.0205 
      9 C9          0.8643  -16.3412  -50.4581 C.ar      23 UNK        -0.0193 
     10 C10        -0.2796  -16.6113  -51.2124 C.ar      23 UNK        -0.1150 
     11 C11        -0.7548  -17.9208  -51.3420 C.ar      23 UNK        -0.0193 
     12 C12        -0.0815  -18.9598  -50.6925 C.ar      23 UNK        -0.1150 
     13 C13         1.0596  -18.7061  -49.9180 C.ar      23 UNK        -0.0193 
     14 C14         1.5240  -17.3912  -49.8138 C.ar      23 UNK        -0.1150 
     15 C15         1.8300  -19.7944  -49.1659 C.3       23 UNK        -0.0205 
     16 S16         1.3335  -21.5230  -49.4852 S.3       23 UNK        -0.2404 
     17 C17        -0.1953  -21.6705  -48.5019 C.3       23 UNK        -0.0398 
     18 CA         -0.2610  -23.0165  -47.7446 C.3       11 UNK         0.1400 
     19 N           0.7684  -23.1464  -46.7087 N.am      11 UNK        -0.5000 
     20 C           1.1177  -24.3086  -46.1393 C.2       10 UNK         0.5000 
     21 O           0.6038  -25.3900  -46.4232 O.2       10 UNK        -0.5000 
     22 CA          2.1870  -24.2430  -45.0346 C.3       10 UNK         0.1400 
     23 CB          3.5880  -24.0758  -45.6422 C.3       10 UNK        -0.1800 
     24 N           1.9374  -23.1636  -44.0792 N.am      10 UNK        -0.5000 
     25 C           0.8769  -23.1045  -43.2612 C.2       9 UNK         0.5000 
     26 O           0.0094  -23.9748  -43.2010 O.2       9 UNK        -0.5000 
     27 CA          0.7329  -21.8323  -42.4044 C.3       9 UNK         0.1400 
     28 CB          1.5036  -21.9816  -41.0844 C.3       9 UNK        -0.1800 
     29 N           1.1665  -20.6075  -43.0856 N.am      9 UNK        -0.5000 
     30 C           0.6545  -20.1529  -44.2362 C.2       8 UNK         0.5000 
     31 O          -0.2143  -20.7466  -44.8846 O.2       8 UNK        -0.5000 
     32 CA          1.2314  -18.8374  -44.7738 C.3       8 UNK         0.1400 
     33 CB          2.6348  -19.0532  -45.3717 C.3       8 UNK        -0.1800 
     34 N           0.2987  -18.3480  -45.7802 N.am      8 UNK        -0.5000 
     35 C           0.2119  -17.1005  -46.2467 C.2       7 UNK         0.5000 
     36 O           1.0341  -16.2215  -45.9861 O.2       7 UNK        -0.5000 
     37 CA         -0.9923  -16.7775  -47.1619 C.3       7 UNK         0.1400 
     38 CB         -2.1498  -17.7943  -47.0685 C.3       7 UNK        -0.1800 
     39 N          -1.4836  -15.4105  -46.9722 N.am      7 UNK        -0.5000 
     40 C          -1.9345  -14.8709  -45.8346 C.2       6 UNK         0.5000 
     41 O          -2.1019  -15.4980  -44.7836 O.2       6 UNK        -0.5000 
     42 CA         -2.2490  -13.3694  -45.8732 C.3       6 UNK         0.1400 
     43 CB         -3.7171  -13.1088  -46.2507 C.3       6 UNK        -0.1800 
     44 N          -1.9636  -12.8555  -44.5448 N.am      6 UNK        -0.5000 
     45 C          -1.6954  -11.5931  -44.2003 C.2       5 UNK         0.5000 
     46 O          -1.7842  -10.6272  -44.9582 O.2       5 UNK        -0.5000 
     47 CA         -1.1646  -11.4144  -42.7720 C.3       5 UNK         0.1400 
     48 CB         -2.3155  -11.6273  -41.7640 C.3       5 UNK        -0.1800 
     49 N          -0.0507  -12.3575  -42.6214 N.am      5 UNK        -0.5000 
     50 C           0.4718  -12.9282  -41.5279 C.2       4 UNK         0.5000 
     51 O           0.0754  -12.7529  -40.3760 O.2       4 UNK        -0.5000 
     52 CA          1.6904  -13.8310  -41.7819 C.3       4 UNK         0.1400 
     53 CB          1.3173  -15.0644  -42.6240 C.3       4 UNK        -0.1800 
     54 N           2.7248  -13.0618  -42.4689 N.am      4 UNK        -0.5000 
     55 C           3.6536  -12.3225  -41.8458 C.2       3 UNK         0.5000 
     56 O           3.8426  -12.3400  -40.6290 O.2       3 UNK        -0.5000 
     57 CA          4.5015  -11.3827  -42.7265 C.3       3 UNK         0.1400 
     58 CB          5.7969  -12.0794  -43.1698 C.3       3 UNK        -0.1800 
     59 N           3.7838  -10.9055  -43.9103 N.am      3 UNK        -0.5000 
     60 C           2.7049  -10.1083  -43.8886 C.2       2 UNK         0.5000 
     61 O           2.2398   -9.6128  -42.8623 O.2       2 UNK        -0.5000 
     62 CA          2.0103   -9.8411  -45.2379 C.3       2 UNK         0.1400 
     63 CB          2.4209   -8.4685  -45.7918 C.3       2 UNK        -0.1800 
     64 N           2.2781  -10.8644  -46.2537 N.am      2 UNK        -0.5000 
     65 C           1.8690  -12.1403  -46.1913 C.2       1 UNK         0.5000 
     66 O           1.2651  -12.6163  -45.2288 O.2       1 UNK        -0.5000 
     67 C          -1.6741  -23.2549  -47.1831 C.2       11 UNK         0.5000 
     68 O          -2.5211  -23.7841  -47.9032 O.2       11 UNK        -0.5000 
     69 N          -1.9068  -22.8803  -45.9184 N.am      12 UNK        -0.5000 
     70 CA         -3.1426  -23.1661  -45.1930 C.3       12 UNK         0.1400 
     71 CB         -3.1760  -22.3583  -43.8875 C.3       12 UNK        -0.1800 
     72 C          -3.3155  -24.6727  -44.9269 C.2       12 UNK         0.5000 
     73 O          -4.3901  -25.2119  -45.1904 O.2       12 UNK        -0.5000 
     74 N          -2.2456  -25.3312  -44.4564 N.am      13 UNK        -0.5000 
     75 CA         -2.1997  -26.7714  -44.1904 C.3       13 UNK         0.1400 
     76 CB         -0.8990  -27.1155  -43.4492 C.3       13 UNK        -0.1800 
     77 C          -2.3407  -27.6275  -45.4626 C.2       13 UNK         0.5000 
     78 O          -3.0425  -28.6391  -45.4394 O.2       13 UNK        -0.5000 
     79 N          -1.6951  -27.1952  -46.5544 N.am      14 UNK        -0.5000 
     80 CA         -1.7673  -27.8322  -47.8722 C.3       14 UNK         0.1400 
     81 CB         -0.5906  -27.3321  -48.7258 C.3       14 UNK        -0.1800 
     82 C          -3.0972  -27.5797  -48.6116 C.2       14 UNK         0.5000 
     83 O          -3.3591  -28.2467  -49.6126 O.2       14 UNK        -0.5000 
     84 N          -3.8816  -26.5992  -48.1380 N.am      15 UNK        -0.5000 
     85 CA         -5.1127  -26.0574  -48.7281 C.3       15 UNK         0.1400 
     86 CB         -6.2073  -27.1351  -48.8611 C.3       15 UNK        -0.1800 
     87 C          -4.8804  -25.2834  -50.0439 C.2       15 UNK         0.5000 
     88 O          -5.8428  -24.9393  -50.7300 O.2       15 UNK        -0.5000 
     89 N          -3.6156  -24.9591  -50.3429 N.am      16 UNK        -0.5000 
     90 CA         -3.1821  -24.1208  -51.4594 C.3       16 UNK         0.1400 
     91 CB         -1.6481  -24.1519  -51.5349 C.3       16 UNK        -0.1800 
     92 C          -3.6854  -22.6731  -51.3310 C.2       16 UNK         0.5000 
     93 O          -3.9944  -22.0443  -52.3433 O.2       16 UNK        -0.5000 
     94 N          -3.7935  -22.1903  -50.0849 N.am      17 UNK        -0.5000 
     95 CA         -4.3727  -20.8929  -49.7414 C.3       17 UNK         0.1400 
     96 CB         -4.0927  -20.5938  -48.2620 C.3       17 UNK        -0.1800 
     97 C          -5.8858  -20.8399  -50.0184 C.2       17 UNK         0.5000 
     98 O          -6.3725  -19.8430  -50.5503 O.2       17 UNK        -0.5000 
     99 N          -6.5922  -21.9257  -49.6716 N.am      18 UNK        -0.5000 
    100 CA        -8.0338  -22.0838  -49.8723 C.3       18 UNK         0.1400 
    101 CB        -8.5405  -23.2632  -49.0275 C.3       18 UNK        -0.1800 
    102 C         -8.3973  -22.2738  -51.3551 C.2       18 UNK         0.5000 
    103 O         -9.3874  -21.7072  -51.8188 O.2       18 UNK        -0.5000 
    104 N         -7.5698  -23.0420  -52.0762 N.am      19 UNK        -0.5000 
    105 CA        -7.6743  -23.2623  -53.5192 C.3       19 UNK         0.1400 
    106 CB        -6.7910  -24.4621  -53.8965 C.3       19 UNK        -0.1800 
    107 C         -7.2776  -22.0315  -54.3594 C.2       19 UNK         0.5000 
    108 O         -7.6331  -21.9734  -55.5370 O.2       19 UNK        -0.5000 
    109 N         -6.5312  -21.0961  -53.7506 N.am      20 UNK        -0.5000 
    110 CA        -5.8955  -19.9227  -54.3588 C.3       20 UNK         0.1400 
    111 CB        -6.9479  -18.9108  -54.8555 C.3       20 UNK        -0.1800 
    112 C         -4.8734  -20.3263  -55.4416 C.2       20 UNK         0.5000 
    113 O         -4.8024  -19.7076  -56.5059 O.2       20 UNK        -0.5000 
    114 N         -4.0901  -21.3718  -55.1381 N.am      21 UNK        -0.5000 
    115 CA        -3.1083  -21.9962  -56.0303 C.3       21 UNK         0.1400 
    116 CB        -2.6035  -23.2914  -55.3786 C.3       21 UNK        -0.1800 
    117 C         -1.9287  -21.0759  -56.4014 C.2       21 UNK         0.5000 
    118 O         -1.2546  -21.3225  -57.4022 O.2       21 UNK        -0.5000 
    119 N         -1.7218  -20.0225  -55.6037 N.am      22 UNK        -0.5000 
    120 CA        -0.8197  -18.9000  -55.8855 C.3       22 UNK         0.1400 
    121 C         -1.2691  -17.9753  -57.0593 C.2       22 UNK         0.5000 
    122 N         -2.5030  -18.0557  -57.5470 N.am      22 UNK        -0.7600 
    123 O         -0.4736  -17.1762  -57.5460 O.2       22 UNK        -0.5000 
    124 C124       -0.5217  -18.0910  -54.5976 C.3       23 UNK        -0.0398 
    125 S125       -2.0185  -17.4034  -53.7950 S.3       23 UNK        -0.2404 
    126 C126       -2.0016  -18.2283  -52.1675 C.3       23 UNK        -0.0205 
    127 H127        3.4803  -14.2980  -45.0624 H         1 UNK         0.0600 
    128 H128        5.0284  -15.1163  -45.2139 H         1 UNK         0.0600 
    129 H129        3.6958  -15.5742  -46.2691 H         1 UNK         0.0600 
    130 H130        4.0933  -12.3572  -48.2097 H         1 UNK         0.3000 
    131 H131        1.9974  -14.0582  -47.1038 H         1 UNK         0.0600 
    132 H132        2.2632  -12.4952  -49.5068 H         1 UNK         0.0800 
    133 H133        1.0108  -11.7098  -48.6103 H         1 UNK         0.0800 
    134 H134        1.4105  -14.4459  -51.3186 H         1 UNK         0.0800 
    135 H135        2.4182  -14.9323  -49.9756 H         1 UNK         0.0800 
    136 H136       -0.7971  -15.7986  -51.7024 H         1 UNK         0.1150 
    137 H137       -0.4583  -19.9648  -50.8010 H         1 UNK         0.1150 
    138 H138        2.4026  -17.1826  -49.2188 H         1 UNK         0.1150 
    139 H139        1.7547  -19.5942  -48.0990 H         1 UNK         0.0800 
    140 H140        2.8871  -19.7057  -49.4204 H         1 UNK         0.0800 
    141 H141       -1.0325  -21.5797  -49.1957 H         1 UNK         0.0800 
    142 H142       -0.2793  -20.8344  -47.8062 H         1 UNK         0.0800 
    143 H143       -0.0861  -23.8114  -48.4726 H         1 UNK         0.0600 
    144 H144        1.2031  -22.2940  -46.3900 H         1 UNK         0.3000 
    145 H145        2.1613  -25.1894  -44.4900 H         1 UNK         0.0600 
    146 H146        3.8029  -24.8759  -46.3517 H         1 UNK         0.0600 
    147 H147        4.3582  -24.1112  -44.8715 H         1 UNK         0.0600 
    148 H148        3.6890  -23.1291  -46.1746 H         1 UNK         0.0600 
    149 H149        2.5997  -22.4025  -44.0630 H         1 UNK         0.3000 
    150 H150       -0.3264  -21.7172  -42.1671 H         1 UNK         0.0600 
    151 H151        2.5783  -22.0627  -41.2516 H         1 UNK         0.0600 
    152 H152        1.1865  -22.8761  -40.5463 H         1 UNK         0.0600 
    153 H153        1.3286  -21.1301  -40.4265 H         1 UNK         0.0600 
    154 H154        1.8842  -20.0689  -42.6224 H         1 UNK         0.3000 
    155 H155        1.2806  -18.1122  -43.9588 H         1 UNK         0.0600 
    156 H156        2.6596  -19.9000  -46.0569 H         1 UNK         0.0600 
    157 H157        3.3612  -19.2573  -44.5846 H         1 UNK         0.0600 
    158 H158        2.9861  -18.1727  -45.9095 H         1 UNK         0.0600 
    159 H159       -0.4307  -19.0161  -45.9966 H         1 UNK         0.3000 
    160 H160       -0.6168  -16.8164  -48.1813 H         1 UNK         0.0600 
    161 H161       -2.5392  -17.8823  -46.0536 H         1 UNK         0.0600 
    162 H162       -1.8234  -18.7823  -47.3898 H         1 UNK         0.0600 
    163 H163       -2.9755  -17.5055  -47.7187 H         1 UNK         0.0600 
    164 H164       -1.3319  -14.7988  -47.7633 H         1 UNK         0.3000 
    165 H165       -1.5867  -12.8829  -46.5929 H         1 UNK         0.0600 
    166 H166       -3.9424  -13.5119  -47.2387 H         1 UNK         0.0600 
    167 H167       -4.4017  -13.5740  -45.5404 H         1 UNK         0.0600 
    168 H168       -3.9365  -12.0414  -46.2776 H         1 UNK         0.0600 
    169 H169       -1.8411  -13.5882  -43.8558 H         1 UNK         0.3000 
    170 H170       -0.7730  -10.4010  -42.6696 H         1 UNK         0.0600 
    171 H171       -2.6265  -12.6713  -41.7137 H         1 UNK         0.0600 
    172 H172       -3.1907  -11.0372  -42.0394 H         1 UNK         0.0600 
    173 H173       -2.0307  -11.3104  -40.7611 H         1 UNK         0.0600 
    174 H174        0.3919  -12.5804  -43.5106 H         1 UNK         0.3000 
    175 H175        2.0647  -14.1841  -40.8185 H         1 UNK         0.0600 
    176 H176        0.5430  -15.6534  -42.1311 H         1 UNK         0.0600 
    177 H177        0.9409  -14.7931  -43.6108 H         1 UNK         0.0600 
    178 H178        2.1790  -15.7160  -42.7692 H         1 UNK         0.0600 
    179 H179        2.6067  -12.9454  -43.4660 H         1 UNK         0.3000 
    180 H180        4.7689  -10.5137  -42.1218 H         1 UNK         0.0600 
    181 H181        5.5943  -12.9553  -43.7864 H         1 UNK         0.0600 
    182 H182        6.3745  -12.4134  -42.3068 H         1 UNK         0.0600 
    183 H183        6.4327  -11.4046  -43.7432 H         1 UNK         0.0600 
    184 H184        4.1098  -11.2389  -44.8048 H         1 UNK         0.3000 
    185 H185        0.9346   -9.8266  -45.0519 H         1 UNK         0.0600 
    186 H186        2.2081   -7.6769  -45.0720 H         1 UNK         0.0600 
    187 H187        3.4870   -8.4282  -46.0185 H         1 UNK         0.0600 
    188 H188        1.8729   -8.2310  -46.7038 H         1 UNK         0.0600 
    189 H189        2.8036  -10.5600  -47.0603 H         1 UNK         0.3000 
    190 H190       -1.1836  -22.3763  -45.4147 H         1 UNK         0.3000 
    191 H191       -3.9813  -22.8396  -45.8107 H         1 UNK         0.0600 
    192 H192       -3.0835  -21.2898  -44.0836 H         1 UNK         0.0600 
    193 H193       -4.1167  -22.5134  -43.3581 H         1 UNK         0.0600 
    194 H194       -2.3697  -22.6448  -43.2131 H         1 UNK         0.0600 
    195 H195       -1.4069  -24.8055  -44.2257 H         1 UNK         0.3000 
    196 H196       -3.0377  -27.0153  -43.5341 H         1 UNK         0.0600 
    197 H197       -0.8408  -28.1831  -43.2335 H         1 UNK         0.0600 
    198 H198       -0.8375  -26.5880  -42.4972 H         1 UNK         0.0600 
    199 H199       -0.0190  -26.8489  -44.0359 H         1 UNK         0.0600 
    200 H200       -1.0720  -26.3966  -46.4706 H         1 UNK         0.3000 
    201 H201       -1.6626  -28.9113  -47.7431 H         1 UNK         0.0600 
    202 H202       -0.5843  -27.8086  -49.7070 H         1 UNK         0.0600 
    203 H203        0.3645  -27.5575  -48.2510 H         1 UNK         0.0600 
    204 H204       -0.6392  -26.2542  -48.8844 H         1 UNK         0.0600 
    205 H205       -3.5597  -26.1119  -47.3118 H         1 UNK         0.3000 
    206 H206       -5.4737  -25.3167  -48.0132 H         1 UNK         0.0600 
    207 H207       -6.3520  -27.6679  -47.9213 H         1 UNK         0.0600 
    208 H208       -7.1646  -26.6870  -49.1297 H         1 UNK         0.0600 
    209 H209       -5.9672  -27.8681  -49.6314 H         1 UNK         0.0600 
    210 H210       -2.9084  -25.2088  -49.6662 H         1 UNK         0.3000 
    211 H211       -3.5884  -24.5384  -52.3825 H         1 UNK         0.0600 
    212 H212       -1.2747  -23.5111  -52.3333 H         1 UNK         0.0600 
    213 H213       -1.2845  -25.1610  -51.7300 H         1 UNK         0.0600 
    214 H214       -1.1930  -23.8067  -50.6072 H         1 UNK         0.0600 
    215 H215       -3.5028  -22.7856  -49.3158 H         1 UNK         0.3000 
    216 H216       -3.8859  -20.1273  -50.3493 H         1 UNK         0.0600 
    217 H217       -3.0259  -20.6185  -48.0501 H         1 UNK         0.0600 
    218 H218       -4.5769  -21.3169  -47.6053 H         1 UNK         0.0600 
    219 H219       -4.4603  -19.6046  -47.9872 H         1 UNK         0.0600 
    220 H220       -6.1026  -22.7127  -49.2751 H         1 UNK         0.3000 
    221 H221       -8.5294  -21.1764  -49.5203 H         1 UNK         0.0600 
    222 H222       -8.0789  -24.2047  -49.3261 H         1 UNK         0.0600 
    223 H223       -8.3326  -23.1084  -47.9687 H         1 UNK         0.0600 
    224 H224       -9.6198  -23.3809  -49.1324 H         1 UNK         0.0600 
    225 H225       -6.8261  -23.5420  -51.5960 H         1 UNK         0.3000 
    226 H226       -8.7111  -23.5077  -53.7577 H         1 UNK         0.0600 
    227 H227       -7.0883  -25.3583  -53.3516 H         1 UNK         0.0600 
    228 H228       -6.8679  -24.6878  -54.9609 H         1 UNK         0.0600 
    229 H229       -5.7403  -24.2699  -53.6764 H         1 UNK         0.0600 
    230 H230       -6.2772  -21.2686  -52.7875 H         1 UNK         0.3000 
    231 H231       -5.3239  -19.4403  -53.5644 H         1 UNK         0.0600 
    232 H232       -7.5217  -19.2987  -55.6975 H         1 UNK         0.0600 
    233 H233       -6.4726  -17.9857  -55.1837 H         1 UNK         0.0600 
    234 H234       -7.6488  -18.6517  -54.0619 H         1 UNK         0.0600 
    235 H235       -4.1713  -21.7690  -54.2052 H         1 UNK         0.3000 
    236 H236       -3.6222  -22.2561  -56.9578 H         1 UNK         0.0600 
    237 H237       -2.0728  -23.0848  -54.4503 H         1 UNK         0.0600 
    238 H238       -3.4268  -23.9696  -55.1532 H         1 UNK         0.0600 
    239 H239       -1.9162  -23.8210  -56.0395 H         1 UNK         0.0600 
    240 H240       -2.3378  -19.9007  -54.8144 H         1 UNK         0.3000 
    241 H241        0.1276  -19.3346  -56.2103 H         1 UNK         0.0600 
    242 H242       -2.7709  -17.4533  -58.3088 H         1 UNK         0.3800 
    243 H243       -3.1872  -18.6927  -57.1527 H         1 UNK         0.3800 
    244 H244        0.0077  -18.7317  -53.8915 H         1 UNK         0.0800 
    245 H245        0.1642  -17.2688  -54.8088 H         1 UNK         0.0800 
    246 H246       -2.8782  -17.9069  -51.6037 H         1 UNK         0.0800 
    247 H247       -2.1113  -19.3033  -52.3209 H         1 UNK         0.0800 
@<TRIPOS>BOND
     1    1    2 1    
     2    1  127 1    
     3    1  128 1    
     4    1  129 1    
     5    2    3 2    
     6    2    4 am   BACKBONE|DICT|INTERRES
     7    4    5 1    
     8    4  130 1    
     9    5    6 1    
    10    5   65 1    
    11    5  131 1    
    12    6    7 1    
    13    6  132 1    
    14    6  133 1    
    15    7    8 1    
    16    8    9 1    
    17    8  134 1    
    18    8  135 1    
    19    9   10 ar   
    20    9   14 ar   
    21   10   11 ar   
    22   10  136 1    
    23   11   12 ar   
    24   11  126 1    
    25   12   13 ar   
    26   12  137 1    
    27   13   14 ar   
    28   13   15 1    
    29   14  138 1    
    30   15   16 1    
    31   15  139 1    
    32   15  140 1    
    33   16   17 1    
    34   17   18 1    
    35   17  141 1    
    36   17  142 1    
    37   18   19 1    
    38   18   67 1    
    39   18  143 1    
    40   19   20 am   BACKBONE|DICT|INTERRES
    41   19  144 1    
    42   20   21 2    
    43   20   22 1    
    44   22   23 1    
    45   22   24 1    
    46   22  145 1    
    47   23  146 1    
    48   23  147 1    
    49   23  148 1    
    50   24   25 am   BACKBONE|DICT|INTERRES
    51   24  149 1    
    52   25   26 2    
    53   25   27 1    
    54   27   28 1    
    55   27   29 1    
    56   27  150 1    
    57   28  151 1    
    58   28  152 1    
    59   28  153 1    
    60   29   30 am   BACKBONE|DICT|INTERRES
    61   29  154 1    
    62   30   31 2    
    63   30   32 1    
    64   32   33 1    
    65   32   34 1    
    66   32  155 1    
    67   33  156 1    
    68   33  157 1    
    69   33  158 1    
    70   34   35 am   BACKBONE|DICT|INTERRES
    71   34  159 1    
    72   35   36 2    
    73   35   37 1    
    74   37   38 1    
    75   37   39 1    
    76   37  160 1    
    77   38  161 1    
    78   38  162 1    
    79   38  163 1    
    80   39   40 am   BACKBONE|DICT|INTERRES
    81   39  164 1    
    82   40   41 2    
    83   40   42 1    
    84   42   43 1    
    85   42   44 1    
    86   42  165 1    
    87   43  166 1    
    88   43  167 1    
    89   43  168 1    
    90   44   45 am   BACKBONE|DICT|INTERRES
    91   44  169 1    
    92   45   46 2    
    93   45   47 1    
    94   47   48 1    
    95   47   49 1    
    96   47  170 1    
    97   48  171 1    
    98   48  172 1    
    99   48  173 1    
   100   49   50 am   BACKBONE|DICT|INTERRES
   101   49  174 1    
   102   50   51 2    
   103   50   52 1    
   104   52   53 1    
   105   52   54 1    
   106   52  175 1    
   107   53  176 1    
   108   53  177 1    
   109   53  178 1    
   110   54   55 am   BACKBONE|DICT|INTERRES
   111   54  179 1    
   112   55   56 2    
   113   55   57 1    
   114   57   58 1    
   115   57   59 1    
   116   57  180 1    
   117   58  181 1    
   118   58  182 1    
   119   58  183 1    
   120   59   60 am   BACKBONE|DICT|INTERRES
   121   59  184 1    
   122   60   61 2    
   123   60   62 1    
   124   62   63 1    
   125   62   64 1    
   126   62  185 1    
   127   63  186 1    
   128   63  187 1    
   129   63  188 1    
   130   64   65 am   BACKBONE|DICT|INTERRES
   131   64  189 1    
   132   65   66 2    
   133   67   68 2    
   134   67   69 am   BACKBONE|DICT|INTERRES
   135   69   70 1    
   136   69  190 1    
   137   70   71 1    
   138   70   72 1    
   139   70  191 1    
   140   71  192 1    
   141   71  193 1    
   142   71  194 1    
   143   72   73 2    
   144   72   74 am   BACKBONE|DICT|INTERRES
   145   74   75 1    
   146   74  195 1    
   147   75   76 1    
   148   75   77 1    
   149   75  196 1    
   150   76  197 1    
   151   76  198 1    
   152   76  199 1    
   153   77   78 2    
   154   77   79 am   BACKBONE|DICT|INTERRES
   155   79   80 1    
   156   79  200 1    
   157   80   81 1    
   158   80   82 1    
   159   80  201 1    
   160   81  202 1    
   161   81  203 1    
   162   81  204 1    
   163   82   83 2    
   164   82   84 am   BACKBONE|DICT|INTERRES
   165   84   85 1    
   166   84  205 1    
   167   85   86 1    
   168   85   87 1    
   169   85  206 1    
   170   86  207 1    
   171   86  208 1    
   172   86  209 1    
   173   87   88 2    
   174   87   89 am   BACKBONE|DICT|INTERRES
   175   89   90 1    
   176   89  210 1    
   177   90   91 1    
   178   90   92 1    
   179   90  211 1    
   180   91  212 1    
   181   91  213 1    
   182   91  214 1    
   183   92   93 2    
   184   92   94 am   BACKBONE|DICT|INTERRES
   185   94   95 1    
   186   94  215 1    
   187   95   96 1    
   188   95   97 1    
   189   95  216 1    
   190   96  217 1    
   191   96  218 1    
   192   96  219 1    
   193   97   98 2    
   194   97   99 am   BACKBONE|DICT|INTERRES
   195   99  100 1    
   196   99  220 1    
   197  100  101 1    
   198  100  102 1    
   199  100  221 1    
   200  101  222 1    
   201  101  223 1    
   202  101  224 1    
   203  102  103 2    
   204  102  104 am   BACKBONE|DICT|INTERRES
   205  104  105 1    
   206  104  225 1    
   207  105  106 1    
   208  105  107 1    
   209  105  226 1    
   210  106  227 1    
   211  106  228 1    
   212  106  229 1    
   213  107  108 2    
   214  107  109 am   BACKBONE|DICT|INTERRES
   215  109  110 1    
   216  109  230 1    
   217  110  111 1    
   218  110  112 1    
   219  110  231 1    
   220  111  232 1    
   221  111  233 1    
   222  111  234 1    
   223  112  113 2    
   224  112  114 am   BACKBONE|DICT|INTERRES
   225  114  115 1    
   226  114  235 1    
   227  115  116 1    
   228  115  117 1    
   229  115  236 1    
   230  116  237 1    
   231  116  238 1    
   232  116  239 1    
   233  117  118 2    
   234  117  119 am   BACKBONE|DICT|INTERRES
   235  119  120 1    
   236  119  240 1    
   237  120  121 1    
   238  120  124 1    
   239  120  241 1    
   240  121  122 am   BACKBONE|DICT|INTERRES
   241  121  123 2    
   242  122  242 1    
   243  122  243 1    
   244  124  125 1    
   245  124  244 1    
   246  124  245 1    
   247  125  126 1    
   248  126  246 1    
   249  126  247 1    
@<TRIPOS>SUBSTRUCTURE
     1 UNK         1 GROUP             0       ****    0 ROOT    
