@<TRIPOS>MOLECULE
3R540
247   249    1
SMALL
USER_CHARGES


@<TRIPOS>ATOM
      1 CA          8.7918  -16.7702  -50.9031 C.3       0 UNK        -0.1800 
      2 C           7.3936  -16.7821  -50.3010 C.2       0 UNK         0.5000 
      3 O           6.9866  -17.7867  -49.7174 O.2       0 UNK        -0.5000 
      4 N           6.6561  -15.6744  -50.4468 N.am      1 UNK        -0.5000 
      5 CA          5.3203  -15.4766  -49.8802 C.3       1 UNK         0.1400 
      6 C6          4.6167  -14.2621  -50.5334 C.3       23 UNK        -0.0398 
      7 S7          2.8299  -14.1853  -50.1702 S.3       23 UNK        -0.2404 
      8 C8          2.1392  -15.2196  -51.4980 C.3       23 UNK        -0.0205 
      9 C9          1.3437  -16.3778  -50.9211 C.ar      23 UNK        -0.0193 
     10 C10         0.0073  -16.1898  -50.5589 C.ar      23 UNK        -0.1150 
     11 C11        -0.7402  -17.2462  -50.0346 C.ar      23 UNK        -0.0193 
     12 C12        -0.1417  -18.4998  -49.8786 C.ar      23 UNK        -0.1150 
     13 C13         1.1963  -18.7012  -50.2331 C.ar      23 UNK        -0.0193 
     14 C14         1.9347  -17.6345  -50.7542 C.ar      23 UNK        -0.1150 
     15 C15         1.8308  -20.0794  -50.0950 C.3       23 UNK        -0.0205 
     16 S16         2.8685  -20.2563  -48.6012 S.3       23 UNK        -0.2404 
     17 C17         1.6622  -20.1257  -47.2365 C.3       23 UNK        -0.0398 
     18 CA          1.0978  -21.4754  -46.7236 C.3       11 UNK         0.1400 
     19 N           0.4162  -21.3230  -45.4330 N.am      11 UNK        -0.5000 
     20 C          -0.1124  -22.3195  -44.7069 C.2       10 UNK         0.5000 
     21 O          -0.0210  -23.5076  -45.0085 O.2       10 UNK        -0.5000 
     22 CA         -0.9279  -21.9272  -43.4611 C.3       10 UNK         0.1400 
     23 CB         -0.0068  -21.6705  -42.2597 C.3       10 UNK        -0.1800 
     24 N          -1.7864  -20.7645  -43.6906 N.am      10 UNK        -0.5000 
     25 C          -2.7996  -20.7284  -44.5693 C.2       9 UNK         0.5000 
     26 O          -3.1595  -21.6974  -45.2383 O.2       9 UNK        -0.5000 
     27 CA         -3.4803  -19.3624  -44.7863 C.3       9 UNK         0.1400 
     28 CB         -4.4865  -19.0585  -43.6671 C.3       9 UNK        -0.1800 
     29 N          -2.5107  -18.2698  -44.8938 N.am      9 UNK        -0.5000 
     30 C          -1.5748  -18.1917  -45.8498 C.2       8 UNK         0.5000 
     31 O          -1.4856  -18.9956  -46.7766 O.2       8 UNK        -0.5000 
     32 CA         -0.5212  -17.0795  -45.7083 C.3       8 UNK         0.1400 
     33 CB         -1.0243  -15.7400  -46.2642 C.3       8 UNK        -0.1800 
     34 N          -0.1047  -16.9111  -44.3164 N.am      8 UNK        -0.5000 
     35 C           0.6520  -17.7921  -43.6469 C.2       7 UNK         0.5000 
     36 O           1.1165  -18.8104  -44.1556 O.2       7 UNK        -0.5000 
     37 CA          0.9017  -17.5092  -42.1547 C.3       7 UNK         0.1400 
     38 CB          2.1052  -16.5726  -41.9800 C.3       7 UNK        -0.1800 
     39 N          -0.2712  -16.9289  -41.5012 N.am      7 UNK        -0.5000 
     40 C          -1.4150  -17.5960  -41.2864 C.2       6 UNK         0.5000 
     41 O          -1.5687  -18.7853  -41.5617 O.2       6 UNK        -0.5000 
     42 CA         -2.6047  -16.7926  -40.7262 C.3       6 UNK         0.1400 
     43 CB         -2.6174  -16.8483  -39.1919 C.3       6 UNK        -0.1800 
     44 N          -2.6121  -15.3940  -41.1577 N.am      6 UNK        -0.5000 
     45 C          -2.6638  -14.9781  -42.4304 C.2       5 UNK         0.5000 
     46 O          -2.7754  -15.7427  -43.3887 O.2       5 UNK        -0.5000 
     47 CA         -2.5202  -13.4646  -42.6816 C.3       5 UNK         0.1400 
     48 CB         -3.0861  -12.6048  -41.5310 C.3       5 UNK        -0.1800 
     49 N          -1.1416  -13.0562  -42.9814 N.am      5 UNK        -0.5000 
     50 C          -0.0333  -13.2714  -42.2582 C.2       4 UNK         0.5000 
     51 O           0.0117  -14.0060  -41.2695 O.2       4 UNK        -0.5000 
     52 CA          1.2343  -12.5199  -42.7159 C.3       4 UNK         0.1400 
     53 CB          2.3890  -12.6274  -41.7031 C.3       4 UNK        -0.1800 
     54 N           1.7244  -12.9425  -44.0277 N.am      4 UNK        -0.5000 
     55 C           1.2057  -12.6040  -45.2114 C.2       3 UNK         0.5000 
     56 O           0.1436  -11.9906  -45.3270 O.2       3 UNK        -0.5000 
     57 CA          1.9962  -12.9753  -46.4861 C.3       3 UNK         0.1400 
     58 CB          2.9523  -11.8307  -46.8684 C.3       3 UNK        -0.1800 
     59 N           2.7187  -14.2574  -46.4948 N.am      3 UNK        -0.5000 
     60 C           3.7228  -14.6909  -45.7157 C.2       2 UNK         0.5000 
     61 O           4.1235  -14.1107  -44.7071 O.2       2 UNK        -0.5000 
     62 CA          4.4234  -15.9861  -46.1693 C.3       2 UNK         0.1400 
     63 CB          3.6755  -17.2232  -45.6613 C.3       2 UNK        -0.1800 
     64 N           4.5485  -16.0676  -47.6254 N.am      2 UNK        -0.5000 
     65 C           5.4017  -15.3284  -48.3465 C.2       1 UNK         0.5000 
     66 O           6.2158  -14.5424  -47.8551 O.2       1 UNK        -0.5000 
     67 C           0.1831  -22.1480  -47.7667 C.2       11 UNK         0.5000 
     68 O           0.5870  -23.1402  -48.3724 O.2       11 UNK        -0.5000 
     69 N          -1.0405  -21.6231  -47.9293 N.am      12 UNK        -0.5000 
     70 CA         -2.0504  -22.1520  -48.8486 C.3       12 UNK         0.1400 
     71 CB         -3.2593  -21.2048  -48.8905 C.3       12 UNK        -0.1800 
     72 C          -2.4855  -23.5864  -48.4951 C.2       12 UNK         0.5000 
     73 O          -2.6151  -24.4221  -49.3903 O.2       12 UNK        -0.5000 
     74 N          -2.6603  -23.8591  -47.1942 N.am      13 UNK        -0.5000 
     75 CA         -2.9768  -25.1840  -46.6614 C.3       13 UNK         0.1400 
     76 CB         -3.3327  -25.0695  -45.1716 C.3       13 UNK        -0.1800 
     77 C          -1.8431  -26.2042  -46.8786 C.2       13 UNK         0.5000 
     78 O          -2.1202  -27.3350  -47.2788 O.2       13 UNK        -0.5000 
     79 N          -0.5929  -25.7860  -46.6341 N.am      14 UNK        -0.5000 
     80 CA          0.6116  -26.5955  -46.8289 C.3       14 UNK         0.1400 
     81 CB          1.8156  -25.8971  -46.1785 C.3       14 UNK        -0.1800 
     82 C           0.8947  -26.8951  -48.3111 C.2       14 UNK         0.5000 
     83 O           1.2592  -28.0241  -48.6424 O.2       14 UNK        -0.5000 
     84 N           0.7045  -25.8892  -49.1760 N.am      15 UNK        -0.5000 
     85 CA          0.8203  -26.0127  -50.6297 C.3       15 UNK         0.1400 
     86 CB          0.8417  -24.6083  -51.2551 C.3       15 UNK        -0.1800 
     87 C          -0.3134  -26.8482  -51.2525 C.2       15 UNK         0.5000 
     88 O          -0.1022  -27.4630  -52.2985 O.2       15 UNK        -0.5000 
     89 N          -1.4903  -26.8299  -50.6074 N.am      16 UNK        -0.5000 
     90 CA         -2.7678  -27.3916  -51.0562 C.3       16 UNK         0.1400 
     91 CB         -2.7082  -28.9319  -51.1123 C.3       16 UNK        -0.1800 
     92 C          -3.2381  -26.7438  -52.3755 C.2       16 UNK         0.5000 
     93 O          -3.7492  -27.4286  -53.2640 O.2       16 UNK        -0.5000 
     94 N          -3.0226  -25.4284  -52.4839 N.am      17 UNK        -0.5000 
     95 CA         -3.2391  -24.6172  -53.6739 C.3       17 UNK         0.1400 
     96 CB         -2.0827  -24.8352  -54.6681 C.3       17 UNK        -0.1800 
     97 C          -3.3321  -23.1435  -53.2589 C.2       17 UNK         0.5000 
     98 O          -2.9308  -22.7920  -52.1482 O.2       17 UNK        -0.5000 
     99 N          -3.8701  -22.3140  -54.1628 N.am      18 UNK        -0.5000 
    100 CA        -4.0636  -20.8593  -54.0548 C.3       18 UNK         0.1400 
    101 CB        -2.7262  -20.1287  -53.8138 C.3       18 UNK        -0.1800 
    102 C         -5.1335  -20.4125  -53.0372 C.2       18 UNK         0.5000 
    103 O         -5.4341  -19.2210  -52.9812 O.2       18 UNK        -0.5000 
    104 N         -5.7294  -21.3506  -52.2871 N.am      19 UNK        -0.5000 
    105 CA        -6.7043  -21.1130  -51.2174 C.3       19 UNK         0.1400 
    106 CB        -7.1254  -22.4617  -50.6160 C.3       19 UNK        -0.1800 
    107 C         -7.9395  -20.2951  -51.6434 C.2       19 UNK         0.5000 
    108 O         -8.4437  -19.5007  -50.8496 O.2       19 UNK        -0.5000 
    109 N         -8.3715  -20.4658  -52.9003 N.am      20 UNK        -0.5000 
    110 CA        -9.4667  -19.7147  -53.5170 C.3       20 UNK         0.1400 
    111 CB        -9.8362  -20.3793  -54.8519 C.3       20 UNK        -0.1800 
    112 C         -9.1518  -18.2190  -53.7288 C.2       20 UNK         0.5000 
    113 O        -10.0783  -17.4074  -53.7367 O.2       20 UNK        -0.5000 
    114 N         -7.8658  -17.8806  -53.8937 N.am      21 UNK        -0.5000 
    115 CA        -7.3777  -16.5070  -54.0080 C.3       21 UNK         0.1400 
    116 CB        -6.1803  -16.4679  -54.9714 C.3       21 UNK        -0.1800 
    117 C         -6.9879  -15.9464  -52.6304 C.2       21 UNK         0.5000 
    118 O         -7.2900  -14.7879  -52.3409 O.2       21 UNK        -0.5000 
    119 N         -6.3300  -16.7762  -51.8100 N.am      22 UNK        -0.5000 
    120 CA        -5.8996  -16.4466  -50.4432 C.3       22 UNK         0.1400 
    121 C         -7.0712  -16.2200  -49.4456 C.2       22 UNK         0.5000 
    122 N         -8.1788  -16.9438  -49.5513 N.am      22 UNK        -0.7600 
    123 O         -6.9724  -15.3722  -48.5632 O.2       22 UNK        -0.5000 
    124 C124       -4.9185  -17.5037  -49.8808 C.3       23 UNK        -0.0398 
    125 S125       -3.3685  -17.6320  -50.8394 S.3       23 UNK        -0.2404 
    126 C126       -2.1825  -17.0265  -49.6076 C.3       23 UNK        -0.0205 
    127 H127        9.5369  -16.9296  -50.1237 H         1 UNK         0.0600 
    128 H128        9.0132  -15.8236  -51.3967 H         1 UNK         0.0600 
    129 H129        8.8903  -17.5684  -51.6389 H         1 UNK         0.0600 
    130 H130        7.0611  -14.8721  -50.9076 H         1 UNK         0.3000 
    131 H131        4.7382  -16.3703  -50.1142 H         1 UNK         0.0600 
    132 H132        5.0751  -13.3274  -50.2047 H         1 UNK         0.0800 
    133 H133        4.7489  -14.2846  -51.6159 H         1 UNK         0.0800 
    134 H134        2.9259  -15.5990  -52.1514 H         1 UNK         0.0800 
    135 H135        1.4954  -14.6039  -52.1279 H         1 UNK         0.0800 
    136 H136       -0.4487  -15.2173  -50.6812 H         1 UNK         0.1150 
    137 H137       -0.7223  -19.3181  -49.4790 H         1 UNK         0.1150 
    138 H138        2.9659  -17.7882  -51.0389 H         1 UNK         0.1150 
    139 H139        2.4564  -20.2696  -50.9682 H         1 UNK         0.0800 
    140 H140        1.0644  -20.8542  -50.1136 H         1 UNK         0.0800 
    141 H141        0.8684  -19.4384  -47.5159 H         1 UNK         0.0800 
    142 H142        2.1919  -19.6388  -46.4188 H         1 UNK         0.0800 
    143 H143        1.9414  -22.1467  -46.5498 H         1 UNK         0.0600 
    144 H144        0.3531  -20.3780  -45.0684 H         1 UNK         0.3000 
    145 H145       -1.5760  -22.7698  -43.2122 H         1 UNK         0.0600 
    146 H146       -0.5836  -21.4612  -41.3587 H         1 UNK         0.0600 
    147 H147        0.6154  -22.5421  -42.0528 H         1 UNK         0.0600 
    148 H148        0.6597  -20.8262  -42.4334 H         1 UNK         0.0600 
    149 H149       -1.5928  -19.9394  -43.1308 H         1 UNK         0.3000 
    150 H150       -4.0277  -19.4106  -45.7300 H         1 UNK         0.0600 
    151 H151       -5.2658  -19.8206  -43.6298 H         1 UNK         0.0600 
    152 H152       -4.9765  -18.0977  -43.8258 H         1 UNK         0.0600 
    153 H153       -4.0085  -19.0338  -42.6885 H         1 UNK         0.0600 
    154 H154       -2.5509  -17.5370  -44.1923 H         1 UNK         0.3000 
    155 H155        0.3517  -17.3715  -46.2936 H         1 UNK         0.0600 
    156 H156       -1.9862  -15.4511  -45.8419 H         1 UNK         0.0600 
    157 H157       -0.3162  -14.9392  -46.0609 H         1 UNK         0.0600 
    158 H158       -1.1433  -15.7900  -47.3446 H         1 UNK         0.0600 
    159 H159       -0.5210  -16.1428  -43.8101 H         1 UNK         0.3000 
    160 H160        1.1307  -18.4557  -41.6609 H         1 UNK         0.0600 
    161 H161        2.0014  -15.6693  -42.5813 H         1 UNK         0.0600 
    162 H162        3.0276  -17.0660  -42.2860 H         1 UNK         0.0600 
    163 H163        2.2296  -16.2727  -40.9393 H         1 UNK         0.0600 
    164 H164       -0.2261  -15.9405  -41.2668 H         1 UNK         0.3000 
    165 H165       -3.5213  -17.2572  -41.0938 H         1 UNK         0.0600 
    166 H166       -3.4994  -16.3525  -38.7860 H         1 UNK         0.0600 
    167 H167       -2.6345  -17.8804  -38.8389 H         1 UNK         0.0600 
    168 H168       -1.7354  -16.3692  -38.7649 H         1 UNK         0.0600 
    169 H169       -2.4655  -14.7002  -40.4389 H         1 UNK         0.3000 
    170 H170       -3.1088  -13.2472  -43.5741 H         1 UNK         0.0600 
    171 H171       -4.1069  -12.9000  -41.2841 H         1 UNK         0.0600 
    172 H172       -2.4883  -12.6812  -40.6221 H         1 UNK         0.0600 
    173 H173       -3.1166  -11.5525  -41.8137 H         1 UNK         0.0600 
    174 H174       -1.0227  -12.5076  -43.8286 H         1 UNK         0.3000 
    175 H175        0.9638  -11.4637  -42.7793 H         1 UNK         0.0600 
    176 H176        2.7543  -13.6496  -41.6075 H         1 UNK         0.0600 
    177 H177        3.2305  -12.0012  -42.0000 H         1 UNK         0.0600 
    178 H178        2.0744  -12.2965  -40.7125 H         1 UNK         0.0600 
    179 H179        2.6177  -13.4307  -44.0458 H         1 UNK         0.3000 
    180 H180        1.2569  -13.0589  -47.2845 H         1 UNK         0.0600 
    181 H181        3.7357  -11.6920  -46.1226 H         1 UNK         0.0600 
    182 H182        2.4159  -10.8853  -46.9595 H         1 UNK         0.0600 
    183 H183        3.4339  -12.0238  -47.8272 H         1 UNK         0.0600 
    184 H184        2.4886  -14.8452  -47.2830 H         1 UNK         0.3000 
    185 H185        5.4252  -15.9945  -45.7343 H         1 UNK         0.0600 
    186 H186        3.5979  -17.2125  -44.5749 H         1 UNK         0.0600 
    187 H187        2.6657  -17.2738  -46.0658 H         1 UNK         0.0600 
    188 H188        4.1951  -18.1406  -45.9385 H         1 UNK         0.0600 
    189 H189        3.9293  -16.7087  -48.1000 H         1 UNK         0.3000 
    190 H190       -1.2939  -20.7940  -47.3975 H         1 UNK         0.3000 
    191 H191       -1.6053  -22.1773  -49.8452 H         1 UNK         0.0600 
    192 H192       -3.7436  -21.1227  -47.9171 H         1 UNK         0.0600 
    193 H193       -4.0034  -21.5608  -49.6037 H         1 UNK         0.0600 
    194 H194       -2.9658  -20.2034  -49.2028 H         1 UNK         0.0600 
    195 H195       -2.5796  -23.1028  -46.5211 H         1 UNK         0.3000 
    196 H196       -3.8584  -25.5516  -47.1907 H         1 UNK         0.0600 
    197 H197       -3.6014  -26.0423  -44.7581 H         1 UNK         0.0600 
    198 H198       -4.1833  -24.4047  -45.0199 H         1 UNK         0.0600 
    199 H199       -2.4985  -24.6826  -44.5863 H         1 UNK         0.0600 
    200 H200       -0.4513  -24.8527  -46.2551 H         1 UNK         0.3000 
    201 H201        0.4600  -27.5500  -46.3206 H         1 UNK         0.0600 
    202 H202        1.6629  -25.7667  -45.1071 H         1 UNK         0.0600 
    203 H203        1.9925  -24.9124  -46.6130 H         1 UNK         0.0600 
    204 H204        2.7261  -26.4834  -46.3082 H         1 UNK         0.0600 
    205 H205        0.4724  -24.9660  -48.8156 H         1 UNK         0.3000 
    206 H206        1.7667  -26.5066  -50.8589 H         1 UNK         0.0600 
    207 H207        1.6745  -24.0179  -50.8724 H         1 UNK         0.0600 
    208 H208        0.9519  -24.6633  -52.3388 H         1 UNK         0.0600 
    209 H209       -0.0793  -24.0616  -51.0465 H         1 UNK         0.0600 
    210 H210       -1.5582  -26.2347  -49.7904 H         1 UNK         0.3000 
    211 H211       -3.5036  -27.1161  -50.2992 H         1 UNK         0.0600 
    212 H212       -2.0351  -29.2858  -51.8934 H         1 UNK         0.0600 
    213 H213       -3.6937  -29.3524  -51.3154 H         1 UNK         0.0600 
    214 H214       -2.3683  -29.3457  -50.1627 H         1 UNK         0.0600 
    215 H215       -2.6722  -24.9117  -51.6826 H         1 UNK         0.3000 
    216 H216       -4.1851  -24.9053  -54.1369 H         1 UNK         0.0600 
    217 H217       -2.2114  -24.2285  -55.5651 H         1 UNK         0.0600 
    218 H218       -2.0246  -25.8753  -54.9891 H         1 UNK         0.0600 
    219 H219       -1.1215  -24.5699  -54.2257 H         1 UNK         0.0600 
    220 H220       -4.1822  -22.7140  -55.0372 H         1 UNK         0.3000 
    221 H221       -4.4346  -20.5400  -55.0297 H         1 UNK         0.0600 
    222 H222       -2.3282  -20.3223  -52.8171 H         1 UNK         0.0600 
    223 H223       -1.9732  -20.4283  -54.5424 H         1 UNK         0.0600 
    224 H224       -2.8516  -19.0487  -53.9019 H         1 UNK         0.0600 
    225 H225       -5.4080  -22.3004  -52.3962 H         1 UNK         0.3000 
    226 H226       -6.1947  -20.5463  -50.4379 H         1 UNK         0.0600 
    227 H227       -6.2665  -22.9996  -50.2134 H         1 UNK         0.0600 
    228 H228       -7.8319  -22.3211  -49.7967 H         1 UNK         0.0600 
    229 H229       -7.6051  -23.1008  -51.3582 H         1 UNK         0.0600 
    230 H230       -7.8903  -21.1331  -53.4849 H         1 UNK         0.3000 
    231 H231      -10.3323  -19.7763  -52.8539 H         1 UNK         0.0600 
    232 H232      -10.6702  -19.8621  -55.3283 H         1 UNK         0.0600 
    233 H233      -10.1394  -21.4162  -54.7064 H         1 UNK         0.0600 
    234 H234       -8.9999  -20.3677  -55.5521 H         1 UNK         0.0600 
    235 H235       -7.1552  -18.5977  -53.8047 H         1 UNK         0.3000 
    236 H236       -8.1602  -15.8686  -54.4239 H         1 UNK         0.0600 
    237 H237       -5.8149  -15.4478  -55.0953 H         1 UNK         0.0600 
    238 H238       -5.3468  -17.0719  -54.6111 H         1 UNK         0.0600 
    239 H239       -6.4580  -16.8363  -55.9589 H         1 UNK         0.0600 
    240 H240       -6.0594  -17.6931  -52.1561 H         1 UNK         0.3000 
    241 H241       -5.3594  -15.4996  -50.5012 H         1 UNK         0.0600 
    242 H242       -8.2500  -17.7112  -50.2135 H         1 UNK         0.3800 
    243 H243       -8.9331  -16.7832  -48.9035 H         1 UNK         0.3800 
    244 H244       -4.6778  -17.2808  -48.8397 H         1 UNK         0.0800 
    245 H245       -5.3902  -18.4855  -49.8685 H         1 UNK         0.0800 
    246 H246       -2.3584  -17.5420  -48.6658 H         1 UNK         0.0800 
    247 H247       -2.3726  -15.9681  -49.4236 H         1 UNK         0.0800 
@<TRIPOS>BOND
     1    1    2 1    
     2    1  127 1    
     3    1  128 1    
     4    1  129 1    
     5    2    3 2    
     6    2    4 am   BACKBONE|DICT|INTERRES
     7    4    5 1    
     8    4  130 1    
     9    5    6 1    
    10    5   65 1    
    11    5  131 1    
    12    6    7 1    
    13    6  132 1    
    14    6  133 1    
    15    7    8 1    
    16    8    9 1    
    17    8  134 1    
    18    8  135 1    
    19    9   10 ar   
    20    9   14 ar   
    21   10   11 ar   
    22   10  136 1    
    23   11   12 ar   
    24   11  126 1    
    25   12   13 ar   
    26   12  137 1    
    27   13   14 ar   
    28   13   15 1    
    29   14  138 1    
    30   15   16 1    
    31   15  139 1    
    32   15  140 1    
    33   16   17 1    
    34   17   18 1    
    35   17  141 1    
    36   17  142 1    
    37   18   19 1    
    38   18   67 1    
    39   18  143 1    
    40   19   20 am   BACKBONE|DICT|INTERRES
    41   19  144 1    
    42   20   21 2    
    43   20   22 1    
    44   22   23 1    
    45   22   24 1    
    46   22  145 1    
    47   23  146 1    
    48   23  147 1    
    49   23  148 1    
    50   24   25 am   BACKBONE|DICT|INTERRES
    51   24  149 1    
    52   25   26 2    
    53   25   27 1    
    54   27   28 1    
    55   27   29 1    
    56   27  150 1    
    57   28  151 1    
    58   28  152 1    
    59   28  153 1    
    60   29   30 am   BACKBONE|DICT|INTERRES
    61   29  154 1    
    62   30   31 2    
    63   30   32 1    
    64   32   33 1    
    65   32   34 1    
    66   32  155 1    
    67   33  156 1    
    68   33  157 1    
    69   33  158 1    
    70   34   35 am   BACKBONE|DICT|INTERRES
    71   34  159 1    
    72   35   36 2    
    73   35   37 1    
    74   37   38 1    
    75   37   39 1    
    76   37  160 1    
    77   38  161 1    
    78   38  162 1    
    79   38  163 1    
    80   39   40 am   BACKBONE|DICT|INTERRES
    81   39  164 1    
    82   40   41 2    
    83   40   42 1    
    84   42   43 1    
    85   42   44 1    
    86   42  165 1    
    87   43  166 1    
    88   43  167 1    
    89   43  168 1    
    90   44   45 am   BACKBONE|DICT|INTERRES
    91   44  169 1    
    92   45   46 2    
    93   45   47 1    
    94   47   48 1    
    95   47   49 1    
    96   47  170 1    
    97   48  171 1    
    98   48  172 1    
    99   48  173 1    
   100   49   50 am   BACKBONE|DICT|INTERRES
   101   49  174 1    
   102   50   51 2    
   103   50   52 1    
   104   52   53 1    
   105   52   54 1    
   106   52  175 1    
   107   53  176 1    
   108   53  177 1    
   109   53  178 1    
   110   54   55 am   BACKBONE|DICT|INTERRES
   111   54  179 1    
   112   55   56 2    
   113   55   57 1    
   114   57   58 1    
   115   57   59 1    
   116   57  180 1    
   117   58  181 1    
   118   58  182 1    
   119   58  183 1    
   120   59   60 am   BACKBONE|DICT|INTERRES
   121   59  184 1    
   122   60   61 2    
   123   60   62 1    
   124   62   63 1    
   125   62   64 1    
   126   62  185 1    
   127   63  186 1    
   128   63  187 1    
   129   63  188 1    
   130   64   65 am   BACKBONE|DICT|INTERRES
   131   64  189 1    
   132   65   66 2    
   133   67   68 2    
   134   67   69 am   BACKBONE|DICT|INTERRES
   135   69   70 1    
   136   69  190 1    
   137   70   71 1    
   138   70   72 1    
   139   70  191 1    
   140   71  192 1    
   141   71  193 1    
   142   71  194 1    
   143   72   73 2    
   144   72   74 am   BACKBONE|DICT|INTERRES
   145   74   75 1    
   146   74  195 1    
   147   75   76 1    
   148   75   77 1    
   149   75  196 1    
   150   76  197 1    
   151   76  198 1    
   152   76  199 1    
   153   77   78 2    
   154   77   79 am   BACKBONE|DICT|INTERRES
   155   79   80 1    
   156   79  200 1    
   157   80   81 1    
   158   80   82 1    
   159   80  201 1    
   160   81  202 1    
   161   81  203 1    
   162   81  204 1    
   163   82   83 2    
   164   82   84 am   BACKBONE|DICT|INTERRES
   165   84   85 1    
   166   84  205 1    
   167   85   86 1    
   168   85   87 1    
   169   85  206 1    
   170   86  207 1    
   171   86  208 1    
   172   86  209 1    
   173   87   88 2    
   174   87   89 am   BACKBONE|DICT|INTERRES
   175   89   90 1    
   176   89  210 1    
   177   90   91 1    
   178   90   92 1    
   179   90  211 1    
   180   91  212 1    
   181   91  213 1    
   182   91  214 1    
   183   92   93 2    
   184   92   94 am   BACKBONE|DICT|INTERRES
   185   94   95 1    
   186   94  215 1    
   187   95   96 1    
   188   95   97 1    
   189   95  216 1    
   190   96  217 1    
   191   96  218 1    
   192   96  219 1    
   193   97   98 2    
   194   97   99 am   BACKBONE|DICT|INTERRES
   195   99  100 1    
   196   99  220 1    
   197  100  101 1    
   198  100  102 1    
   199  100  221 1    
   200  101  222 1    
   201  101  223 1    
   202  101  224 1    
   203  102  103 2    
   204  102  104 am   BACKBONE|DICT|INTERRES
   205  104  105 1    
   206  104  225 1    
   207  105  106 1    
   208  105  107 1    
   209  105  226 1    
   210  106  227 1    
   211  106  228 1    
   212  106  229 1    
   213  107  108 2    
   214  107  109 am   BACKBONE|DICT|INTERRES
   215  109  110 1    
   216  109  230 1    
   217  110  111 1    
   218  110  112 1    
   219  110  231 1    
   220  111  232 1    
   221  111  233 1    
   222  111  234 1    
   223  112  113 2    
   224  112  114 am   BACKBONE|DICT|INTERRES
   225  114  115 1    
   226  114  235 1    
   227  115  116 1    
   228  115  117 1    
   229  115  236 1    
   230  116  237 1    
   231  116  238 1    
   232  116  239 1    
   233  117  118 2    
   234  117  119 am   BACKBONE|DICT|INTERRES
   235  119  120 1    
   236  119  240 1    
   237  120  121 1    
   238  120  124 1    
   239  120  241 1    
   240  121  122 am   BACKBONE|DICT|INTERRES
   241  121  123 2    
   242  122  242 1    
   243  122  243 1    
   244  124  125 1    
   245  124  244 1    
   246  124  245 1    
   247  125  126 1    
   248  126  246 1    
   249  126  247 1    
@<TRIPOS>SUBSTRUCTURE
     1 UNK         1 GROUP             0       ****    0 ROOT    
