@<TRIPOS>MOLECULE
3R540
247   249    1
SMALL
USER_CHARGES


@<TRIPOS>ATOM
      1 CA          2.5069  -11.5602  -45.2015 C.3       0 UNK        -0.1800 
      2 C           3.5633  -12.2688  -46.0359 C.2       0 UNK         0.5000 
      3 O           4.5296  -11.6398  -46.4659 O.2       0 UNK        -0.5000 
      4 N           3.3886  -13.5776  -46.2581 N.am      1 UNK        -0.5000 
      5 CA          4.2711  -14.4217  -47.0814 C.3       1 UNK         0.1400 
      6 C6          3.5297  -15.6767  -47.6098 C.3       23 UNK        -0.0398 
      7 S7          2.0890  -15.2033  -48.6326 S.3       23 UNK        -0.2404 
      8 C8          2.5913  -15.7029  -50.3104 C.3       23 UNK        -0.0205 
      9 C9          1.9425  -17.0217  -50.6975 C.ar      23 UNK        -0.0193 
     10 C10         0.6758  -17.0288  -51.2900 C.ar      23 UNK        -0.1150 
     11 C11         0.0504  -18.2366  -51.6093 C.ar      23 UNK        -0.0193 
     12 C12         0.6953  -19.4420  -51.3257 C.ar      23 UNK        -0.1150 
     13 C13         1.9615  -19.4498  -50.7369 C.ar      23 UNK        -0.0193 
     14 C14         2.5903  -18.2337  -50.4430 C.ar      23 UNK        -0.1150 
     15 C15         2.6182  -20.7822  -50.3987 C.3       23 UNK        -0.0205 
     16 S16         3.2772  -20.8682  -48.7003 S.3       23 UNK        -0.2404 
     17 C17         1.8983  -20.2443  -47.6770 C.3       23 UNK        -0.0398 
     18 CA          1.0105  -21.3700  -47.0952 C.3       11 UNK         0.1400 
     19 N           0.6058  -21.0963  -45.7149 N.am      11 UNK        -0.5000 
     20 C           0.0909  -22.0118  -44.8840 C.2       10 UNK         0.5000 
     21 O          -0.0901  -23.1882  -45.1969 O.2       10 UNK        -0.5000 
     22 CA         -0.3275  -21.5256  -43.4846 C.3       10 UNK         0.1400 
     23 CB          0.8937  -21.3892  -42.5636 C.3       10 UNK        -0.1800 
     24 N          -1.0623  -20.2605  -43.5246 N.am      10 UNK        -0.5000 
     25 C          -2.2575  -20.1046  -44.1122 C.2       9 UNK         0.5000 
     26 O          -2.8787  -21.0226  -44.6484 O.2       9 UNK        -0.5000 
     27 CA         -2.8381  -18.6787  -44.1430 C.3       9 UNK         0.1400 
     28 CB         -3.4839  -18.3225  -42.7957 C.3       9 UNK        -0.1800 
     29 N          -1.8400  -17.6661  -44.4877 N.am      9 UNK        -0.5000 
     30 C          -1.1767  -17.6124  -45.6516 C.2       8 UNK         0.5000 
     31 O          -1.3556  -18.3970  -46.5805 O.2       8 UNK        -0.5000 
     32 CA         -0.0717  -16.5499  -45.7683 C.3       8 UNK         0.1400 
     33 CB         -0.6565  -15.1546  -46.0353 C.3       8 UNK        -0.1800 
     34 N           0.7781  -16.5160  -44.5786 N.am      8 UNK        -0.5000 
     35 C           1.5500  -17.5373  -44.1807 C.2       7 UNK         0.5000 
     36 O           1.6568  -18.5960  -44.7940 O.2       7 UNK        -0.5000 
     37 CA          2.3073  -17.3607  -42.8593 C.3       7 UNK         0.1400 
     38 CB          3.6421  -16.6567  -43.1125 C.3       7 UNK        -0.1800 
     39 N           1.5224  -16.6234  -41.8695 N.am      7 UNK        -0.5000 
     40 C           0.4548  -17.1480  -41.2504 C.2       6 UNK         0.5000 
     41 O           0.0349  -18.2876  -41.4574 O.2       6 UNK        -0.5000 
     42 CA         -0.2898  -16.2339  -40.2648 C.3       6 UNK         0.1400 
     43 CB          0.4782  -16.1252  -38.9387 C.3       6 UNK        -0.1800 
     44 N          -0.5378  -14.8913  -40.7885 N.am      6 UNK        -0.5000 
     45 C          -1.2479  -14.5927  -41.8821 C.2       5 UNK         0.5000 
     46 O          -1.7123  -15.4410  -42.6433 O.2       5 UNK        -0.5000 
     47 CA         -1.4828  -13.1003  -42.1882 C.3       5 UNK         0.1400 
     48 CB         -2.6265  -12.5354  -41.3252 C.3       5 UNK        -0.1800 
     49 N          -0.2866  -12.2500  -42.1118 N.am      5 UNK        -0.5000 
     50 C           0.4765  -11.9465  -41.0523 C.2       4 UNK         0.5000 
     51 O           0.2905  -12.3726  -39.9101 O.2       4 UNK        -0.5000 
     52 CA          1.6697  -11.0139  -41.3283 C.3       4 UNK         0.1400 
     53 CB          1.5618   -9.7257  -40.4972 C.3       4 UNK        -0.1800 
     54 N           2.9594  -11.6522  -41.0594 N.am      4 UNK        -0.5000 
     55 C           3.4095  -12.7726  -41.6371 C.2       3 UNK         0.5000 
     56 O           2.7645  -13.4446  -42.4492 O.2       3 UNK        -0.5000 
     57 CA          4.8264  -13.2186  -41.2501 C.3       3 UNK         0.1400 
     58 CB          4.7915  -14.1311  -40.0138 C.3       3 UNK        -0.1800 
     59 N           5.3771  -13.9549  -42.3809 N.am      3 UNK        -0.5000 
     60 C           6.6083  -13.8383  -42.8917 C.2       2 UNK         0.5000 
     61 O           7.4995  -13.1502  -42.3938 O.2       2 UNK        -0.5000 
     62 CA          6.8644  -14.5882  -44.2094 C.3       2 UNK         0.1400 
     63 CB          7.2807  -16.0469  -43.9403 C.3       2 UNK        -0.1800 
     64 N           5.6719  -14.5074  -45.0565 N.am      2 UNK        -0.5000 
     65 C           5.5917  -14.7910  -46.3626 C.2       1 UNK         0.5000 
     66 O           6.5114  -15.2921  -47.0101 O.2       1 UNK        -0.5000 
     67 C          -0.2006  -21.6853  -47.9997 C.2       11 UNK         0.5000 
     68 O          -0.1115  -22.5917  -48.8266 O.2       11 UNK        -0.5000 
     69 N          -1.3288  -20.9882  -47.7910 N.am      12 UNK        -0.5000 
     70 CA         -2.6080  -21.2547  -48.4546 C.3       12 UNK         0.1400 
     71 CB         -3.6388  -20.1857  -48.0614 C.3       12 UNK        -0.1800 
     72 C          -3.1601  -22.6526  -48.1306 C.2       12 UNK         0.5000 
     73 O          -3.6463  -23.3354  -49.0332 O.2       12 UNK        -0.5000 
     74 N          -3.0495  -23.0587  -46.8574 N.am      13 UNK        -0.5000 
     75 CA         -3.4170  -24.3883  -46.3740 C.3       13 UNK         0.1400 
     76 CB         -3.4336  -24.3971  -44.8382 C.3       13 UNK        -0.1800 
     77 C          -2.4935  -25.4895  -46.9248 C.2       13 UNK         0.5000 
     78 O          -2.9885  -26.5480  -47.3102 O.2       13 UNK        -0.5000 
     79 N          -1.1832  -25.2119  -46.9976 N.am      14 UNK        -0.5000 
     80 CA         -0.1751  -26.0955  -47.5914 C.3       14 UNK         0.1400 
     81 CB          1.2309  -25.5566  -47.2874 C.3       14 UNK        -0.1800 
     82 C          -0.3721  -26.2887  -49.1077 C.2       14 UNK         0.5000 
     83 O          -0.2314  -27.4074  -49.6025 O.2       14 UNK        -0.5000 
     84 N          -0.7369  -25.2055  -49.8078 N.am      15 UNK        -0.5000 
     85 CA         -1.1280  -25.2051  -51.2200 C.3       15 UNK         0.1400 
     86 CB         -1.0932  -23.7590  -51.7425 C.3       15 UNK        -0.1800 
     87 C          -2.5174  -25.8297  -51.4689 C.2       15 UNK         0.5000 
     88 O          -2.8381  -26.1413  -52.6156 O.2       15 UNK        -0.5000 
     89 N          -3.3136  -25.9796  -50.4000 N.am      16 UNK        -0.5000 
     90 CA         -4.6878  -26.4848  -50.3534 C.3       16 UNK         0.1400 
     91 CB         -4.7294  -27.9821  -50.7228 C.3       16 UNK        -0.1800 
     92 C          -5.6689  -25.6242  -51.1763 C.2       16 UNK         0.5000 
     93 O          -6.5710  -26.1682  -51.8160 O.2       16 UNK        -0.5000 
     94 N          -5.4623  -24.2964  -51.1426 N.am      17 UNK        -0.5000 
     95 CA         -6.1830  -23.2655  -51.9015 C.3       17 UNK         0.1400 
     96 CB         -7.6100  -23.0821  -51.3463 C.3       17 UNK        -0.1800 
     97 C          -6.1556  -23.5434  -53.4202 C.2       17 UNK         0.5000 
     98 O          -7.2056  -23.7085  -54.0471 O.2       17 UNK        -0.5000 
     99 N          -4.9327  -23.6541  -53.9606 N.am      18 UNK        -0.5000 
    100 CA        -4.6217  -24.0130  -55.3461 C.3       18 UNK         0.1400 
    101 CB        -3.1061  -23.8904  -55.5667 C.3       18 UNK        -0.1800 
    102 C         -5.3876  -23.1672  -56.3806 C.2       18 UNK         0.5000 
    103 O         -5.3620  -21.9377  -56.3020 O.2       18 UNK        -0.5000 
    104 N         -6.0808  -23.8496  -57.3039 N.am      19 UNK        -0.5000 
    105 CA        -6.9381  -23.2923  -58.3609 C.3       19 UNK         0.1400 
    106 CB        -6.0854  -22.5347  -59.4006 C.3       19 UNK        -0.1800 
    107 C         -8.1184  -22.4415  -57.8340 C.2       19 UNK         0.5000 
    108 O         -8.6274  -21.5892  -58.5635 O.2       19 UNK        -0.5000 
    109 N         -8.5174  -22.6766  -56.5732 N.am      20 UNK        -0.5000 
    110 CA        -9.5006  -21.9232  -55.7851 C.3       20 UNK         0.1400 
    111 CB       -10.9051  -21.9923  -56.4211 C.3       20 UNK        -0.1800 
    112 C         -9.0591  -20.4777  -55.4602 C.2       20 UNK         0.5000 
    113 O         -9.8965  -19.6585  -55.0770 O.2       20 UNK        -0.5000 
    114 N         -7.7589  -20.1906  -55.5994 N.am      21 UNK        -0.5000 
    115 CA        -7.1244  -18.9285  -55.2348 C.3       21 UNK         0.1400 
    116 CB        -6.0944  -18.5736  -56.3227 C.3       21 UNK        -0.1800 
    117 C         -6.4629  -19.0506  -53.8492 C.2       21 UNK         0.5000 
    118 O         -6.5244  -20.1093  -53.2174 O.2       21 UNK        -0.5000 
    119 N         -5.8211  -17.9608  -53.4107 N.am      22 UNK        -0.5000 
    120 CA        -5.1488  -17.8246  -52.1086 C.3       22 UNK         0.1400 
    121 C         -6.1390  -17.6869  -50.9099 C.2       22 UNK         0.5000 
    122 N         -5.6424  -17.6760  -49.6808 N.am      22 UNK        -0.7600 
    123 O         -7.3491  -17.5459  -51.0765 O.2       22 UNK        -0.5000 
    124 C124       -4.0543  -18.9134  -51.8943 C.3       23 UNK        -0.0398 
    125 S125       -2.6129  -18.3112  -50.9540 S.3       23 UNK        -0.2404 
    126 C126       -1.3305  -18.2523  -52.2394 C.3       23 UNK        -0.0205 
    127 H127        1.7747  -12.2590  -44.7963 H         1 UNK         0.0600 
    128 H128        2.9807  -11.0408  -44.3690 H         1 UNK         0.0600 
    129 H129        1.9794  -10.8248  -45.8087 H         1 UNK         0.0600 
    130 H130        2.5628  -14.0330  -45.8983 H         1 UNK         0.3000 
    131 H131        4.5673  -13.8348  -47.9539 H         1 UNK         0.0600 
    132 H132        4.1993  -16.3100  -48.1939 H         1 UNK         0.0800 
    133 H133        3.1786  -16.2935  -46.7809 H         1 UNK         0.0800 
    134 H134        2.2840  -14.9251  -51.0112 H         1 UNK         0.0800 
    135 H135        3.6773  -15.7658  -50.3912 H         1 UNK         0.0800 
    136 H136        0.1680  -16.0946  -51.4853 H         1 UNK         0.1150 
    137 H137        0.1998  -20.3766  -51.5504 H         1 UNK         0.1150 
    138 H138        3.5673  -18.2320  -49.9808 H         1 UNK         0.1150 
    139 H139        1.9115  -21.6035  -50.5299 H         1 UNK         0.0800 
    140 H140        3.4319  -20.9620  -51.1022 H         1 UNK         0.0800 
    141 H141        1.3094  -19.4827  -48.1895 H         1 UNK         0.0800 
    142 H142        2.3969  -19.7105  -46.8706 H         1 UNK         0.0800 
    143 H143        1.6124  -22.2799  -47.0490 H         1 UNK         0.0600 
    144 H144        0.7644  -20.1516  -45.3729 H         1 UNK         0.3000 
    145 H145       -0.9897  -22.2812  -43.0568 H         1 UNK         0.0600 
    146 H146        0.5955  -21.1118  -41.5524 H         1 UNK         0.0600 
    147 H147        1.4380  -22.3319  -42.4956 H         1 UNK         0.0600 
    148 H148        1.5905  -20.6333  -42.9256 H         1 UNK         0.0600 
    149 H149       -0.6305  -19.4648  -43.0675 H         1 UNK         0.3000 
    150 H150       -3.6145  -18.6537  -44.9103 H         1 UNK         0.0600 
    151 H151       -4.2424  -19.0558  -42.5191 H         1 UNK         0.0600 
    152 H152       -3.9720  -17.3487  -42.8390 H         1 UNK         0.0600 
    153 H153       -2.7473  -18.2898  -41.9920 H         1 UNK         0.0600 
    154 H154       -1.6506  -16.9578  -43.7830 H         1 UNK         0.3000 
    155 H155        0.5554  -16.8239  -46.6190 H         1 UNK         0.0600 
    156 H156        0.1319  -14.4132  -46.1644 H         1 UNK         0.0600 
    157 H157       -1.3029  -14.8203  -45.2242 H         1 UNK         0.0600 
    158 H158       -1.2517  -15.1550  -46.9493 H         1 UNK         0.0600 
    159 H159        0.7045  -15.7053  -43.9826 H         1 UNK         0.3000 
    160 H160        2.5223  -18.3535  -42.4581 H         1 UNK         0.0600 
    161 H161        3.4922  -15.6772  -43.5629 H         1 UNK         0.0600 
    162 H162        4.2559  -17.2390  -43.8009 H         1 UNK         0.0600 
    163 H163        4.2073  -16.5400  -42.1881 H         1 UNK         0.0600 
    164 H164        1.7851  -15.6656  -41.6812 H         1 UNK         0.3000 
    165 H165       -1.2601  -16.6915  -40.0614 H         1 UNK         0.0600 
    166 H166        1.4392  -15.6256  -39.0686 H         1 UNK         0.0600 
    167 H167       -0.0924  -15.5634  -38.1990 H         1 UNK         0.0600 
    168 H168        0.6736  -17.1121  -38.5171 H         1 UNK         0.0600 
    169 H169       -0.1840  -14.1079  -40.2437 H         1 UNK         0.3000 
    170 H170       -1.8093  -13.0494  -43.2282 H         1 UNK         0.0600 
    171 H171       -3.5390  -13.1174  -41.4606 H         1 UNK         0.0600 
    172 H172       -2.3850  -12.5533  -40.2621 H         1 UNK         0.0600 
    173 H173       -2.8549  -11.5055  -41.5995 H         1 UNK         0.0600 
    174 H174       -0.0001  -11.8676  -43.0015 H         1 UNK         0.3000 
    175 H175        1.6558  -10.7300  -42.3818 H         1 UNK         0.0600 
    176 H176        2.3571   -9.0243  -40.7500 H         1 UNK         0.0600 
    177 H177        0.6131   -9.2201  -40.6822 H         1 UNK         0.0600 
    178 H178        1.6213   -9.9300  -39.4273 H         1 UNK         0.0600 
    179 H179        3.5454  -11.1892  -40.3802 H         1 UNK         0.3000 
    180 H180        5.4319  -12.3342  -41.0409 H         1 UNK         0.0600 
    181 H181        4.1639  -15.0084  -40.1758 H         1 UNK         0.0600 
    182 H182        4.3961  -13.6003  -39.1469 H         1 UNK         0.0600 
    183 H183        5.7915  -14.4789  -39.7543 H         1 UNK         0.0600 
    184 H184        4.6971  -14.5320  -42.8543 H         1 UNK         0.3000 
    185 H185        7.6813  -14.0799  -44.7260 H         1 UNK         0.0600 
    186 H186        7.5052  -16.5803  -44.8636 H         1 UNK         0.0600 
    187 H187        8.1797  -16.0828  -43.3238 H         1 UNK         0.0600 
    188 H188        6.5055  -16.6010  -43.4133 H         1 UNK         0.0600 
    189 H189        4.8881  -14.0133  -44.6551 H         1 UNK         0.3000 
    190 H190       -1.3150  -20.2068  -47.1403 H         1 UNK         0.3000 
    191 H191       -2.4418  -21.1952  -49.5321 H         1 UNK         0.0600 
    192 H192       -3.2696  -19.1822  -48.2651 H         1 UNK         0.0600 
    193 H193       -4.5647  -20.3144  -48.6233 H         1 UNK         0.0600 
    194 H194       -3.8893  -20.2327  -47.0020 H         1 UNK         0.0600 
    195 H195       -2.6890  -22.4074  -46.1678 H         1 UNK         0.3000 
    196 H196       -4.4299  -24.6013  -46.7222 H         1 UNK         0.0600 
    197 H197       -3.7358  -25.3732  -44.4570 H         1 UNK         0.0600 
    198 H198       -4.1386  -23.6626  -44.4487 H         1 UNK         0.0600 
    199 H199       -2.4528  -24.1708  -44.4203 H         1 UNK         0.0600 
    200 H200       -0.8472  -24.3420  -46.5949 H         1 UNK         0.3000 
    201 H201       -0.2715  -27.0741  -47.1166 H         1 UNK         0.0600 
    202 H202        1.3898  -25.4491  -46.2143 H         1 UNK         0.0600 
    203 H203        1.3995  -24.5848  -47.7505 H         1 UNK         0.0600 
    204 H204        1.9971  -26.2351  -47.6641 H         1 UNK         0.0600 
    205 H205       -0.7412  -24.3023  -49.3394 H         1 UNK         0.3000 
    206 H206       -0.3976  -25.7913  -51.7811 H         1 UNK         0.0600 
    207 H207       -1.3378  -23.7176  -52.8043 H         1 UNK         0.0600 
    208 H208       -1.8059  -23.1241  -51.2149 H         1 UNK         0.0600 
    209 H209       -0.1028  -23.3198  -51.6210 H         1 UNK         0.0600 
    210 H210       -2.9500  -25.6600  -49.5125 H         1 UNK         0.3000 
    211 H211       -5.0079  -26.3940  -49.3146 H         1 UNK         0.0600 
    212 H212       -4.4752  -28.1487  -51.7700 H         1 UNK         0.0600 
    213 H213       -5.7235  -28.3987  -50.5568 H         1 UNK         0.0600 
    214 H214       -4.0322  -28.5562  -50.1124 H         1 UNK         0.0600 
    215 H215       -4.7154  -23.9592  -50.5400 H         1 UNK         0.3000 
    216 H216       -5.6462  -22.3288  -51.7444 H         1 UNK         0.0600 
    217 H217       -7.5902  -22.8402  -50.2838 H         1 UNK         0.0600 
    218 H218       -8.2165  -23.9789  -51.4762 H         1 UNK         0.0600 
    219 H219       -8.1203  -22.2640  -51.8566 H         1 UNK         0.0600 
    220 H220       -4.1376  -23.5305  -53.3530 H         1 UNK         0.3000 
    221 H221       -4.9004  -25.0609  -55.4726 H         1 UNK         0.0600 
    222 H222       -2.7542  -22.8745  -55.3819 H         1 UNK         0.0600 
    223 H223       -2.5550  -24.5627  -54.9093 H         1 UNK         0.0600 
    224 H224       -2.8377  -24.1497  -56.5916 H         1 UNK         0.0600 
    225 H225       -6.0533  -24.8595  -57.2668 H         1 UNK         0.3000 
    226 H226       -7.3900  -24.1466  -58.8666 H         1 UNK         0.0600 
    227 H227       -5.2635  -23.1523  -59.7624 H         1 UNK         0.0600 
    228 H228       -6.6826  -22.2530  -60.2686 H         1 UNK         0.0600 
    229 H229       -5.6608  -21.6198  -58.9862 H         1 UNK         0.0600 
    230 H230       -8.0009  -23.3647  -56.0363 H         1 UNK         0.3000 
    231 H231       -9.5574  -22.4337  -54.8228 H         1 UNK         0.0600 
    232 H232      -11.1865  -23.0209  -56.6463 H         1 UNK         0.0600 
    233 H233      -10.9633  -21.4166  -57.3450 H         1 UNK         0.0600 
    234 H234      -11.6600  -21.5926  -55.7431 H         1 UNK         0.0600 
    235 H235       -7.1195  -20.9354  -55.8561 H         1 UNK         0.3000 
    236 H236       -7.8683  -18.1309  -55.1872 H         1 UNK         0.0600 
    237 H237       -5.6852  -17.5743  -56.1725 H         1 UNK         0.0600 
    238 H238       -5.2572  -19.2722  -56.3300 H         1 UNK         0.0600 
    239 H239       -6.5481  -18.5880  -57.3140 H         1 UNK         0.0600 
    240 H240       -5.8419  -17.1249  -53.9766 H         1 UNK         0.3000 
    241 H241       -4.6536  -16.8552  -52.1754 H         1 UNK         0.0600 
    242 H242       -4.6490  -17.7585  -49.5260 H         1 UNK         0.3800 
    243 H243       -6.2674  -17.5684  -48.8976 H         1 UNK         0.3800 
    244 H244       -4.4659  -19.7872  -51.3859 H         1 UNK         0.0800 
    245 H245       -3.7019  -19.2860  -52.8565 H         1 UNK         0.0800 
    246 H246       -1.4156  -19.1184  -52.8973 H         1 UNK         0.0800 
    247 H247       -1.4790  -17.3701  -52.8639 H         1 UNK         0.0800 
@<TRIPOS>BOND
     1    1    2 1    
     2    1  127 1    
     3    1  128 1    
     4    1  129 1    
     5    2    3 2    
     6    2    4 am   BACKBONE|DICT|INTERRES
     7    4    5 1    
     8    4  130 1    
     9    5    6 1    
    10    5   65 1    
    11    5  131 1    
    12    6    7 1    
    13    6  132 1    
    14    6  133 1    
    15    7    8 1    
    16    8    9 1    
    17    8  134 1    
    18    8  135 1    
    19    9   10 ar   
    20    9   14 ar   
    21   10   11 ar   
    22   10  136 1    
    23   11   12 ar   
    24   11  126 1    
    25   12   13 ar   
    26   12  137 1    
    27   13   14 ar   
    28   13   15 1    
    29   14  138 1    
    30   15   16 1    
    31   15  139 1    
    32   15  140 1    
    33   16   17 1    
    34   17   18 1    
    35   17  141 1    
    36   17  142 1    
    37   18   19 1    
    38   18   67 1    
    39   18  143 1    
    40   19   20 am   BACKBONE|DICT|INTERRES
    41   19  144 1    
    42   20   21 2    
    43   20   22 1    
    44   22   23 1    
    45   22   24 1    
    46   22  145 1    
    47   23  146 1    
    48   23  147 1    
    49   23  148 1    
    50   24   25 am   BACKBONE|DICT|INTERRES
    51   24  149 1    
    52   25   26 2    
    53   25   27 1    
    54   27   28 1    
    55   27   29 1    
    56   27  150 1    
    57   28  151 1    
    58   28  152 1    
    59   28  153 1    
    60   29   30 am   BACKBONE|DICT|INTERRES
    61   29  154 1    
    62   30   31 2    
    63   30   32 1    
    64   32   33 1    
    65   32   34 1    
    66   32  155 1    
    67   33  156 1    
    68   33  157 1    
    69   33  158 1    
    70   34   35 am   BACKBONE|DICT|INTERRES
    71   34  159 1    
    72   35   36 2    
    73   35   37 1    
    74   37   38 1    
    75   37   39 1    
    76   37  160 1    
    77   38  161 1    
    78   38  162 1    
    79   38  163 1    
    80   39   40 am   BACKBONE|DICT|INTERRES
    81   39  164 1    
    82   40   41 2    
    83   40   42 1    
    84   42   43 1    
    85   42   44 1    
    86   42  165 1    
    87   43  166 1    
    88   43  167 1    
    89   43  168 1    
    90   44   45 am   BACKBONE|DICT|INTERRES
    91   44  169 1    
    92   45   46 2    
    93   45   47 1    
    94   47   48 1    
    95   47   49 1    
    96   47  170 1    
    97   48  171 1    
    98   48  172 1    
    99   48  173 1    
   100   49   50 am   BACKBONE|DICT|INTERRES
   101   49  174 1    
   102   50   51 2    
   103   50   52 1    
   104   52   53 1    
   105   52   54 1    
   106   52  175 1    
   107   53  176 1    
   108   53  177 1    
   109   53  178 1    
   110   54   55 am   BACKBONE|DICT|INTERRES
   111   54  179 1    
   112   55   56 2    
   113   55   57 1    
   114   57   58 1    
   115   57   59 1    
   116   57  180 1    
   117   58  181 1    
   118   58  182 1    
   119   58  183 1    
   120   59   60 am   BACKBONE|DICT|INTERRES
   121   59  184 1    
   122   60   61 2    
   123   60   62 1    
   124   62   63 1    
   125   62   64 1    
   126   62  185 1    
   127   63  186 1    
   128   63  187 1    
   129   63  188 1    
   130   64   65 am   BACKBONE|DICT|INTERRES
   131   64  189 1    
   132   65   66 2    
   133   67   68 2    
   134   67   69 am   BACKBONE|DICT|INTERRES
   135   69   70 1    
   136   69  190 1    
   137   70   71 1    
   138   70   72 1    
   139   70  191 1    
   140   71  192 1    
   141   71  193 1    
   142   71  194 1    
   143   72   73 2    
   144   72   74 am   BACKBONE|DICT|INTERRES
   145   74   75 1    
   146   74  195 1    
   147   75   76 1    
   148   75   77 1    
   149   75  196 1    
   150   76  197 1    
   151   76  198 1    
   152   76  199 1    
   153   77   78 2    
   154   77   79 am   BACKBONE|DICT|INTERRES
   155   79   80 1    
   156   79  200 1    
   157   80   81 1    
   158   80   82 1    
   159   80  201 1    
   160   81  202 1    
   161   81  203 1    
   162   81  204 1    
   163   82   83 2    
   164   82   84 am   BACKBONE|DICT|INTERRES
   165   84   85 1    
   166   84  205 1    
   167   85   86 1    
   168   85   87 1    
   169   85  206 1    
   170   86  207 1    
   171   86  208 1    
   172   86  209 1    
   173   87   88 2    
   174   87   89 am   BACKBONE|DICT|INTERRES
   175   89   90 1    
   176   89  210 1    
   177   90   91 1    
   178   90   92 1    
   179   90  211 1    
   180   91  212 1    
   181   91  213 1    
   182   91  214 1    
   183   92   93 2    
   184   92   94 am   BACKBONE|DICT|INTERRES
   185   94   95 1    
   186   94  215 1    
   187   95   96 1    
   188   95   97 1    
   189   95  216 1    
   190   96  217 1    
   191   96  218 1    
   192   96  219 1    
   193   97   98 2    
   194   97   99 am   BACKBONE|DICT|INTERRES
   195   99  100 1    
   196   99  220 1    
   197  100  101 1    
   198  100  102 1    
   199  100  221 1    
   200  101  222 1    
   201  101  223 1    
   202  101  224 1    
   203  102  103 2    
   204  102  104 am   BACKBONE|DICT|INTERRES
   205  104  105 1    
   206  104  225 1    
   207  105  106 1    
   208  105  107 1    
   209  105  226 1    
   210  106  227 1    
   211  106  228 1    
   212  106  229 1    
   213  107  108 2    
   214  107  109 am   BACKBONE|DICT|INTERRES
   215  109  110 1    
   216  109  230 1    
   217  110  111 1    
   218  110  112 1    
   219  110  231 1    
   220  111  232 1    
   221  111  233 1    
   222  111  234 1    
   223  112  113 2    
   224  112  114 am   BACKBONE|DICT|INTERRES
   225  114  115 1    
   226  114  235 1    
   227  115  116 1    
   228  115  117 1    
   229  115  236 1    
   230  116  237 1    
   231  116  238 1    
   232  116  239 1    
   233  117  118 2    
   234  117  119 am   BACKBONE|DICT|INTERRES
   235  119  120 1    
   236  119  240 1    
   237  120  121 1    
   238  120  124 1    
   239  120  241 1    
   240  121  122 am   BACKBONE|DICT|INTERRES
   241  121  123 2    
   242  122  242 1    
   243  122  243 1    
   244  124  125 1    
   245  124  244 1    
   246  124  245 1    
   247  125  126 1    
   248  126  246 1    
   249  126  247 1    
@<TRIPOS>SUBSTRUCTURE
     1 UNK         1 GROUP             0       ****    0 ROOT    
