@<TRIPOS>MOLECULE
3R540
247   249    1
SMALL
USER_CHARGES


@<TRIPOS>ATOM
      1 CA         -1.0068  -12.6905  -50.5498 C.3       0 UNK        -0.1800 
      2 C           0.4170  -12.9945  -50.1060 C.2       0 UNK         0.5000 
      3 O           1.2957  -12.1422  -50.2324 O.2       0 UNK        -0.5000 
      4 N           0.6454  -14.2078  -49.5881 N.am      1 UNK        -0.5000 
      5 CA          1.9595  -14.7217  -49.1740 C.3       1 UNK         0.1400 
      6 C6          1.9717  -16.2644  -49.0695 C.3       23 UNK        -0.0398 
      7 S7          1.5016  -17.0980  -50.6225 S.3       23 UNK        -0.2404 
      8 C8          0.0479  -18.0556  -50.1027 C.3       23 UNK        -0.0205 
      9 C9         -1.2449  -17.2749  -50.2608 C.ar      23 UNK        -0.0193 
     10 C10        -1.9931  -17.4187  -51.4294 C.ar      23 UNK        -0.1150 
     11 C11        -3.2306  -16.7898  -51.5634 C.ar      23 UNK        -0.0193 
     12 C12        -3.7027  -15.9741  -50.5319 C.ar      23 UNK        -0.1150 
     13 C13        -2.9554  -15.8030  -49.3612 C.ar      23 UNK        -0.0193 
     14 C14        -1.7255  -16.4582  -49.2329 C.ar      23 UNK        -0.1150 
     15 C15        -3.4998  -14.9202  -48.2409 C.3       23 UNK        -0.0205 
     16 S16        -3.4991  -15.7045  -46.5892 S.3       23 UNK        -0.2404 
     17 C17        -4.2550  -17.3365  -46.9016 C.3       23 UNK        -0.0398 
     18 CA         -3.3591  -18.4704  -46.3430 C.3       11 UNK         0.1400 
     19 N          -3.5567  -18.6731  -44.9029 N.am      11 UNK        -0.5000 
     20 C          -2.8190  -19.4885  -44.1388 C.2       10 UNK         0.5000 
     21 O          -1.8287  -20.1024  -44.5451 O.2       10 UNK        -0.5000 
     22 CA         -3.3330  -19.7223  -42.7133 C.3       10 UNK         0.1400 
     23 CB         -4.3144  -20.9131  -42.7078 C.3       10 UNK        -0.1800 
     24 N          -2.1986  -19.9621  -41.8279 N.am      10 UNK        -0.5000 
     25 C          -2.2410  -20.0925  -40.4964 C.2       9 UNK         0.5000 
     26 O          -3.2869  -20.0608  -39.8454 O.2       9 UNK        -0.5000 
     27 CA         -0.8974  -20.2314  -39.7492 C.3       9 UNK         0.1400 
     28 CB         -0.9705  -21.2176  -38.5647 C.3       9 UNK        -0.1800 
     29 N           0.2486  -20.5180  -40.6167 N.am      9 UNK        -0.5000 
     30 C           0.5463  -21.6457  -41.2771 C.2       8 UNK         0.5000 
     31 O          -0.1310  -22.6722  -41.2288 O.2       8 UNK        -0.5000 
     32 CA          1.8195  -21.6228  -42.1511 C.3       8 UNK         0.1400 
     33 CB          1.4480  -21.6287  -43.6410 C.3       8 UNK        -0.1800 
     34 N           2.6903  -20.4725  -41.8859 N.am      8 UNK        -0.5000 
     35 C           3.4716  -20.3390  -40.8044 C.2       7 UNK         0.5000 
     36 O           3.5945  -21.2073  -39.9399 O.2       7 UNK        -0.5000 
     37 CA          4.2132  -18.9977  -40.6419 C.3       7 UNK         0.1400 
     38 CB          5.5208  -18.9998  -41.4475 C.3       7 UNK        -0.1800 
     39 N           3.3990  -17.8425  -41.0291 N.am      7 UNK        -0.5000 
     40 C           2.2885  -17.4414  -40.3922 C.2       6 UNK         0.5000 
     41 O           1.8508  -17.9809  -39.3763 O.2       6 UNK        -0.5000 
     42 CA          1.5005  -16.2787  -41.0261 C.3       6 UNK         0.1400 
     43 CB          2.1131  -14.9218  -40.6496 C.3       6 UNK        -0.1800 
     44 N           1.4101  -16.3949  -42.4817 N.am      6 UNK        -0.5000 
     45 C           0.7843  -17.3917  -43.1228 C.2       5 UNK         0.5000 
     46 O           0.1571  -18.2821  -42.5536 O.2       5 UNK        -0.5000 
     47 CA          0.9301  -17.4344  -44.6506 C.3       5 UNK         0.1400 
     48 CB         -0.1104  -16.5363  -45.3296 C.3       5 UNK        -0.1800 
     49 N           2.2813  -17.0658  -45.0788 N.am      5 UNK        -0.5000 
     50 C           3.3581  -17.8431  -44.8884 C.2       4 UNK         0.5000 
     51 O           3.2997  -18.9779  -44.4169 O.2       4 UNK        -0.5000 
     52 CA          4.7349  -17.2374  -45.2193 C.3       4 UNK         0.1400 
     53 CB          5.1479  -17.5302  -46.6668 C.3       4 UNK        -0.1800 
     54 N           4.7878  -15.7961  -44.9702 N.am      4 UNK        -0.5000 
     55 C           4.8352  -15.2655  -43.7402 C.2       3 UNK         0.5000 
     56 O           4.8668  -15.9414  -42.7124 O.2       3 UNK        -0.5000 
     57 CA          4.7961  -13.7297  -43.6300 C.3       3 UNK         0.1400 
     58 CB          6.2173  -13.1507  -43.6836 C.3       3 UNK        -0.1800 
     59 N           3.9727  -13.0821  -44.6531 N.am      3 UNK        -0.5000 
     60 C           2.6640  -13.2967  -44.8453 C.2       2 UNK         0.5000 
     61 O           2.0052  -14.0965  -44.1808 O.2       2 UNK        -0.5000 
     62 CA          1.9721  -12.5077  -45.9759 C.3       2 UNK         0.1400 
     63 CB          2.7516  -11.2506  -46.4217 C.3       2 UNK        -0.1800 
     64 N           1.6566  -13.3380  -47.1439 N.am      2 UNK        -0.5000 
     65 C           2.5024  -14.0862  -47.8706 C.2       1 UNK         0.5000 
     66 O           3.6771  -14.2875  -47.5560 O.2       1 UNK        -0.5000 
     67 C          -3.5662  -19.7803  -47.1237 C.2       11 UNK         0.5000 
     68 O          -2.7327  -20.1142  -47.9613 O.2       11 UNK        -0.5000 
     69 N          -4.6269  -20.5308  -46.7913 N.am      12 UNK        -0.5000 
     70 CA         -4.9476  -21.8213  -47.4070 C.3       12 UNK         0.1400 
     71 CB         -6.3432  -22.2703  -46.9504 C.3       12 UNK        -0.1800 
     72 C          -3.9061  -22.9202  -47.1204 C.2       12 UNK         0.5000 
     73 O          -3.7392  -23.8185  -47.9442 O.2       12 UNK        -0.5000 
     74 N          -3.2091  -22.8315  -45.9794 N.am      13 UNK        -0.5000 
     75 CA         -2.1226  -23.7447  -45.6248 C.3       13 UNK         0.1400 
     76 CB         -1.8217  -23.6430  -44.1225 C.3       13 UNK        -0.1800 
     77 C          -0.8620  -23.4887  -46.4695 C.2       13 UNK         0.5000 
     78 O          -0.2323  -24.4454  -46.9209 O.2       13 UNK        -0.5000 
     79 N          -0.5380  -22.2082  -46.6961 N.am      14 UNK        -0.5000 
     80 CA          0.5756  -21.7838  -47.5448 C.3       14 UNK         0.1400 
     81 CB          0.9523  -20.3346  -47.2047 C.3       14 UNK        -0.1800 
     82 C           0.2806  -21.9511  -49.0485 C.2       14 UNK         0.5000 
     83 O           1.1679  -22.3633  -49.7959 O.2       14 UNK        -0.5000 
     84 N          -0.9542  -21.6393  -49.4661 N.am      15 UNK        -0.5000 
     85 CA         -1.4196  -21.7331  -50.8526 C.3       15 UNK         0.1400 
     86 CB         -2.7190  -20.9285  -51.0026 C.3       15 UNK        -0.1800 
     87 C          -1.6526  -23.1746  -51.3377 C.2       15 UNK         0.5000 
     88 O          -1.6444  -23.3940  -52.5483 O.2       15 UNK        -0.5000 
     89 N          -1.8598  -24.1056  -50.3940 N.am      16 UNK        -0.5000 
     90 CA         -2.2630  -25.5014  -50.5809 C.3       16 UNK         0.1400 
     91 CB         -1.2582  -26.2850  -51.4527 C.3       16 UNK        -0.1800 
     92 C          -3.7192  -25.5888  -51.0793 C.2       16 UNK         0.5000 
     93 O          -3.9664  -25.9651  -52.2260 O.2       16 UNK        -0.5000 
     94 N          -4.6379  -25.2317  -50.1714 N.am      17 UNK        -0.5000 
     95 CA         -6.0905  -25.0809  -50.3100 C.3       17 UNK         0.1400 
     96 CB         -6.7450  -26.2423  -51.0899 C.3       17 UNK        -0.1800 
     97 C          -6.4792  -23.6935  -50.8554 C.2       17 UNK         0.5000 
     98 O          -5.6116  -22.8639  -51.1342 O.2       17 UNK        -0.5000 
     99 N          -7.7930  -23.4451  -50.9421 N.am      18 UNK        -0.5000 
    100 CA        -8.3784  -22.2003  -51.4434 C.3       18 UNK         0.1400 
    101 CB        -9.8912  -22.2166  -51.1758 C.3       18 UNK        -0.1800 
    102 C         -8.0947  -21.9916  -52.9427 C.2       18 UNK         0.5000 
    103 O         -8.0578  -22.9682  -53.6958 O.2       18 UNK        -0.5000 
    104 N         -7.9181  -20.7212  -53.3361 N.am      19 UNK        -0.5000 
    105 CA        -7.4418  -20.2543  -54.6427 C.3       19 UNK         0.1400 
    106 CB        -8.4288  -20.5997  -55.7799 C.3       19 UNK        -0.1800 
    107 C         -6.0030  -20.7448  -54.8852 C.2       19 UNK         0.5000 
    108 O         -5.0725  -20.0891  -54.4153 O.2       19 UNK        -0.5000 
    109 N         -5.8583  -21.8944  -55.5616 N.am      20 UNK        -0.5000 
    110 CA        -4.6351  -22.6816  -55.7430 C.3       20 UNK         0.1400 
    111 CB        -4.3022  -23.4208  -54.4319 C.3       20 UNK        -0.1800 
    112 C         -3.4678  -21.8425  -56.2982 C.2       20 UNK         0.5000 
    113 O         -3.4554  -21.5551  -57.4960 O.2       20 UNK        -0.5000 
    114 N         -2.5447  -21.4208  -55.4226 N.am      21 UNK        -0.5000 
    115 CA        -1.4276  -20.5190  -55.7165 C.3       21 UNK         0.1400 
    116 CB        -0.6092  -20.3132  -54.4326 C.3       21 UNK        -0.1800 
    117 C         -1.8431  -19.1568  -56.3154 C.2       21 UNK         0.5000 
    118 O         -1.0713  -18.5833  -57.0854 O.2       21 UNK        -0.5000 
    119 N         -3.0502  -18.6806  -55.9818 N.am      22 UNK        -0.5000 
    120 CA        -3.6764  -17.4885  -56.5798 C.3       22 UNK         0.1400 
    121 C         -4.4999  -17.7911  -57.8685 C.2       22 UNK         0.5000 
    122 N         -4.5841  -19.0251  -58.3516 N.am      22 UNK        -0.7600 
    123 O         -5.0699  -16.8781  -58.4598 O.2       22 UNK        -0.5000 
    124 C124       -4.5225  -16.6971  -55.5481 C.3       23 UNK        -0.0398 
    125 S125       -3.5102  -16.0085  -54.1952 S.3       23 UNK        -0.2404 
    126 C126       -4.0657  -17.0374  -52.8069 C.3       23 UNK        -0.0205 
    127 H127       -1.5945  -13.6007  -50.6675 H         1 UNK         0.0600 
    128 H128       -1.0004  -12.1719  -51.5085 H         1 UNK         0.0600 
    129 H129       -1.5016  -12.0521  -49.8180 H         1 UNK         0.0600 
    130 H130       -0.1118  -14.8762  -49.5596 H         1 UNK         0.3000 
    131 H131        2.6709  -14.4472  -49.9560 H         1 UNK         0.0600 
    132 H132        1.3387  -16.6007  -48.2489 H         1 UNK         0.0800 
    133 H133        2.9755  -16.6149  -48.8377 H         1 UNK         0.0800 
    134 H134        0.0046  -18.9650  -50.7033 H         1 UNK         0.0800 
    135 H135        0.1557  -18.3886  -49.0730 H         1 UNK         0.0800 
    136 H136       -1.6293  -18.0516  -52.2256 H         1 UNK         0.1150 
    137 H137       -4.6607  -15.4845  -50.6370 H         1 UNK         0.1150 
    138 H138       -1.1584  -16.3502  -48.3222 H         1 UNK         0.1150 
    139 H139       -2.9050  -14.0073  -48.1944 H         1 UNK         0.0800 
    140 H140       -4.5207  -14.6072  -48.4648 H         1 UNK         0.0800 
    141 H141       -4.4252  -17.4560  -47.9722 H         1 UNK         0.0800 
    142 H142       -5.2474  -17.3605  -46.4489 H         1 UNK         0.0800 
    143 H143       -2.3131  -18.1987  -46.4995 H         1 UNK         0.0600 
    144 H144       -4.3461  -18.1967  -44.4911 H         1 UNK         0.3000 
    145 H145       -3.8483  -18.8217  -42.3741 H         1 UNK         0.0600 
    146 H146       -4.8127  -21.0213  -41.7450 H         1 UNK         0.0600 
    147 H147       -5.0993  -20.7839  -43.4540 H         1 UNK         0.0600 
    148 H148       -3.8062  -21.8520  -42.9243 H         1 UNK         0.0600 
    149 H149       -1.2926  -19.9174  -42.2836 H         1 UNK         0.3000 
    150 H150       -0.6975  -19.2440  -39.3313 H         1 UNK         0.0600 
    151 H151       -0.0093  -21.2951  -38.0563 H         1 UNK         0.0600 
    152 H152       -1.7007  -20.8867  -37.8255 H         1 UNK         0.0600 
    153 H153       -1.2647  -22.2172  -38.8850 H         1 UNK         0.0600 
    154 H154        0.8562  -19.7258  -40.7806 H         1 UNK         0.3000 
    155 H155        2.3803  -22.5350  -41.9380 H         1 UNK         0.0600 
    156 H156        0.8306  -20.7689  -43.9029 H         1 UNK         0.0600 
    157 H157        0.8897  -22.5272  -43.9011 H         1 UNK         0.0600 
    158 H158        2.3369  -21.6108  -44.2715 H         1 UNK         0.0600 
    159 H159        2.6985  -19.7420  -42.5899 H         1 UNK         0.3000 
    160 H160        4.4674  -18.8857  -39.5859 H         1 UNK         0.0600 
    161 H161        5.3347  -19.0993  -42.5168 H         1 UNK         0.0600 
    162 H162        6.1624  -19.8293  -41.1478 H         1 UNK         0.0600 
    163 H163        6.0837  -18.0798  -41.2891 H         1 UNK         0.0600 
    164 H164        3.7325  -17.2959  -41.8168 H         1 UNK         0.3000 
    165 H165        0.4835  -16.3113  -40.6293 H         1 UNK         0.0600 
    166 H166        1.5460  -14.0981  -41.0838 H         1 UNK         0.0600 
    167 H167        2.1138  -14.7834  -39.5678 H         1 UNK         0.0600 
    168 H168        3.1442  -14.8342  -40.9897 H         1 UNK         0.0600 
    169 H169        1.8447  -15.6611  -43.0332 H         1 UNK         0.3000 
    170 H170        0.7309  -18.4607  -44.9617 H         1 UNK         0.0600 
    171 H171       -1.1121  -16.7635  -44.9643 H         1 UNK         0.0600 
    172 H172        0.0673  -15.4780  -45.1449 H         1 UNK         0.0600 
    173 H173       -0.1126  -16.6960  -46.4043 H         1 UNK         0.0600 
    174 H174        2.4186  -16.1135  -45.3851 H         1 UNK         0.3000 
    175 H175        5.4638  -17.7261  -44.5695 H         1 UNK         0.0600 
    176 H176        4.5567  -16.9558  -47.3748 H         1 UNK         0.0600 
    177 H177        6.1954  -17.2775  -46.8315 H         1 UNK         0.0600 
    178 H178        5.0259  -18.5871  -46.9081 H         1 UNK         0.0600 
    179 H179        4.7216  -15.1809  -45.7730 H         1 UNK         0.3000 
    180 H180        4.3648  -13.4823  -42.6583 H         1 UNK         0.0600 
    181 H181        6.6905  -13.3346  -44.6490 H         1 UNK         0.0600 
    182 H182        6.8507  -13.5985  -42.9165 H         1 UNK         0.0600 
    183 H183        6.2121  -12.0744  -43.5108 H         1 UNK         0.0600 
    184 H184        4.4436  -12.4340  -45.2673 H         1 UNK         0.3000 
    185 H185        1.0176  -12.1729  -45.5672 H         1 UNK         0.0600 
    186 H186        2.9720  -10.6004  -45.5739 H         1 UNK         0.0600 
    187 H187        3.6953  -11.4989  -46.9086 H         1 UNK         0.0600 
    188 H188        2.1654  -10.6644  -47.1297 H         1 UNK         0.0600 
    189 H189        0.7060  -13.2702  -47.4773 H         1 UNK         0.3000 
    190 H190       -5.2599  -20.1970  -46.0798 H         1 UNK         0.3000 
    191 H191       -4.9773  -21.6779  -48.4891 H         1 UNK         0.0600 
    192 H192       -7.1039  -21.5429  -47.2345 H         1 UNK         0.0600 
    193 H193       -6.6184  -23.2203  -47.4104 H         1 UNK         0.0600 
    194 H194       -6.3900  -22.4029  -45.8688 H         1 UNK         0.0600 
    195 H195       -3.3706  -22.0481  -45.3653 H         1 UNK         0.3000 
    196 H196       -2.4516  -24.7666  -45.8265 H         1 UNK         0.0600 
    197 H197       -0.9966  -24.2994  -43.8432 H         1 UNK         0.0600 
    198 H198       -2.6847  -23.9420  -43.5279 H         1 UNK         0.0600 
    199 H199       -1.5469  -22.6306  -43.8280 H         1 UNK         0.0600 
    200 H200       -1.1008  -21.4783  -46.2772 H         1 UNK         0.3000 
    201 H201        1.4417  -22.4090  -47.3162 H         1 UNK         0.0600 
    202 H202        1.4283  -20.2816  -46.2273 H         1 UNK         0.0600 
    203 H203        0.0774  -19.6844  -47.1852 H         1 UNK         0.0600 
    204 H204        1.6635  -19.9275  -47.9246 H         1 UNK         0.0600 
    205 H205       -1.6108  -21.2313  -48.8024 H         1 UNK         0.3000 
    206 H206       -0.6612  -21.2838  -51.4962 H         1 UNK         0.0600 
    207 H207       -2.5946  -19.9045  -50.6597 H         1 UNK         0.0600 
    208 H208       -3.0476  -20.8912  -52.0420 H         1 UNK         0.0600 
    209 H209       -3.5268  -21.3693  -50.4193 H         1 UNK         0.0600 
    210 H210       -1.8797  -23.7831  -49.4359 H         1 UNK         0.3000 
    211 H211       -2.2410  -25.9546  -49.5883 H         1 UNK         0.0600 
    212 H212       -1.2530  -25.9454  -52.4885 H         1 UNK         0.0600 
    213 H213       -1.5076  -27.3464  -51.4647 H         1 UNK         0.0600 
    214 H214       -0.2441  -26.1927  -51.0640 H         1 UNK         0.0600 
    215 H215       -4.2767  -24.8489  -49.2984 H         1 UNK         0.3000 
    216 H216       -6.4727  -25.1213  -49.2891 H         1 UNK         0.0600 
    217 H217       -7.8261  -26.2510  -50.9499 H         1 UNK         0.0600 
    218 H218       -6.3711  -27.2086  -50.7511 H         1 UNK         0.0600 
    219 H219       -6.5611  -26.1652  -52.1620 H         1 UNK         0.0600 
    220 H220       -8.4444  -24.1813  -50.7148 H         1 UNK         0.3000 
    221 H221       -7.9352  -21.3737  -50.8837 H         1 UNK         0.0600 
    222 H222      -10.3826  -23.0390  -51.6975 H         1 UNK         0.0600 
    223 H223      -10.1035  -22.3182  -50.1113 H         1 UNK         0.0600 
    224 H224      -10.3579  -21.2899  -51.5122 H         1 UNK         0.0600 
    225 H225       -7.9738  -20.0011  -52.6296 H         1 UNK         0.3000 
    226 H226       -7.3893  -19.1660  -54.5817 H         1 UNK         0.0600 
    227 H227       -9.3999  -20.1378  -55.6019 H         1 UNK         0.0600 
    228 H228       -8.0634  -20.2226  -56.7360 H         1 UNK         0.0600 
    229 H229       -8.5924  -21.6711  -55.8921 H         1 UNK         0.0600 
    230 H230       -6.7049  -22.3416  -55.8837 H         1 UNK         0.3000 
    231 H231       -4.8575  -23.4367  -56.4982 H         1 UNK         0.0600 
    232 H232       -4.1466  -22.7364  -53.5972 H         1 UNK         0.0600 
    233 H233       -3.4047  -24.0310  -54.5383 H         1 UNK         0.0600 
    234 H234       -5.1127  -24.0922  -54.1473 H         1 UNK         0.0600 
    235 H235       -2.6472  -21.7066  -54.4589 H         1 UNK         0.3000 
    236 H236       -0.7926  -21.0164  -56.4520 H         1 UNK         0.0600 
    237 H237       -0.2097  -21.2584  -54.0644 H         1 UNK         0.0600 
    238 H238        0.2378  -19.6485  -54.6073 H         1 UNK         0.0600 
    239 H239       -1.2153  -19.8735  -53.6408 H         1 UNK         0.0600 
    240 H240       -3.6385  -19.2262  -55.3575 H         1 UNK         0.3000 
    241 H241       -2.8831  -16.8163  -56.9120 H         1 UNK         0.0600 
    242 H242       -4.0985  -19.8058  -57.9205 H         1 UNK         0.3800 
    243 H243       -5.1161  -19.1832  -59.1924 H         1 UNK         0.3800 
    244 H244       -5.3188  -17.3244  -55.1447 H         1 UNK         0.0800 
    245 H245       -5.0199  -15.8509  -56.0251 H         1 UNK         0.0800 
    246 H246       -3.9914  -18.0901  -53.0821 H         1 UNK         0.0800 
    247 H247       -5.1203  -16.8425  -52.6068 H         1 UNK         0.0800 
@<TRIPOS>BOND
     1    1    2 1    
     2    1  127 1    
     3    1  128 1    
     4    1  129 1    
     5    2    3 2    
     6    2    4 am   BACKBONE|DICT|INTERRES
     7    4    5 1    
     8    4  130 1    
     9    5    6 1    
    10    5   65 1    
    11    5  131 1    
    12    6    7 1    
    13    6  132 1    
    14    6  133 1    
    15    7    8 1    
    16    8    9 1    
    17    8  134 1    
    18    8  135 1    
    19    9   10 ar   
    20    9   14 ar   
    21   10   11 ar   
    22   10  136 1    
    23   11   12 ar   
    24   11  126 1    
    25   12   13 ar   
    26   12  137 1    
    27   13   14 ar   
    28   13   15 1    
    29   14  138 1    
    30   15   16 1    
    31   15  139 1    
    32   15  140 1    
    33   16   17 1    
    34   17   18 1    
    35   17  141 1    
    36   17  142 1    
    37   18   19 1    
    38   18   67 1    
    39   18  143 1    
    40   19   20 am   BACKBONE|DICT|INTERRES
    41   19  144 1    
    42   20   21 2    
    43   20   22 1    
    44   22   23 1    
    45   22   24 1    
    46   22  145 1    
    47   23  146 1    
    48   23  147 1    
    49   23  148 1    
    50   24   25 am   BACKBONE|DICT|INTERRES
    51   24  149 1    
    52   25   26 2    
    53   25   27 1    
    54   27   28 1    
    55   27   29 1    
    56   27  150 1    
    57   28  151 1    
    58   28  152 1    
    59   28  153 1    
    60   29   30 am   BACKBONE|DICT|INTERRES
    61   29  154 1    
    62   30   31 2    
    63   30   32 1    
    64   32   33 1    
    65   32   34 1    
    66   32  155 1    
    67   33  156 1    
    68   33  157 1    
    69   33  158 1    
    70   34   35 am   BACKBONE|DICT|INTERRES
    71   34  159 1    
    72   35   36 2    
    73   35   37 1    
    74   37   38 1    
    75   37   39 1    
    76   37  160 1    
    77   38  161 1    
    78   38  162 1    
    79   38  163 1    
    80   39   40 am   BACKBONE|DICT|INTERRES
    81   39  164 1    
    82   40   41 2    
    83   40   42 1    
    84   42   43 1    
    85   42   44 1    
    86   42  165 1    
    87   43  166 1    
    88   43  167 1    
    89   43  168 1    
    90   44   45 am   BACKBONE|DICT|INTERRES
    91   44  169 1    
    92   45   46 2    
    93   45   47 1    
    94   47   48 1    
    95   47   49 1    
    96   47  170 1    
    97   48  171 1    
    98   48  172 1    
    99   48  173 1    
   100   49   50 am   BACKBONE|DICT|INTERRES
   101   49  174 1    
   102   50   51 2    
   103   50   52 1    
   104   52   53 1    
   105   52   54 1    
   106   52  175 1    
   107   53  176 1    
   108   53  177 1    
   109   53  178 1    
   110   54   55 am   BACKBONE|DICT|INTERRES
   111   54  179 1    
   112   55   56 2    
   113   55   57 1    
   114   57   58 1    
   115   57   59 1    
   116   57  180 1    
   117   58  181 1    
   118   58  182 1    
   119   58  183 1    
   120   59   60 am   BACKBONE|DICT|INTERRES
   121   59  184 1    
   122   60   61 2    
   123   60   62 1    
   124   62   63 1    
   125   62   64 1    
   126   62  185 1    
   127   63  186 1    
   128   63  187 1    
   129   63  188 1    
   130   64   65 am   BACKBONE|DICT|INTERRES
   131   64  189 1    
   132   65   66 2    
   133   67   68 2    
   134   67   69 am   BACKBONE|DICT|INTERRES
   135   69   70 1    
   136   69  190 1    
   137   70   71 1    
   138   70   72 1    
   139   70  191 1    
   140   71  192 1    
   141   71  193 1    
   142   71  194 1    
   143   72   73 2    
   144   72   74 am   BACKBONE|DICT|INTERRES
   145   74   75 1    
   146   74  195 1    
   147   75   76 1    
   148   75   77 1    
   149   75  196 1    
   150   76  197 1    
   151   76  198 1    
   152   76  199 1    
   153   77   78 2    
   154   77   79 am   BACKBONE|DICT|INTERRES
   155   79   80 1    
   156   79  200 1    
   157   80   81 1    
   158   80   82 1    
   159   80  201 1    
   160   81  202 1    
   161   81  203 1    
   162   81  204 1    
   163   82   83 2    
   164   82   84 am   BACKBONE|DICT|INTERRES
   165   84   85 1    
   166   84  205 1    
   167   85   86 1    
   168   85   87 1    
   169   85  206 1    
   170   86  207 1    
   171   86  208 1    
   172   86  209 1    
   173   87   88 2    
   174   87   89 am   BACKBONE|DICT|INTERRES
   175   89   90 1    
   176   89  210 1    
   177   90   91 1    
   178   90   92 1    
   179   90  211 1    
   180   91  212 1    
   181   91  213 1    
   182   91  214 1    
   183   92   93 2    
   184   92   94 am   BACKBONE|DICT|INTERRES
   185   94   95 1    
   186   94  215 1    
   187   95   96 1    
   188   95   97 1    
   189   95  216 1    
   190   96  217 1    
   191   96  218 1    
   192   96  219 1    
   193   97   98 2    
   194   97   99 am   BACKBONE|DICT|INTERRES
   195   99  100 1    
   196   99  220 1    
   197  100  101 1    
   198  100  102 1    
   199  100  221 1    
   200  101  222 1    
   201  101  223 1    
   202  101  224 1    
   203  102  103 2    
   204  102  104 am   BACKBONE|DICT|INTERRES
   205  104  105 1    
   206  104  225 1    
   207  105  106 1    
   208  105  107 1    
   209  105  226 1    
   210  106  227 1    
   211  106  228 1    
   212  106  229 1    
   213  107  108 2    
   214  107  109 am   BACKBONE|DICT|INTERRES
   215  109  110 1    
   216  109  230 1    
   217  110  111 1    
   218  110  112 1    
   219  110  231 1    
   220  111  232 1    
   221  111  233 1    
   222  111  234 1    
   223  112  113 2    
   224  112  114 am   BACKBONE|DICT|INTERRES
   225  114  115 1    
   226  114  235 1    
   227  115  116 1    
   228  115  117 1    
   229  115  236 1    
   230  116  237 1    
   231  116  238 1    
   232  116  239 1    
   233  117  118 2    
   234  117  119 am   BACKBONE|DICT|INTERRES
   235  119  120 1    
   236  119  240 1    
   237  120  121 1    
   238  120  124 1    
   239  120  241 1    
   240  121  122 am   BACKBONE|DICT|INTERRES
   241  121  123 2    
   242  122  242 1    
   243  122  243 1    
   244  124  125 1    
   245  124  244 1    
   246  124  245 1    
   247  125  126 1    
   248  126  246 1    
   249  126  247 1    
@<TRIPOS>SUBSTRUCTURE
     1 UNK         1 GROUP             0       ****    0 ROOT    
