@<TRIPOS>MOLECULE
3R540
247   249    1
SMALL
USER_CHARGES


@<TRIPOS>ATOM
      1 CA          2.9065  -11.7327  -44.9937 C.3       0 UNK        -0.1800 
      2 C           2.0985  -12.4208  -46.0831 C.2       0 UNK         0.5000 
      3 O           1.9783  -13.6447  -46.0702 O.2       0 UNK        -0.5000 
      4 N           1.5576  -11.6495  -47.0356 N.am      1 UNK        -0.5000 
      5 CA          0.7349  -12.0771  -48.1807 C.3       1 UNK         0.1400 
      6 C6         -0.5173  -12.8993  -47.7635 C.3       23 UNK        -0.0398 
      7 S7         -1.9811  -12.5235  -48.7837 S.3       23 UNK        -0.2404 
      8 C8         -2.7107  -14.1792  -49.0282 C.3       23 UNK        -0.0205 
      9 C9         -1.8789  -15.0967  -49.9188 C.ar      23 UNK        -0.0193 
     10 C10        -1.3217  -14.6254  -51.1113 C.ar      23 UNK        -0.1150 
     11 C11        -0.5703  -15.4679  -51.9339 C.ar      23 UNK        -0.0193 
     12 C12        -0.3910  -16.8035  -51.5632 C.ar      23 UNK        -0.1150 
     13 C13        -0.9395  -17.2897  -50.3719 C.ar      23 UNK        -0.0193 
     14 C14        -1.6862  -16.4336  -49.5574 C.ar      23 UNK        -0.1150 
     15 C15        -0.7229  -18.7398  -49.9703 C.3       23 UNK        -0.0205 
     16 S16         0.7627  -18.9374  -48.9327 S.3       23 UNK        -0.2404 
     17 C17         0.0819  -18.9115  -47.2359 C.3       23 UNK        -0.0398 
     18 CA         -0.1070  -20.3372  -46.6576 C.3       11 UNK         0.1400 
     19 N          -0.0977  -20.3806  -45.1909 N.am      11 UNK        -0.5000 
     20 C           0.0932  -21.5113  -44.4935 C.2       10 UNK         0.5000 
     21 O           0.2939  -22.6104  -45.0141 O.2       10 UNK        -0.5000 
     22 CA         -0.0003  -21.4044  -42.9604 C.3       10 UNK         0.1400 
     23 CB          1.2536  -20.7282  -42.3859 C.3       10 UNK        -0.1800 
     24 N          -1.2007  -20.7102  -42.4784 N.am      10 UNK        -0.5000 
     25 C          -2.4625  -21.0933  -42.7373 C.2       9 UNK         0.5000 
     26 O          -2.7378  -22.0174  -43.5016 O.2       9 UNK        -0.5000 
     27 CA         -3.6063  -20.3429  -42.0265 C.3       9 UNK         0.1400 
     28 CB         -4.8264  -21.2435  -41.7540 C.3       9 UNK        -0.1800 
     29 N          -3.1466  -19.7567  -40.7708 N.am      9 UNK        -0.5000 
     30 C          -3.5201  -18.5682  -40.2850 C.2       8 UNK         0.5000 
     31 O          -4.3721  -17.8481  -40.8075 O.2       8 UNK        -0.5000 
     32 CA         -2.7871  -18.0735  -39.0200 C.3       8 UNK         0.1400 
     33 CB         -2.3010  -19.2130  -38.0960 C.3       8 UNK        -0.1800 
     34 N          -1.6817  -17.1723  -39.3658 N.am      8 UNK        -0.5000 
     35 C          -0.6432  -17.4508  -40.1662 C.2       7 UNK         0.5000 
     36 O          -0.4279  -18.5613  -40.6599 O.2       7 UNK        -0.5000 
     37 CA          0.3203  -16.2938  -40.4780 C.3       7 UNK         0.1400 
     38 CB          1.5846  -16.3911  -39.6119 C.3       7 UNK        -0.1800 
     39 N           0.7044  -16.3415  -41.8855 N.am      7 UNK        -0.5000 
     40 C          -0.0970  -16.0322  -42.9102 C.2       6 UNK         0.5000 
     41 O          -1.1984  -15.4992  -42.7648 O.2       6 UNK        -0.5000 
     42 CA          0.4088  -16.3996  -44.3243 C.3       6 UNK         0.1400 
     43 CB         -0.4875  -15.8227  -45.4357 C.3       6 UNK        -0.1800 
     44 N           1.7928  -15.9968  -44.5848 N.am      6 UNK        -0.5000 
     45 C           2.8969  -16.5647  -44.0860 C.2       5 UNK         0.5000 
     46 O           2.8721  -17.5088  -43.2947 O.2       5 UNK        -0.5000 
     47 CA          4.2380  -15.9697  -44.5527 C.3       5 UNK         0.1400 
     48 CB          5.2781  -15.8974  -43.4166 C.3       5 UNK        -0.1800 
     49 N           4.7665  -16.6773  -45.7221 N.am      5 UNK        -0.5000 
     50 C           5.1674  -17.9576  -45.8141 C.2       4 UNK         0.5000 
     51 O           5.2029  -18.7450  -44.8688 O.2       4 UNK        -0.5000 
     52 CA          5.6137  -18.4632  -47.2034 C.3       4 UNK         0.1400 
     53 CB          4.5110  -19.3311  -47.8301 C.3       4 UNK        -0.1800 
     54 N           5.9508  -17.3926  -48.1414 N.am      4 UNK        -0.5000 
     55 C           7.0172  -16.5852  -48.0520 C.2       3 UNK         0.5000 
     56 O           7.9115  -16.7250  -47.2173 O.2       3 UNK        -0.5000 
     57 CA          7.0800  -15.4039  -49.0452 C.3       3 UNK         0.1400 
     58 CB          8.0684  -15.7090  -50.1812 C.3       3 UNK        -0.1800 
     59 N           5.7826  -15.0371  -49.6293 N.am      3 UNK        -0.5000 
     60 C           4.7196  -14.6033  -48.9388 C.2       2 UNK         0.5000 
     61 O           4.7124  -14.4650  -47.7124 O.2       2 UNK        -0.5000 
     62 CA          3.4416  -14.3462  -49.7481 C.3       2 UNK         0.1400 
     63 CB          2.8204  -15.6711  -50.2180 C.3       2 UNK        -0.1800 
     64 N           2.4878  -13.6412  -48.9041 N.am      2 UNK        -0.5000 
     65 C           1.5522  -12.7728  -49.2959 C.2       1 UNK         0.5000 
     66 O           1.3517  -12.4760  -50.4744 O.2       1 UNK        -0.5000 
     67 C          -1.3671  -21.0153  -47.2257 C.2       11 UNK         0.5000 
     68 O          -1.2675  -21.7027  -48.2369 O.2       11 UNK        -0.5000 
     69 N          -2.5193  -20.8442  -46.5595 N.am      12 UNK        -0.5000 
     70 CA         -3.7910  -21.4556  -46.9514 C.3       12 UNK         0.1400 
     71 CB         -4.9284  -20.9173  -46.0719 C.3       12 UNK        -0.1800 
     72 C          -3.7443  -22.9926  -46.9164 C.2       12 UNK         0.5000 
     73 O          -4.2134  -23.6299  -47.8589 O.2       12 UNK        -0.5000 
     74 N          -3.1387  -23.5537  -45.8618 N.am      13 UNK        -0.5000 
     75 CA         -2.8888  -24.9855  -45.7068 C.3       13 UNK         0.1400 
     76 CB         -2.3318  -25.2593  -44.3017 C.3       13 UNK        -0.1800 
     77 C          -1.9461  -25.5364  -46.7915 C.2       13 UNK         0.5000 
     78 O          -2.2589  -26.5594  -47.4024 O.2       13 UNK        -0.5000 
     79 N          -0.8387  -24.8226  -47.0461 N.am      14 UNK        -0.5000 
     80 CA          0.1326  -25.1401  -48.0982 C.3       14 UNK         0.1400 
     81 CB          1.3463  -24.2075  -47.9679 C.3       14 UNK        -0.1800 
     82 C          -0.4671  -25.0593  -49.5165 C.2       14 UNK         0.5000 
     83 O          -0.1296  -25.8764  -50.3730 O.2       14 UNK        -0.5000 
     84 N          -1.3770  -24.0999  -49.7193 N.am      15 UNK        -0.5000 
     85 CA         -2.1245  -23.8544  -50.9500 C.3       15 UNK         0.1400 
     86 CB         -2.5082  -22.3673  -50.9945 C.3       15 UNK        -0.1800 
     87 C          -3.3672  -24.7528  -51.1247 C.2       15 UNK         0.5000 
     88 O          -4.1881  -24.4572  -51.9950 O.2       15 UNK        -0.5000 
     89 N          -3.4917  -25.8143  -50.3131 N.am      16 UNK        -0.5000 
     90 CA         -4.5409  -26.8380  -50.3409 C.3       16 UNK         0.1400 
     91 CB         -4.4796  -27.6475  -51.6538 C.3       16 UNK        -0.1800 
     92 C          -5.9370  -26.2520  -50.0562 C.2       16 UNK         0.5000 
     93 O          -6.8303  -26.3253  -50.9009 O.2       16 UNK        -0.5000 
     94 N          -6.0761  -25.6561  -48.8642 N.am      17 UNK        -0.5000 
     95 CA         -7.2571  -24.9469  -48.3577 C.3       17 UNK         0.1400 
     96 CB         -8.4739  -25.8876  -48.2285 C.3       17 UNK        -0.1800 
     97 C          -7.5470  -23.6679  -49.1684 C.2       17 UNK         0.5000 
     98 O          -8.6961  -23.3897  -49.5149 O.2       17 UNK        -0.5000 
     99 N          -6.4698  -22.9216  -49.4517 N.am      18 UNK        -0.5000 
    100 CA        -6.4199  -21.6538  -50.1850 C.3       18 UNK         0.1400 
    101 CB        -7.1571  -20.5422  -49.4093 C.3       18 UNK        -0.1800 
    102 C         -6.8703  -21.7504  -51.6584 C.2       18 UNK         0.5000 
    103 O         -7.2502  -20.7361  -52.2438 O.2       18 UNK        -0.5000 
    104 N         -6.7914  -22.9487  -52.2525 N.am      19 UNK        -0.5000 
    105 CA        -7.1192  -23.1973  -53.6568 C.3       19 UNK         0.1400 
    106 CB        -7.2355  -24.7105  -53.8933 C.3       19 UNK        -0.1800 
    107 C         -6.0900  -22.5723  -54.6158 C.2       19 UNK         0.5000 
    108 O         -6.4750  -22.0165  -55.6449 O.2       19 UNK        -0.5000 
    109 N         -4.8059  -22.6593  -54.2464 N.am      20 UNK        -0.5000 
    110 CA        -3.6770  -22.1126  -55.0037 C.3       20 UNK         0.1400 
    111 CB        -2.5204  -23.1247  -54.9472 C.3       20 UNK        -0.1800 
    112 C         -3.2228  -20.7257  -54.4993 C.2       20 UNK         0.5000 
    113 O         -2.2464  -20.1894  -55.0253 O.2       20 UNK        -0.5000 
    114 N         -3.9019  -20.1752  -53.4823 N.am      21 UNK        -0.5000 
    115 CA        -3.5966  -18.8709  -52.8915 C.3       21 UNK         0.1400 
    116 CB        -4.2508  -18.7751  -51.5047 C.3       21 UNK        -0.1800 
    117 C         -4.0551  -17.7138  -53.7975 C.2       21 UNK         0.5000 
    118 O         -4.9614  -17.8878  -54.6163 O.2       21 UNK        -0.5000 
    119 N         -3.4210  -16.5496  -53.6258 N.am      22 UNK        -0.5000 
    120 CA        -3.6230  -15.3596  -54.4717 C.3       22 UNK         0.1400 
    121 C         -4.9253  -14.5567  -54.1800 C.2       22 UNK         0.5000 
    122 N         -5.6756  -14.8596  -53.1278 N.am      22 UNK        -0.7600 
    123 O         -5.2643  -13.6433  -54.9276 O.2       22 UNK        -0.5000 
    124 C124       -2.3872  -14.4208  -54.4715 C.3       23 UNK        -0.0398 
    125 S125       -0.8054  -15.3051  -54.7188 S.3       23 UNK        -0.2404 
    126 C126        0.0986  -14.9139  -53.1859 C.3       23 UNK        -0.0205 
    127 H127        3.9349  -12.0937  -45.0089 H         1 UNK         0.0600 
    128 H128        2.4803  -11.9551  -44.0155 H         1 UNK         0.0600 
    129 H129        2.9220  -10.6503  -45.1218 H         1 UNK         0.0600 
    130 H130        1.7277  -10.6540  -46.9956 H         1 UNK         0.3000 
    131 H131        0.3883  -11.1352  -48.6095 H         1 UNK         0.0600 
    132 H132       -0.3080  -13.9701  -47.7747 H         1 UNK         0.0800 
    133 H133       -0.7970  -12.6645  -46.7359 H         1 UNK         0.0800 
    134 H134       -2.8769  -14.6347  -48.0506 H         1 UNK         0.0800 
    135 H135       -3.6944  -14.0610  -49.4843 H         1 UNK         0.0800 
    136 H136       -1.4541  -13.5894  -51.3887 H         1 UNK         0.1150 
    137 H137        0.1991  -17.4575  -52.1901 H         1 UNK         0.1150 
    138 H138       -2.1167  -16.8092  -48.6402 H         1 UNK         0.1150 
    139 H139       -1.6056  -19.1280  -49.4615 H         1 UNK         0.0800 
    140 H140       -0.6023  -19.3536  -50.8641 H         1 UNK         0.0800 
    141 H141       -0.8393  -18.3285  -47.1969 H         1 UNK         0.0800 
    142 H142        0.8107  -18.3700  -46.6324 H         1 UNK         0.0800 
    143 H143        0.7478  -20.9334  -46.9861 H         1 UNK         0.0600 
    144 H144       -0.2782  -19.5250  -44.6904 H         1 UNK         0.3000 
    145 H145       -0.0387  -22.4232  -42.5693 H         1 UNK         0.0600 
    146 H146        1.2611  -20.7739  -41.2968 H         1 UNK         0.0600 
    147 H147        2.1626  -21.2180  -42.7377 H         1 UNK         0.0600 
    148 H148        1.3133  -19.6783  -42.6741 H         1 UNK         0.0600 
    149 H149       -1.0367  -19.9243  -41.8531 H         1 UNK         0.3000 
    150 H150       -3.9109  -19.5483  -42.7105 H         1 UNK         0.0600 
    151 H151       -5.6325  -20.6823  -41.2812 H         1 UNK         0.0600 
    152 H152       -4.5684  -22.0760  -41.0985 H         1 UNK         0.0600 
    153 H153       -5.2268  -21.6634  -42.6771 H         1 UNK         0.0600 
    154 H154       -2.4137  -20.2597  -40.2896 H         1 UNK         0.3000 
    155 H155       -3.5098  -17.4818  -38.4560 H         1 UNK         0.0600 
    156 H156       -1.5097  -19.8127  -38.5460 H         1 UNK         0.0600 
    157 H157       -1.9127  -18.8115  -37.1601 H         1 UNK         0.0600 
    158 H158       -3.1212  -19.8854  -37.8410 H         1 UNK         0.0600 
    159 H159       -1.7820  -16.2248  -39.0293 H         1 UNK         0.3000 
    160 H160       -0.1740  -15.3410  -40.2773 H         1 UNK         0.0600 
    161 H161        2.1189  -17.3266  -39.7846 H         1 UNK         0.0600 
    162 H162        1.3358  -16.3451  -38.5509 H         1 UNK         0.0600 
    163 H163        2.2705  -15.5703  -39.8220 H         1 UNK         0.0600 
    164 H164        1.5695  -16.8272  -42.1058 H         1 UNK         0.3000 
    165 H165        0.3627  -17.4870  -44.3925 H         1 UNK         0.0600 
    166 H166       -0.0989  -16.0558  -46.4268 H         1 UNK         0.0600 
    167 H167       -1.4987  -16.2268  -45.3771 H         1 UNK         0.0600 
    168 H168       -0.5624  -14.7379  -45.3576 H         1 UNK         0.0600 
    169 H169        1.8995  -15.1824  -45.1898 H         1 UNK         0.3000 
    170 H170        4.0529  -14.9452  -44.8785 H         1 UNK         0.0600 
    171 H171        5.5201  -16.8811  -43.0138 H         1 UNK         0.0600 
    172 H172        6.2053  -15.4400  -43.7621 H         1 UNK         0.0600 
    173 H173        4.9041  -15.2926  -42.5899 H         1 UNK         0.0600 
    174 H174        4.7903  -16.1139  -46.5658 H         1 UNK         0.3000 
    175 H175        6.5008  -19.0834  -47.0592 H         1 UNK         0.0600 
    176 H176        4.8337  -19.7591  -48.7793 H         1 UNK         0.0600 
    177 H177        3.6055  -18.7521  -48.0122 H         1 UNK         0.0600 
    178 H178        4.2426  -20.1609  -47.1748 H         1 UNK         0.0600 
    179 H179        5.2800  -17.2076  -48.8717 H         1 UNK         0.3000 
    180 H180        7.4503  -14.5383  -48.4920 H         1 UNK         0.0600 
    181 H181        7.7365  -16.5533  -50.7868 H         1 UNK         0.0600 
    182 H182        9.0548  -15.9562  -49.7862 H         1 UNK         0.0600 
    183 H183        8.1911  -14.8492  -50.8401 H         1 UNK         0.0600 
    184 H184        5.7049  -15.1347  -50.6317 H         1 UNK         0.3000 
    185 H185        3.6997  -13.7282  -50.6104 H         1 UNK         0.0600 
    186 H186        2.5354  -16.3050  -49.3771 H         1 UNK         0.0600 
    187 H187        1.9278  -15.4832  -50.8084 H         1 UNK         0.0600 
    188 H188        3.5069  -16.2390  -50.8464 H         1 UNK         0.0600 
    189 H189        2.6148  -13.7915  -47.9060 H         1 UNK         0.3000 
    190 H190       -2.5160  -20.3081  -45.7059 H         1 UNK         0.3000 
    191 H191       -3.9966  -21.1584  -47.9816 H         1 UNK         0.0600 
    192 H192       -5.0439  -19.8402  -46.1926 H         1 UNK         0.0600 
    193 H193       -5.8800  -21.3790  -46.3381 H         1 UNK         0.0600 
    194 H194       -4.7556  -21.1202  -45.0160 H         1 UNK         0.0600 
    195 H195       -2.8276  -22.9544  -45.1002 H         1 UNK         0.3000 
    196 H196       -3.8452  -25.5040  -45.8009 H         1 UNK         0.0600 
    197 H197       -2.1408  -26.3231  -44.1559 H         1 UNK         0.0600 
    198 H198       -3.0377  -24.9460  -43.5321 H         1 UNK         0.0600 
    199 H199       -1.3951  -24.7280  -44.1285 H         1 UNK         0.0600 
    200 H200       -0.6526  -23.9963  -46.4899 H         1 UNK         0.3000 
    201 H201        0.4715  -26.1658  -47.9394 H         1 UNK         0.0600 
    202 H202        1.8079  -24.2947  -46.9841 H         1 UNK         0.0600 
    203 H203        1.0697  -23.1634  -48.1157 H         1 UNK         0.0600 
    204 H204        2.1083  -24.4527  -48.7087 H         1 UNK         0.0600 
    205 H205       -1.5296  -23.4241  -48.9752 H         1 UNK         0.3000 
    206 H206       -1.4687  -24.0594  -51.7976 H         1 UNK         0.0600 
    207 H207       -1.6232  -21.7312  -50.9926 H         1 UNK         0.0600 
    208 H208       -3.0726  -22.1298  -51.8916 H         1 UNK         0.0600 
    209 H209       -3.1227  -22.0902  -50.1391 H         1 UNK         0.0600 
    210 H210       -2.7898  -25.9348  -49.5944 H         1 UNK         0.3000 
    211 H211       -4.3202  -27.5262  -49.5235 H         1 UNK         0.0600 
    212 H212       -4.7109  -27.0341  -52.5251 H         1 UNK         0.0600 
    213 H213       -5.1954  -28.4700  -51.6363 H         1 UNK         0.0600 
    214 H214       -3.4906  -28.0807  -51.8028 H         1 UNK         0.0600 
    215 H215       -5.2457  -25.5582  -48.2932 H         1 UNK         0.3000 
    216 H216       -6.9987  -24.6123  -47.3519 H         1 UNK         0.0600 
    217 H217       -9.2972  -25.3880  -47.7166 H         1 UNK         0.0600 
    218 H218       -8.2248  -26.7772  -47.6502 H         1 UNK         0.0600 
    219 H219       -8.8465  -26.2117  -49.2004 H         1 UNK         0.0600 
    220 H220       -5.5797  -23.2563  -49.0902 H         1 UNK         0.3000 
    221 H221       -5.3673  -21.3774  -50.2202 H         1 UNK         0.0600 
    222 H222       -8.2330  -20.7160  -49.3786 H         1 UNK         0.0600 
    223 H223       -6.7999  -20.4713  -48.3831 H         1 UNK         0.0600 
    224 H224       -6.9992  -19.5668  -49.8701 H         1 UNK         0.0600 
    225 H225       -6.4271  -23.7339  -51.7282 H         1 UNK         0.3000 
    226 H226       -8.0910  -22.7456  -53.8667 H         1 UNK         0.0600 
    227 H227       -8.0137  -25.1473  -53.2671 H         1 UNK         0.0600 
    228 H228       -7.4924  -24.9263  -54.9310 H         1 UNK         0.0600 
    229 H229       -6.3009  -25.2269  -53.6706 H         1 UNK         0.0600 
    230 H230       -4.5837  -23.1831  -53.4033 H         1 UNK         0.3000 
    231 H231       -3.9592  -21.9920  -56.0516 H         1 UNK         0.0600 
    232 H232       -2.1444  -23.2503  -53.9331 H         1 UNK         0.0600 
    233 H233       -1.6843  -22.8019  -55.5687 H         1 UNK         0.0600 
    234 H234       -2.8344  -24.1032  -55.3112 H         1 UNK         0.0600 
    235 H235       -4.7462  -20.6313  -53.1715 H         1 UNK         0.3000 
    236 H236       -2.5143  -18.7971  -52.7638 H         1 UNK         0.0600 
    237 H237       -3.8927  -19.5644  -50.8444 H         1 UNK         0.0600 
    238 H238       -4.0149  -17.8248  -51.0244 H         1 UNK         0.0600 
    239 H239       -5.3365  -18.8475  -51.5684 H         1 UNK         0.0600 
    240 H240       -2.6891  -16.4747  -52.9333 H         1 UNK         0.3000 
    241 H241       -3.7335  -15.7201  -55.4964 H         1 UNK         0.0600 
    242 H242       -6.5189  -14.3364  -52.9516 H         1 UNK         0.3800 
    243 H243       -5.4139  -15.6135  -52.5141 H         1 UNK         0.3800 
    244 H244       -2.4799  -13.6866  -55.2736 H         1 UNK         0.0800 
    245 H245       -2.3480  -13.8405  -53.5504 H         1 UNK         0.0800 
    246 H246        1.1072  -15.3221  -53.2633 H         1 UNK         0.0800 
    247 H247        0.2208  -13.8324  -53.1049 H         1 UNK         0.0800 
@<TRIPOS>BOND
     1    1    2 1    
     2    1  127 1    
     3    1  128 1    
     4    1  129 1    
     5    2    3 2    
     6    2    4 am   BACKBONE|DICT|INTERRES
     7    4    5 1    
     8    4  130 1    
     9    5    6 1    
    10    5   65 1    
    11    5  131 1    
    12    6    7 1    
    13    6  132 1    
    14    6  133 1    
    15    7    8 1    
    16    8    9 1    
    17    8  134 1    
    18    8  135 1    
    19    9   10 ar   
    20    9   14 ar   
    21   10   11 ar   
    22   10  136 1    
    23   11   12 ar   
    24   11  126 1    
    25   12   13 ar   
    26   12  137 1    
    27   13   14 ar   
    28   13   15 1    
    29   14  138 1    
    30   15   16 1    
    31   15  139 1    
    32   15  140 1    
    33   16   17 1    
    34   17   18 1    
    35   17  141 1    
    36   17  142 1    
    37   18   19 1    
    38   18   67 1    
    39   18  143 1    
    40   19   20 am   BACKBONE|DICT|INTERRES
    41   19  144 1    
    42   20   21 2    
    43   20   22 1    
    44   22   23 1    
    45   22   24 1    
    46   22  145 1    
    47   23  146 1    
    48   23  147 1    
    49   23  148 1    
    50   24   25 am   BACKBONE|DICT|INTERRES
    51   24  149 1    
    52   25   26 2    
    53   25   27 1    
    54   27   28 1    
    55   27   29 1    
    56   27  150 1    
    57   28  151 1    
    58   28  152 1    
    59   28  153 1    
    60   29   30 am   BACKBONE|DICT|INTERRES
    61   29  154 1    
    62   30   31 2    
    63   30   32 1    
    64   32   33 1    
    65   32   34 1    
    66   32  155 1    
    67   33  156 1    
    68   33  157 1    
    69   33  158 1    
    70   34   35 am   BACKBONE|DICT|INTERRES
    71   34  159 1    
    72   35   36 2    
    73   35   37 1    
    74   37   38 1    
    75   37   39 1    
    76   37  160 1    
    77   38  161 1    
    78   38  162 1    
    79   38  163 1    
    80   39   40 am   BACKBONE|DICT|INTERRES
    81   39  164 1    
    82   40   41 2    
    83   40   42 1    
    84   42   43 1    
    85   42   44 1    
    86   42  165 1    
    87   43  166 1    
    88   43  167 1    
    89   43  168 1    
    90   44   45 am   BACKBONE|DICT|INTERRES
    91   44  169 1    
    92   45   46 2    
    93   45   47 1    
    94   47   48 1    
    95   47   49 1    
    96   47  170 1    
    97   48  171 1    
    98   48  172 1    
    99   48  173 1    
   100   49   50 am   BACKBONE|DICT|INTERRES
   101   49  174 1    
   102   50   51 2    
   103   50   52 1    
   104   52   53 1    
   105   52   54 1    
   106   52  175 1    
   107   53  176 1    
   108   53  177 1    
   109   53  178 1    
   110   54   55 am   BACKBONE|DICT|INTERRES
   111   54  179 1    
   112   55   56 2    
   113   55   57 1    
   114   57   58 1    
   115   57   59 1    
   116   57  180 1    
   117   58  181 1    
   118   58  182 1    
   119   58  183 1    
   120   59   60 am   BACKBONE|DICT|INTERRES
   121   59  184 1    
   122   60   61 2    
   123   60   62 1    
   124   62   63 1    
   125   62   64 1    
   126   62  185 1    
   127   63  186 1    
   128   63  187 1    
   129   63  188 1    
   130   64   65 am   BACKBONE|DICT|INTERRES
   131   64  189 1    
   132   65   66 2    
   133   67   68 2    
   134   67   69 am   BACKBONE|DICT|INTERRES
   135   69   70 1    
   136   69  190 1    
   137   70   71 1    
   138   70   72 1    
   139   70  191 1    
   140   71  192 1    
   141   71  193 1    
   142   71  194 1    
   143   72   73 2    
   144   72   74 am   BACKBONE|DICT|INTERRES
   145   74   75 1    
   146   74  195 1    
   147   75   76 1    
   148   75   77 1    
   149   75  196 1    
   150   76  197 1    
   151   76  198 1    
   152   76  199 1    
   153   77   78 2    
   154   77   79 am   BACKBONE|DICT|INTERRES
   155   79   80 1    
   156   79  200 1    
   157   80   81 1    
   158   80   82 1    
   159   80  201 1    
   160   81  202 1    
   161   81  203 1    
   162   81  204 1    
   163   82   83 2    
   164   82   84 am   BACKBONE|DICT|INTERRES
   165   84   85 1    
   166   84  205 1    
   167   85   86 1    
   168   85   87 1    
   169   85  206 1    
   170   86  207 1    
   171   86  208 1    
   172   86  209 1    
   173   87   88 2    
   174   87   89 am   BACKBONE|DICT|INTERRES
   175   89   90 1    
   176   89  210 1    
   177   90   91 1    
   178   90   92 1    
   179   90  211 1    
   180   91  212 1    
   181   91  213 1    
   182   91  214 1    
   183   92   93 2    
   184   92   94 am   BACKBONE|DICT|INTERRES
   185   94   95 1    
   186   94  215 1    
   187   95   96 1    
   188   95   97 1    
   189   95  216 1    
   190   96  217 1    
   191   96  218 1    
   192   96  219 1    
   193   97   98 2    
   194   97   99 am   BACKBONE|DICT|INTERRES
   195   99  100 1    
   196   99  220 1    
   197  100  101 1    
   198  100  102 1    
   199  100  221 1    
   200  101  222 1    
   201  101  223 1    
   202  101  224 1    
   203  102  103 2    
   204  102  104 am   BACKBONE|DICT|INTERRES
   205  104  105 1    
   206  104  225 1    
   207  105  106 1    
   208  105  107 1    
   209  105  226 1    
   210  106  227 1    
   211  106  228 1    
   212  106  229 1    
   213  107  108 2    
   214  107  109 am   BACKBONE|DICT|INTERRES
   215  109  110 1    
   216  109  230 1    
   217  110  111 1    
   218  110  112 1    
   219  110  231 1    
   220  111  232 1    
   221  111  233 1    
   222  111  234 1    
   223  112  113 2    
   224  112  114 am   BACKBONE|DICT|INTERRES
   225  114  115 1    
   226  114  235 1    
   227  115  116 1    
   228  115  117 1    
   229  115  236 1    
   230  116  237 1    
   231  116  238 1    
   232  116  239 1    
   233  117  118 2    
   234  117  119 am   BACKBONE|DICT|INTERRES
   235  119  120 1    
   236  119  240 1    
   237  120  121 1    
   238  120  124 1    
   239  120  241 1    
   240  121  122 am   BACKBONE|DICT|INTERRES
   241  121  123 2    
   242  122  242 1    
   243  122  243 1    
   244  124  125 1    
   245  124  244 1    
   246  124  245 1    
   247  125  126 1    
   248  126  246 1    
   249  126  247 1    
@<TRIPOS>SUBSTRUCTURE
     1 UNK         1 GROUP             0       ****    0 ROOT    
