@<TRIPOS>MOLECULE
3R540
247   249    1
SMALL
USER_CHARGES


@<TRIPOS>ATOM
      1 CA          5.2574  -13.0209  -52.3775 C.3       0 UNK        -0.1800 
      2 C           4.4674  -12.7094  -51.1144 C.2       0 UNK         0.5000 
      3 O           4.2429  -11.5393  -50.8048 O.2       0 UNK        -0.5000 
      4 N           4.0486  -13.7510  -50.3849 N.am      1 UNK        -0.5000 
      5 CA          3.2466  -13.6588  -49.1582 C.3       1 UNK         0.1400 
      6 C6          3.2511  -14.9819  -48.3498 C.3       23 UNK        -0.0398 
      7 S7          2.9193  -16.4806  -49.3415 S.3       23 UNK        -0.2404 
      8 C8          1.1525  -16.7717  -49.0192 C.3       23 UNK        -0.0205 
      9 C9          0.5893  -17.7530  -50.0337 C.ar      23 UNK        -0.0193 
     10 C10         0.3087  -17.3284  -51.3355 C.ar      23 UNK        -0.1150 
     11 C11        -0.1727  -18.2305  -52.2871 C.ar      23 UNK        -0.0193 
     12 C12        -0.3824  -19.5640  -51.9245 C.ar      23 UNK        -0.1150 
     13 C13        -0.1350  -19.9985  -50.6189 C.ar      23 UNK        -0.0193 
     14 C14         0.3546  -19.0835  -49.6785 C.ar      23 UNK        -0.1150 
     15 C15        -0.4442  -21.4424  -50.2358 C.3       23 UNK        -0.0205 
     16 S16         0.9711  -22.3158  -49.4936 S.3       23 UNK        -0.2404 
     17 C17         0.7364  -21.9103  -47.7346 C.3       23 UNK        -0.0398 
     18 CA          0.7270  -23.1232  -46.7787 C.3       11 UNK         0.1400 
     19 N           0.8853  -22.6579  -45.4014 N.am      11 UNK        -0.5000 
     20 C           1.1481  -23.4254  -44.3390 C.2       10 UNK         0.5000 
     21 O           1.3180  -24.6421  -44.3987 O.2       10 UNK        -0.5000 
     22 CA          1.1918  -22.7085  -42.9762 C.3       10 UNK         0.1400 
     23 CB          2.5480  -22.0192  -42.7650 C.3       10 UNK        -0.1800 
     24 N           0.1159  -21.7264  -42.8196 N.am      10 UNK        -0.5000 
     25 C          -1.1880  -22.0383  -42.7914 C.2       9 UNK         0.5000 
     26 O          -1.6170  -23.1884  -42.8707 O.2       9 UNK        -0.5000 
     27 CA         -2.1857  -20.8717  -42.7020 C.3       9 UNK         0.1400 
     28 CB         -2.2678  -20.3355  -41.2651 C.3       9 UNK        -0.1800 
     29 N          -1.8690  -19.7805  -43.6230 N.am      9 UNK        -0.5000 
     30 C          -1.8422  -19.8940  -44.9589 C.2       8 UNK         0.5000 
     31 O          -2.0968  -20.9331  -45.5646 O.2       8 UNK        -0.5000 
     32 CA         -1.4019  -18.6536  -45.7534 C.3       8 UNK         0.1400 
     33 CB         -2.5345  -17.6192  -45.8176 C.3       8 UNK        -0.1800 
     34 N          -0.1993  -18.0308  -45.2042 N.am      8 UNK        -0.5000 
     35 C           0.9843  -18.6407  -45.0491 C.2       7 UNK         0.5000 
     36 O           1.2109  -19.7999  -45.3905 O.2       7 UNK        -0.5000 
     37 CA          2.0856  -17.8342  -44.3460 C.3       7 UNK         0.1400 
     38 CB          2.7215  -16.8224  -45.3068 C.3       7 UNK        -0.1800 
     39 N           1.5719  -17.1339  -43.1719 N.am      7 UNK        -0.5000 
     40 C           1.1773  -17.7382  -42.0434 C.2       6 UNK         0.5000 
     41 O           1.2363  -18.9544  -41.8558 O.2       6 UNK        -0.5000 
     42 CA          0.5783  -16.8223  -40.9615 C.3       6 UNK         0.1400 
     43 CB          1.6882  -16.1224  -40.1627 C.3       6 UNK        -0.1800 
     44 N          -0.3319  -15.8173  -41.5175 N.am      6 UNK        -0.5000 
     45 C          -1.5065  -16.1121  -42.0902 C.2       5 UNK         0.5000 
     46 O          -1.9336  -17.2582  -42.2213 O.2       5 UNK        -0.5000 
     47 CA         -2.3405  -14.9363  -42.6248 C.3       5 UNK         0.1400 
     48 CB         -3.1296  -14.2754  -41.4844 C.3       5 UNK        -0.1800 
     49 N          -1.5827  -13.9108  -43.3463 N.am      5 UNK        -0.5000 
     50 C          -0.8209  -14.1186  -44.4288 C.2       4 UNK         0.5000 
     51 O          -0.4846  -15.2305  -44.8392 O.2       4 UNK        -0.5000 
     52 CA         -0.3922  -12.8621  -45.2109 C.3       4 UNK         0.1400 
     53 CB          1.1385  -12.7737  -45.3030 C.3       4 UNK        -0.1800 
     54 N          -0.9746  -12.8326  -46.5589 N.am      4 UNK        -0.5000 
     55 C          -2.2928  -12.8352  -46.8227 C.2       3 UNK         0.5000 
     56 O          -3.1544  -12.8147  -45.9423 O.2       3 UNK        -0.5000 
     57 CA         -2.7529  -12.8378  -48.2947 C.3       3 UNK         0.1400 
     58 CB         -3.7937  -11.7307  -48.5454 C.3       3 UNK        -0.1800 
     59 N          -1.6540  -12.6520  -49.2413 N.am      3 UNK        -0.5000 
     60 C          -1.2061  -13.5673  -50.1091 C.2       2 UNK         0.5000 
     61 O          -1.6423  -14.7158  -50.1814 O.2       2 UNK        -0.5000 
     62 CA         -0.0851  -13.1261  -51.0739 C.3       2 UNK         0.1400 
     63 CB         -0.1466  -11.6270  -51.4373 C.3       2 UNK        -0.1800 
     64 N           1.2534  -13.4787  -50.5925 N.am      2 UNK        -0.5000 
     65 C           1.8069  -13.1634  -49.4110 C.2       1 UNK         0.5000 
     66 O           1.2369  -12.5130  -48.5346 O.2       1 UNK        -0.5000 
     67 C          -0.5191  -24.0267  -46.9385 C.2       11 UNK         0.5000 
     68 O          -0.4273  -25.0933  -47.5490 O.2       11 UNK        -0.5000 
     69 N          -1.6448  -23.6314  -46.3269 N.am      12 UNK        -0.5000 
     70 CA         -2.8735  -24.4243  -46.2718 C.3       12 UNK         0.1400 
     71 CB         -4.0190  -23.5699  -45.7101 C.3       12 UNK        -0.1800 
     72 C          -2.7035  -25.7227  -45.4598 C.2       12 UNK         0.5000 
     73 O          -3.1780  -26.7718  -45.8950 O.2       12 UNK        -0.5000 
     74 N          -1.9893  -25.6514  -44.3258 N.am      13 UNK        -0.5000 
     75 CA         -1.6381  -26.8012  -43.4838 C.3       13 UNK         0.1400 
     76 CB         -1.0169  -26.3103  -42.1679 C.3       13 UNK        -0.1800 
     77 C          -0.7043  -27.8094  -44.1831 C.2       13 UNK         0.5000 
     78 O          -0.7815  -29.0048  -43.8986 O.2       13 UNK        -0.5000 
     79 N           0.1205  -27.3220  -45.1200 N.am      14 UNK        -0.5000 
     80 CA          0.9540  -28.1223  -46.0208 C.3       14 UNK         0.1400 
     81 CB          2.1205  -27.2558  -46.5253 C.3       14 UNK        -0.1800 
     82 C           0.1666  -28.7482  -47.1960 C.2       14 UNK         0.5000 
     83 O           0.7762  -29.4103  -48.0370 O.2       14 UNK        -0.5000 
     84 N          -1.1594  -28.5433  -47.2321 N.am      15 UNK        -0.5000 
     85 CA         -2.1303  -29.0658  -48.1973 C.3       15 UNK         0.1400 
     86 CB         -2.1456  -30.6096  -48.2048 C.3       15 UNK        -0.1800 
     87 C          -2.0010  -28.4484  -49.6036 C.2       15 UNK         0.5000 
     88 O          -2.3679  -29.0920  -50.5894 O.2       15 UNK        -0.5000 
     89 N          -1.5133  -27.2029  -49.6741 N.am      16 UNK        -0.5000 
     90 CA         -1.5110  -26.3835  -50.8843 C.3       16 UNK         0.1400 
     91 CB         -0.2280  -25.5358  -50.9045 C.3       16 UNK        -0.1800 
     92 C          -2.8022  -25.5376  -50.9647 C.2       16 UNK         0.5000 
     93 O          -3.8292  -25.9154  -50.3936 O.2       16 UNK        -0.5000 
     94 N          -2.7422  -24.4213  -51.7022 N.am      17 UNK        -0.5000 
     95 CA         -3.8444  -23.4788  -51.9047 C.3       17 UNK         0.1400 
     96 CB         -3.4322  -22.4759  -52.9964 C.3       17 UNK        -0.1800 
     97 C          -4.2645  -22.7345  -50.6195 C.2       17 UNK         0.5000 
     98 O          -3.5272  -22.7144  -49.6328 O.2       17 UNK        -0.5000 
     99 N          -5.4380  -22.0928  -50.6804 N.am      18 UNK        -0.5000 
    100 CA        -6.0072  -21.2766  -49.6027 C.3       18 UNK         0.1400 
    101 CB        -7.5206  -21.1452  -49.8401 C.3       18 UNK        -0.1800 
    102 C         -5.3583  -19.8816  -49.4586 C.2       18 UNK         0.5000 
    103 O         -5.6645  -19.1827  -48.4917 O.2       18 UNK        -0.5000 
    104 N         -4.4925  -19.5068  -50.4135 N.am      19 UNK        -0.5000 
    105 CA        -3.7954  -18.2222  -50.5411 C.3       19 UNK         0.1400 
    106 CB        -2.9622  -17.9188  -49.2790 C.3       19 UNK        -0.1800 
    107 C         -4.7461  -17.0649  -50.9211 C.2       19 UNK         0.5000 
    108 O         -5.8820  -17.3072  -51.3391 O.2       19 UNK        -0.5000 
    109 N         -4.2510  -15.8253  -50.7966 N.am      20 UNK        -0.5000 
    110 CA        -4.9158  -14.5367  -51.0207 C.3       20 UNK         0.1400 
    111 CB        -6.1297  -14.3484  -50.0917 C.3       20 UNK        -0.1800 
    112 C         -5.2621  -14.2392  -52.4889 C.2       20 UNK         0.5000 
    113 O         -4.7943  -13.2330  -53.0233 O.2       20 UNK        -0.5000 
    114 N         -6.0435  -15.1181  -53.1285 N.am      21 UNK        -0.5000 
    115 CA        -6.4926  -14.9982  -54.5212 C.3       21 UNK         0.1400 
    116 CB        -7.4943  -16.1231  -54.8214 C.3       21 UNK        -0.1800 
    117 C         -5.3369  -15.0147  -55.5415 C.2       21 UNK         0.5000 
    118 O         -5.4339  -14.3824  -56.5937 O.2       21 UNK        -0.5000 
    119 N         -4.2598  -15.7197  -55.1859 N.am      22 UNK        -0.5000 
    120 CA        -2.9747  -15.7738  -55.8937 C.3       22 UNK         0.1400 
    121 C         -1.9904  -14.6204  -55.5296 C.2       22 UNK         0.5000 
    122 N         -2.3453  -13.6691  -54.6727 N.am      22 UNK        -0.7600 
    123 O         -0.8809  -14.5739  -56.0534 O.2       22 UNK        -0.5000 
    124 C124       -2.3267  -17.1770  -55.7521 C.3       23 UNK        -0.0398 
    125 S125       -2.2571  -17.7791  -54.0281 S.3       23 UNK        -0.2404 
    126 C126       -0.4695  -17.7714  -53.7060 C.3       23 UNK        -0.0205 
    127 H127        6.2474  -12.5682  -52.3224 H         1 UNK         0.0600 
    128 H128        4.7443  -12.6164  -53.2500 H         1 UNK         0.0600 
    129 H129        5.3820  -14.0942  -52.5237 H         1 UNK         0.0600 
    130 H130        4.2677  -14.6915  -50.6838 H         1 UNK         0.3000 
    131 H131        3.7156  -12.9006  -48.5270 H         1 UNK         0.0600 
    132 H132        4.2329  -15.1130  -47.8930 H         1 UNK         0.0800 
    133 H133        2.5510  -14.9296  -47.5173 H         1 UNK         0.0800 
    134 H134        1.0241  -17.1462  -48.0025 H         1 UNK         0.0800 
    135 H135        0.5951  -15.8375  -49.0742 H         1 UNK         0.0800 
    136 H136        0.4756  -16.2960  -51.6067 H         1 UNK         0.1150 
    137 H137       -0.7613  -20.2567  -52.6622 H         1 UNK         0.1150 
    138 H138        0.5566  -19.3976  -48.6668 H         1 UNK         0.1150 
    139 H139       -1.2956  -21.4543  -49.5559 H         1 UNK         0.0800 
    140 H140       -0.7539  -22.0096  -51.1135 H         1 UNK         0.0800 
    141 H141        1.5712  -21.2577  -47.4774 H         1 UNK         0.0800 
    142 H142       -0.1648  -21.3137  -47.5874 H         1 UNK         0.0800 
    143 H143        1.6008  -23.7368  -47.0081 H         1 UNK         0.0600 
    144 H144        0.8047  -21.6540  -45.2604 H         1 UNK         0.3000 
    145 H145        1.0706  -23.4654  -42.1988 H         1 UNK         0.0600 
    146 H146        2.6143  -21.5784  -41.7701 H         1 UNK         0.0600 
    147 H147        3.3681  -22.7318  -42.8613 H         1 UNK         0.0600 
    148 H148        2.7145  -21.2243  -43.4928 H         1 UNK         0.0600 
    149 H149        0.3919  -20.7547  -42.7326 H         1 UNK         0.3000 
    150 H150       -3.1696  -21.2583  -42.9752 H         1 UNK         0.0600 
    151 H151       -2.4929  -21.1366  -40.5600 H         1 UNK         0.0600 
    152 H152       -3.0555  -19.5882  -41.1692 H         1 UNK         0.0600 
    153 H153       -1.3301  -19.8744  -40.9527 H         1 UNK         0.0600 
    154 H154       -1.6841  -18.8739  -43.2014 H         1 UNK         0.3000 
    155 H155       -1.1723  -18.9741  -46.7711 H         1 UNK         0.0600 
    156 H156       -2.2708  -16.7851  -46.4683 H         1 UNK         0.0600 
    157 H157       -2.7652  -17.2134  -44.8337 H         1 UNK         0.0600 
    158 H158       -3.4503  -18.0667  -46.2054 H         1 UNK         0.0600 
    159 H159       -0.2866  -17.0560  -44.9236 H         1 UNK         0.3000 
    160 H160        2.8600  -18.5325  -44.0213 H         1 UNK         0.0600 
    161 H161        1.9949  -16.0779  -45.6299 H         1 UNK         0.0600 
    162 H162        3.1085  -17.3187  -46.1978 H         1 UNK         0.0600 
    163 H163        3.5538  -16.2984  -44.8369 H         1 UNK         0.0600 
    164 H164        1.4272  -16.1392  -43.2625 H         1 UNK         0.3000 
    165 H165        0.0094  -17.4514  -40.2733 H         1 UNK         0.0600 
    166 H166        2.2768  -15.4515  -40.7895 H         1 UNK         0.0600 
    167 H167        1.2734  -15.5374  -39.3417 H         1 UNK         0.0600 
    168 H168        2.3735  -16.8510  -39.7274 H         1 UNK         0.0600 
    169 H169       -0.0498  -14.8500  -41.4563 H         1 UNK         0.3000 
    170 H170       -3.0630  -15.3496  -43.3309 H         1 UNK         0.0600 
    171 H171       -3.7197  -15.0127  -40.9381 H         1 UNK         0.0600 
    172 H172       -2.4690  -13.7866  -40.7671 H         1 UNK         0.0600 
    173 H173       -3.8234  -13.5266  -41.8669 H         1 UNK         0.0600 
    174 H174       -1.8002  -12.9566  -43.0982 H         1 UNK         0.3000 
    175 H175       -0.7468  -11.9765  -44.6798 H         1 UNK         0.0600 
    176 H176        1.4517  -11.8535  -45.7964 H         1 UNK         0.0600 
    177 H177        1.5920  -12.7818  -44.3112 H         1 UNK         0.0600 
    178 H178        1.5554  -13.6110  -45.8611 H         1 UNK         0.0600 
    179 H179       -0.3170  -12.8336  -47.3324 H         1 UNK         0.3000 
    180 H180       -3.2368  -13.8020  -48.4611 H         1 UNK         0.0600 
    181 H181       -4.1124  -11.7091  -49.5873 H         1 UNK         0.0600 
    182 H182       -4.6875  -11.8853  -47.9396 H         1 UNK         0.0600 
    183 H183       -3.3963  -10.7451  -48.3004 H         1 UNK         0.0600 
    184 H184       -1.1891  -11.7551  -49.2155 H         1 UNK         0.3000 
    185 H185       -0.2406  -13.6901  -51.9951 H         1 UNK         0.0600 
    186 H186        0.5550  -11.3948  -52.2386 H         1 UNK         0.0600 
    187 H187       -1.1409  -11.3485  -51.7893 H         1 UNK         0.0600 
    188 H188        0.0998  -10.9833  -50.5924 H         1 UNK         0.0600 
    189 H189        1.8122  -14.0312  -51.2265 H         1 UNK         0.3000 
    190 H190       -1.6766  -22.7175  -45.8806 H         1 UNK         0.3000 
    191 H191       -3.1340  -24.7041  -47.2953 H         1 UNK         0.0600 
    192 H192       -4.9476  -24.1400  -45.6665 H         1 UNK         0.0600 
    193 H193       -4.2013  -22.6986  -46.3400 H         1 UNK         0.0600 
    194 H194       -3.8004  -23.2151  -44.7024 H         1 UNK         0.0600 
    195 H195       -1.6811  -24.7404  -43.9959 H         1 UNK         0.3000 
    196 H196       -2.5635  -27.3284  -43.2432 H         1 UNK         0.0600 
    197 H197       -0.7656  -27.1485  -41.5169 H         1 UNK         0.0600 
    198 H198       -1.7089  -25.6708  -41.6198 H         1 UNK         0.0600 
    199 H199       -0.1022  -25.7437  -42.3413 H         1 UNK         0.0600 
    200 H200        0.1601  -26.3177  -45.2478 H         1 UNK         0.3000 
    201 H201        1.3790  -28.9495  -45.4490 H         1 UNK         0.0600 
    202 H202        2.6858  -26.8328  -45.6947 H         1 UNK         0.0600 
    203 H203        1.7741  -26.4316  -47.1477 H         1 UNK         0.0600 
    204 H204        2.8170  -27.8449  -47.1229 H         1 UNK         0.0600 
    205 H205       -1.5633  -27.9496  -46.5170 H         1 UNK         0.3000 
    206 H206       -3.1053  -28.7422  -47.8311 H         1 UNK         0.0600 
    207 H207       -2.2398  -31.0082  -47.1946 H         1 UNK         0.0600 
    208 H208       -2.9905  -30.9885  -48.7808 H         1 UNK         0.0600 
    209 H209       -1.2398  -31.0242  -48.6476 H         1 UNK         0.0600 
    210 H210       -1.2488  -26.7292  -48.8181 H         1 UNK         0.3000 
    211 H211       -1.4929  -27.0270  -51.7660 H         1 UNK         0.0600 
    212 H212       -0.2554  -24.7714  -50.1315 H         1 UNK         0.0600 
    213 H213       -0.0875  -25.0367  -51.8635 H         1 UNK         0.0600 
    214 H214        0.6555  -26.1508  -50.7323 H         1 UNK         0.0600 
    215 H215       -1.8601  -24.1732  -52.1235 H         1 UNK         0.3000 
    216 H216       -4.7062  -24.0470  -52.2611 H         1 UNK         0.0600 
    217 H217       -4.2524  -21.8027  -53.2486 H         1 UNK         0.0600 
    218 H218       -3.1471  -22.9877  -53.9159 H         1 UNK         0.0600 
    219 H219       -2.5904  -21.8596  -52.6818 H         1 UNK         0.0600 
    220 H220       -5.9853  -22.1524  -51.5273 H         1 UNK         0.3000 
    221 H221       -5.8562  -21.8003  -48.6561 H         1 UNK         0.0600 
    222 H222       -7.7366  -20.6213  -50.7721 H         1 UNK         0.0600 
    223 H223       -8.0008  -22.1230  -49.8830 H         1 UNK         0.0600 
    224 H224       -7.9973  -20.5872  -49.0331 H         1 UNK         0.0600 
    225 H225       -4.3498  -20.1506  -51.1762 H         1 UNK         0.3000 
    226 H226       -3.0999  -18.3479  -51.3685 H         1 UNK         0.0600 
    227 H227       -2.4635  -18.8133  -48.9068 H         1 UNK         0.0600 
    228 H228       -2.1871  -17.1822  -49.4836 H         1 UNK         0.0600 
    229 H229       -3.5857  -17.5214  -48.4793 H         1 UNK         0.0600 
    230 H230       -3.2801  -15.7298  -50.5078 H         1 UNK         0.3000 
    231 H231       -4.1807  -13.7859  -50.7358 H         1 UNK         0.0600 
    232 H232       -6.5521  -13.3492  -50.2035 H         1 UNK         0.0600 
    233 H233       -5.8447  -14.4646  -49.0460 H         1 UNK         0.0600 
    234 H234       -6.9251  -15.0632  -50.3032 H         1 UNK         0.0600 
    235 H235       -6.3238  -15.9502  -52.6159 H         1 UNK         0.3000 
    236 H236       -7.0081  -14.0412  -54.6242 H         1 UNK         0.0600 
    237 H237       -7.0404  -17.1076  -54.7002 H         1 UNK         0.0600 
    238 H238       -8.3585  -16.0686  -54.1590 H         1 UNK         0.0600 
    239 H239       -7.8649  -16.0547  -55.8450 H         1 UNK         0.0600 
    240 H240       -4.2781  -16.2004  -54.2984 H         1 UNK         0.3000 
    241 H241       -3.1778  -15.6333  -56.9568 H         1 UNK         0.0600 
    242 H242       -3.2631  -13.6522  -54.2428 H         1 UNK         0.3800 
    243 H243       -1.6963  -12.9240  -54.4807 H         1 UNK         0.3800 
    244 H244       -2.9200  -17.8971  -56.3169 H         1 UNK         0.0800 
    245 H245       -1.3346  -17.2057  -56.2059 H         1 UNK         0.0800 
    246 H246        0.0327  -18.4331  -54.4131 H         1 UNK         0.0800 
    247 H247       -0.0761  -16.7683  -53.8792 H         1 UNK         0.0800 
@<TRIPOS>BOND
     1    1    2 1    
     2    1  127 1    
     3    1  128 1    
     4    1  129 1    
     5    2    3 2    
     6    2    4 am   BACKBONE|DICT|INTERRES
     7    4    5 1    
     8    4  130 1    
     9    5    6 1    
    10    5   65 1    
    11    5  131 1    
    12    6    7 1    
    13    6  132 1    
    14    6  133 1    
    15    7    8 1    
    16    8    9 1    
    17    8  134 1    
    18    8  135 1    
    19    9   10 ar   
    20    9   14 ar   
    21   10   11 ar   
    22   10  136 1    
    23   11   12 ar   
    24   11  126 1    
    25   12   13 ar   
    26   12  137 1    
    27   13   14 ar   
    28   13   15 1    
    29   14  138 1    
    30   15   16 1    
    31   15  139 1    
    32   15  140 1    
    33   16   17 1    
    34   17   18 1    
    35   17  141 1    
    36   17  142 1    
    37   18   19 1    
    38   18   67 1    
    39   18  143 1    
    40   19   20 am   BACKBONE|DICT|INTERRES
    41   19  144 1    
    42   20   21 2    
    43   20   22 1    
    44   22   23 1    
    45   22   24 1    
    46   22  145 1    
    47   23  146 1    
    48   23  147 1    
    49   23  148 1    
    50   24   25 am   BACKBONE|DICT|INTERRES
    51   24  149 1    
    52   25   26 2    
    53   25   27 1    
    54   27   28 1    
    55   27   29 1    
    56   27  150 1    
    57   28  151 1    
    58   28  152 1    
    59   28  153 1    
    60   29   30 am   BACKBONE|DICT|INTERRES
    61   29  154 1    
    62   30   31 2    
    63   30   32 1    
    64   32   33 1    
    65   32   34 1    
    66   32  155 1    
    67   33  156 1    
    68   33  157 1    
    69   33  158 1    
    70   34   35 am   BACKBONE|DICT|INTERRES
    71   34  159 1    
    72   35   36 2    
    73   35   37 1    
    74   37   38 1    
    75   37   39 1    
    76   37  160 1    
    77   38  161 1    
    78   38  162 1    
    79   38  163 1    
    80   39   40 am   BACKBONE|DICT|INTERRES
    81   39  164 1    
    82   40   41 2    
    83   40   42 1    
    84   42   43 1    
    85   42   44 1    
    86   42  165 1    
    87   43  166 1    
    88   43  167 1    
    89   43  168 1    
    90   44   45 am   BACKBONE|DICT|INTERRES
    91   44  169 1    
    92   45   46 2    
    93   45   47 1    
    94   47   48 1    
    95   47   49 1    
    96   47  170 1    
    97   48  171 1    
    98   48  172 1    
    99   48  173 1    
   100   49   50 am   BACKBONE|DICT|INTERRES
   101   49  174 1    
   102   50   51 2    
   103   50   52 1    
   104   52   53 1    
   105   52   54 1    
   106   52  175 1    
   107   53  176 1    
   108   53  177 1    
   109   53  178 1    
   110   54   55 am   BACKBONE|DICT|INTERRES
   111   54  179 1    
   112   55   56 2    
   113   55   57 1    
   114   57   58 1    
   115   57   59 1    
   116   57  180 1    
   117   58  181 1    
   118   58  182 1    
   119   58  183 1    
   120   59   60 am   BACKBONE|DICT|INTERRES
   121   59  184 1    
   122   60   61 2    
   123   60   62 1    
   124   62   63 1    
   125   62   64 1    
   126   62  185 1    
   127   63  186 1    
   128   63  187 1    
   129   63  188 1    
   130   64   65 am   BACKBONE|DICT|INTERRES
   131   64  189 1    
   132   65   66 2    
   133   67   68 2    
   134   67   69 am   BACKBONE|DICT|INTERRES
   135   69   70 1    
   136   69  190 1    
   137   70   71 1    
   138   70   72 1    
   139   70  191 1    
   140   71  192 1    
   141   71  193 1    
   142   71  194 1    
   143   72   73 2    
   144   72   74 am   BACKBONE|DICT|INTERRES
   145   74   75 1    
   146   74  195 1    
   147   75   76 1    
   148   75   77 1    
   149   75  196 1    
   150   76  197 1    
   151   76  198 1    
   152   76  199 1    
   153   77   78 2    
   154   77   79 am   BACKBONE|DICT|INTERRES
   155   79   80 1    
   156   79  200 1    
   157   80   81 1    
   158   80   82 1    
   159   80  201 1    
   160   81  202 1    
   161   81  203 1    
   162   81  204 1    
   163   82   83 2    
   164   82   84 am   BACKBONE|DICT|INTERRES
   165   84   85 1    
   166   84  205 1    
   167   85   86 1    
   168   85   87 1    
   169   85  206 1    
   170   86  207 1    
   171   86  208 1    
   172   86  209 1    
   173   87   88 2    
   174   87   89 am   BACKBONE|DICT|INTERRES
   175   89   90 1    
   176   89  210 1    
   177   90   91 1    
   178   90   92 1    
   179   90  211 1    
   180   91  212 1    
   181   91  213 1    
   182   91  214 1    
   183   92   93 2    
   184   92   94 am   BACKBONE|DICT|INTERRES
   185   94   95 1    
   186   94  215 1    
   187   95   96 1    
   188   95   97 1    
   189   95  216 1    
   190   96  217 1    
   191   96  218 1    
   192   96  219 1    
   193   97   98 2    
   194   97   99 am   BACKBONE|DICT|INTERRES
   195   99  100 1    
   196   99  220 1    
   197  100  101 1    
   198  100  102 1    
   199  100  221 1    
   200  101  222 1    
   201  101  223 1    
   202  101  224 1    
   203  102  103 2    
   204  102  104 am   BACKBONE|DICT|INTERRES
   205  104  105 1    
   206  104  225 1    
   207  105  106 1    
   208  105  107 1    
   209  105  226 1    
   210  106  227 1    
   211  106  228 1    
   212  106  229 1    
   213  107  108 2    
   214  107  109 am   BACKBONE|DICT|INTERRES
   215  109  110 1    
   216  109  230 1    
   217  110  111 1    
   218  110  112 1    
   219  110  231 1    
   220  111  232 1    
   221  111  233 1    
   222  111  234 1    
   223  112  113 2    
   224  112  114 am   BACKBONE|DICT|INTERRES
   225  114  115 1    
   226  114  235 1    
   227  115  116 1    
   228  115  117 1    
   229  115  236 1    
   230  116  237 1    
   231  116  238 1    
   232  116  239 1    
   233  117  118 2    
   234  117  119 am   BACKBONE|DICT|INTERRES
   235  119  120 1    
   236  119  240 1    
   237  120  121 1    
   238  120  124 1    
   239  120  241 1    
   240  121  122 am   BACKBONE|DICT|INTERRES
   241  121  123 2    
   242  122  242 1    
   243  122  243 1    
   244  124  125 1    
   245  124  244 1    
   246  124  245 1    
   247  125  126 1    
   248  126  246 1    
   249  126  247 1    
@<TRIPOS>SUBSTRUCTURE
     1 UNK         1 GROUP             0       ****    0 ROOT    
