@<TRIPOS>MOLECULE
3R540
247   249    1
SMALL
USER_CHARGES


@<TRIPOS>ATOM
      1 CA         -2.2403  -11.8880  -45.0266 C.3       0 UNK        -0.1800 
      2 C          -1.1501  -11.1869  -45.8245 C.2       0 UNK         0.5000 
      3 O          -0.5460  -10.2352  -45.3312 O.2       0 UNK        -0.5000 
      4 N          -0.8997  -11.6508  -47.0553 N.am      1 UNK        -0.5000 
      5 CA          0.1332  -11.1250  -47.9584 C.3       1 UNK         0.1400 
      6 C6         -0.1993  -11.4200  -49.4438 C.3       23 UNK        -0.0398 
      7 S7         -0.4356  -13.1928  -49.8290 S.3       23 UNK        -0.2404 
      8 C8          1.1369  -13.5752  -50.6597 C.3       23 UNK        -0.0205 
      9 C9          1.2066  -15.0415  -51.0511 C.ar      23 UNK        -0.0193 
     10 C10         0.8482  -15.4472  -52.3397 C.ar      23 UNK        -0.1150 
     11 C11         0.9170  -16.7952  -52.7023 C.ar      23 UNK        -0.0193 
     12 C12         1.3341  -17.7405  -51.7608 C.ar      23 UNK        -0.1150 
     13 C13         1.7010  -17.3492  -50.4697 C.ar      23 UNK        -0.0193 
     14 C14         1.6431  -15.9935  -50.1256 C.ar      23 UNK        -0.1150 
     15 C15         2.2025  -18.3995  -49.4825 C.3       23 UNK        -0.0205 
     16 S16         1.6045  -18.1684  -47.7766 S.3       23 UNK        -0.2404 
     17 C17        -0.1755  -18.5281  -47.9402 C.3       23 UNK        -0.0398 
     18 CA         -0.5365  -19.9917  -47.5870 C.3       11 UNK         0.1400 
     19 N          -0.1307  -20.3894  -46.2330 N.am      11 UNK        -0.5000 
     20 C          -0.1910  -21.6433  -45.7605 C.2       10 UNK         0.5000 
     21 O          -0.5284  -22.6107  -46.4430 O.2       10 UNK        -0.5000 
     22 CA          0.1165  -21.8499  -44.2652 C.3       10 UNK         0.1400 
     23 CB          1.6253  -21.9946  -44.0161 C.3       10 UNK        -0.1800 
     24 N          -0.4339  -20.7780  -43.4335 N.am      10 UNK        -0.5000 
     25 C          -1.7459  -20.5898  -43.2291 C.2       9 UNK         0.5000 
     26 O          -2.6149  -21.3399  -43.6719 O.2       9 UNK        -0.5000 
     27 CA         -2.1662  -19.3344  -42.4412 C.3       9 UNK         0.1400 
     28 CB         -2.1103  -19.5947  -40.9290 C.3       9 UNK        -0.1800 
     29 N          -1.3577  -18.1602  -42.7686 N.am      9 UNK        -0.5000 
     30 C          -1.3060  -17.5851  -43.9781 C.2       8 UNK         0.5000 
     31 O          -1.9959  -17.9409  -44.9328 O.2       8 UNK        -0.5000 
     32 CA         -0.2655  -16.4674  -44.1738 C.3       8 UNK         0.1400 
     33 CB         -0.8282  -15.1126  -43.7203 C.3       8 UNK        -0.1800 
     34 N           0.9995  -16.7386  -43.4861 N.am      8 UNK        -0.5000 
     35 C           1.7880  -17.7941  -43.7375 C.2       7 UNK         0.5000 
     36 O           1.5272  -18.6512  -44.5771 O.2       7 UNK        -0.5000 
     37 CA          3.0357  -17.9642  -42.8565 C.3       7 UNK         0.1400 
     38 CB          4.1801  -17.0442  -43.3090 C.3       7 UNK        -0.1800 
     39 N           2.7234  -17.7247  -41.4498 N.am      7 UNK        -0.5000 
     40 C           1.9966  -18.5583  -40.6917 C.2       6 UNK         0.5000 
     41 O           1.5839  -19.6517  -41.0793 O.2       6 UNK        -0.5000 
     42 CA          1.6397  -18.0665  -39.2767 C.3       6 UNK         0.1400 
     43 CB          2.7580  -18.4168  -38.2841 C.3       6 UNK        -0.1800 
     44 N           1.3868  -16.6246  -39.2316 N.am      6 UNK        -0.5000 
     45 C           0.3455  -16.0193  -39.8210 C.2       5 UNK         0.5000 
     46 O          -0.5393  -16.6214  -40.4275 O.2       5 UNK        -0.5000 
     47 CA          0.3190  -14.4801  -39.7663 C.3       5 UNK         0.1400 
     48 CB         -0.3648  -13.9969  -38.4789 C.3       5 UNK        -0.1800 
     49 N           1.6533  -13.8802  -39.8651 N.am      5 UNK        -0.5000 
     50 C           2.4499  -13.9786  -40.9368 C.2       4 UNK         0.5000 
     51 O           2.1433  -14.5869  -41.9654 O.2       4 UNK        -0.5000 
     52 CA          3.8398  -13.3444  -40.8151 C.3       4 UNK         0.1400 
     53 CB          4.7917  -14.2693  -40.0356 C.3       4 UNK        -0.1800 
     54 N           4.3756  -13.1082  -42.1510 N.am      4 UNK        -0.5000 
     55 C           5.2521  -12.1515  -42.4749 C.2       3 UNK         0.5000 
     56 O           5.7270  -11.3633  -41.6555 O.2       3 UNK        -0.5000 
     57 CA          5.6939  -12.0507  -43.9508 C.3       3 UNK         0.1400 
     58 CB          7.1311  -12.5718  -44.1120 C.3       3 UNK        -0.1800 
     59 N           4.8347  -12.7562  -44.9073 N.am      3 UNK        -0.5000 
     60 C           3.5829  -12.4050  -45.2273 C.2       2 UNK         0.5000 
     61 O           2.9774  -11.4755  -44.6888 O.2       2 UNK        -0.5000 
     62 CA          2.9071  -13.2611  -46.3184 C.3       2 UNK         0.1400 
     63 CB          2.6135  -14.6753  -45.7979 C.3       2 UNK        -0.1800 
     64 N           1.6557  -12.6752  -46.7945 N.am      2 UNK        -0.5000 
     65 C           1.5574  -11.6011  -47.5896 C.2       1 UNK         0.5000 
     66 O           2.5317  -11.0030  -48.0496 O.2       1 UNK        -0.5000 
     67 C          -2.0400  -20.2463  -47.8207 C.2       11 UNK         0.5000 
     68 O          -2.4033  -20.8016  -48.8561 O.2       11 UNK        -0.5000 
     69 N          -2.8808  -19.8827  -46.8408 N.am      12 UNK        -0.5000 
     70 CA         -4.3236  -20.1337  -46.8442 C.3       12 UNK         0.1400 
     71 CB         -4.9771  -19.4110  -45.6574 C.3       12 UNK        -0.1800 
     72 C          -4.6706  -21.6343  -46.8317 C.2       12 UNK         0.5000 
     73 O          -5.5879  -22.0512  -47.5404 O.2       12 UNK        -0.5000 
     74 N          -3.9103  -22.4263  -46.0626 N.am      13 UNK        -0.5000 
     75 CA         -4.0092  -23.8845  -46.0386 C.3       13 UNK         0.1400 
     76 CB         -3.1476  -24.4577  -44.9039 C.3       13 UNK        -0.1800 
     77 C          -3.6387  -24.5119  -47.3934 C.2       13 UNK         0.5000 
     78 O          -4.3903  -25.3497  -47.8862 O.2       13 UNK        -0.5000 
     79 N          -2.5270  -24.0645  -47.9964 N.am      14 UNK        -0.5000 
     80 CA         -2.0772  -24.4833  -49.3277 C.3       14 UNK         0.1400 
     81 CB         -0.6918  -23.8877  -49.6181 C.3       14 UNK        -0.1800 
     82 C          -3.0741  -24.1149  -50.4428 C.2       14 UNK         0.5000 
     83 O          -3.3297  -24.9370  -51.3276 O.2       14 UNK        -0.5000 
     84 N          -3.6447  -22.9041  -50.3536 N.am      15 UNK        -0.5000 
     85 CA         -4.7046  -22.3944  -51.2223 C.3       15 UNK         0.1400 
     86 CB         -5.0578  -20.9498  -50.8356 C.3       15 UNK        -0.1800 
     87 C          -5.9546  -23.2838  -51.2085 C.2       15 UNK         0.5000 
     88 O          -6.4328  -23.6647  -52.2770 O.2       15 UNK        -0.5000 
     89 N          -6.4280  -23.6222  -50.0026 N.am      16 UNK        -0.5000 
     90 CA         -7.5624  -24.5164  -49.7837 C.3       16 UNK         0.1400 
     91 CB         -7.9790  -24.4487  -48.3064 C.3       16 UNK        -0.1800 
     92 C          -7.2732  -25.9705  -50.2013 C.2       16 UNK         0.5000 
     93 O          -8.1586  -26.6271  -50.7510 O.2       16 UNK        -0.5000 
     94 N          -6.0528  -26.4485  -49.9221 N.am      17 UNK        -0.5000 
     95 CA         -5.6203  -27.8195  -50.1777 C.3       17 UNK         0.1400 
     96 CB         -4.3033  -28.1049  -49.4393 C.3       17 UNK        -0.1800 
     97 C          -5.4793  -28.1569  -51.6693 C.2       17 UNK         0.5000 
     98 O          -5.9789  -29.2041  -52.0857 O.2       17 UNK        -0.5000 
     99 N          -4.7879  -27.3038  -52.4409 N.am      18 UNK        -0.5000 
    100 CA        -4.4460  -27.6202  -53.8306 C.3       18 UNK         0.1400 
    101 CB        -3.2600  -28.6050  -53.8681 C.3       18 UNK        -0.1800 
    102 C         -4.1416  -26.4088  -54.7224 C.2       18 UNK         0.5000 
    103 O         -4.4112  -26.4925  -55.9217 O.2       18 UNK        -0.5000 
    104 N         -3.5464  -25.3360  -54.1777 N.am      19 UNK        -0.5000 
    105 CA        -3.0115  -24.2378  -54.9935 C.3       19 UNK         0.1400 
    106 CB        -2.0321  -23.3897  -54.1691 C.3       19 UNK        -0.1800 
    107 C         -4.0954  -23.3795  -55.6763 C.2       19 UNK         0.5000 
    108 O         -3.8808  -22.9414  -56.8056 O.2       19 UNK        -0.5000 
    109 N         -5.2388  -23.1998  -54.9970 N.am      20 UNK        -0.5000 
    110 CA        -6.4987  -22.6179  -55.4786 C.3       20 UNK         0.1400 
    111 CB        -7.2809  -23.7120  -56.2334 C.3       20 UNK        -0.1800 
    112 C         -6.3791  -21.3057  -56.3012 C.2       20 UNK         0.5000 
    113 O         -6.7950  -21.2826  -57.4597 O.2       20 UNK        -0.5000 
    114 N         -5.8518  -20.1997  -55.7557 N.am      21 UNK        -0.5000 
    115 CA        -5.2491  -20.0339  -54.4310 C.3       21 UNK         0.1400 
    116 CB        -5.7891  -18.7353  -53.8115 C.3       21 UNK        -0.1800 
    117 C         -3.7108  -19.9810  -54.4988 C.2       21 UNK         0.5000 
    118 O         -3.0607  -20.1878  -53.4762 O.2       21 UNK        -0.5000 
    119 N         -3.1610  -19.7178  -55.6888 N.am      22 UNK        -0.5000 
    120 CA        -1.7270  -19.6104  -55.9752 C.3       22 UNK         0.1400 
    121 C         -1.4260  -20.3214  -57.3180 C.2       22 UNK         0.5000 
    122 N         -0.3650  -21.1137  -57.3879 N.am      22 UNK        -0.7600 
    123 O         -2.1233  -20.1250  -58.3113 O.2       22 UNK        -0.5000 
    124 C124       -1.2607  -18.1309  -56.0274 C.3       23 UNK        -0.0398 
    125 S125       -1.2186  -17.3427  -54.3811 S.3       23 UNK        -0.2404 
    126 C126        0.5768  -17.2276  -54.1195 C.3       23 UNK        -0.0205 
    127 H127       -2.6321  -12.7588  -45.5527 H         1 UNK         0.0600 
    128 H128       -3.0669  -11.2027  -44.8394 H         1 UNK         0.0600 
    129 H129       -1.8476  -12.2190  -44.0651 H         1 UNK         0.0600 
    130 H130       -1.4348  -12.4273  -47.4192 H         1 UNK         0.3000 
    131 H131        0.1442  -10.0381  -47.8500 H         1 UNK         0.0600 
    132 H132       -1.1237  -10.9050  -49.7086 H         1 UNK         0.0800 
    133 H133        0.5615  -10.9943  -50.1007 H         1 UNK         0.0800 
    134 H134        1.9717  -13.3314  -50.0010 H         1 UNK         0.0800 
    135 H135        1.2450  -12.9437  -51.5430 H         1 UNK         0.0800 
    136 H136        0.5195  -14.7145  -53.0635 H         1 UNK         0.1150 
    137 H137        1.3903  -18.7830  -52.0416 H         1 UNK         0.1150 
    138 H138        1.9342  -15.6751  -49.1345 H         1 UNK         0.1150 
    139 H139        1.9275  -19.4026  -49.8123 H         1 UNK         0.0800 
    140 H140        3.2924  -18.3664  -49.4733 H         1 UNK         0.0800 
    141 H141       -0.4920  -18.2913  -48.9576 H         1 UNK         0.0800 
    142 H142       -0.7127  -17.8347  -47.2922 H         1 UNK         0.0800 
    143 H143        0.0054  -20.6372  -48.2815 H         1 UNK         0.0600 
    144 H144        0.2368  -19.6579  -45.6305 H         1 UNK         0.3000 
    145 H145       -0.3576  -22.7841  -43.9573 H         1 UNK         0.0600 
    146 H146        2.1826  -21.1194  -44.3471 H         1 UNK         0.0600 
    147 H147        1.8378  -22.1457  -42.9576 H         1 UNK         0.0600 
    148 H148        2.0240  -22.8549  -44.5550 H         1 UNK         0.0600 
    149 H149        0.2244  -20.1127  -43.0494 H         1 UNK         0.3000 
    150 H150       -3.2007  -19.1082  -42.7070 H         1 UNK         0.0600 
    151 H151       -2.7279  -20.4518  -40.6573 H         1 UNK         0.0600 
    152 H152       -2.4799  -18.7364  -40.3677 H         1 UNK         0.0600 
    153 H153       -1.0944  -19.8017  -40.5924 H         1 UNK         0.0600 
    154 H154       -0.8112  -17.7560  -42.0141 H         1 UNK         0.3000 
    155 H155       -0.0482  -16.4035  -45.2420 H         1 UNK         0.0600 
    156 H156       -0.1160  -14.3052  -43.8890 H         1 UNK         0.0600 
    157 H157       -1.7364  -14.8680  -44.2719 H         1 UNK         0.0600 
    158 H158       -1.0825  -15.1179  -42.6610 H         1 UNK         0.0600 
    159 H159        1.3045  -16.0528  -42.8007 H         1 UNK         0.3000 
    160 H160        3.3780  -18.9962  -42.9608 H         1 UNK         0.0600 
    161 H161        4.4479  -17.2439  -44.3472 H         1 UNK         0.0600 
    162 H162        5.0747  -17.2042  -42.7071 H         1 UNK         0.0600 
    163 H163        3.9143  -15.9909  -43.2368 H         1 UNK         0.0600 
    164 H164        2.9814  -16.8260  -41.0722 H         1 UNK         0.3000 
    165 H165        0.7292  -18.5827  -38.9646 H         1 UNK         0.0600 
    166 H166        2.4836  -18.1379  -37.2665 H         1 UNK         0.0600 
    167 H167        2.9567  -19.4894  -38.2835 H         1 UNK         0.0600 
    168 H168        3.6916  -17.9099  -38.5316 H         1 UNK         0.0600 
    169 H169        2.0646  -16.0555  -38.7469 H         1 UNK         0.3000 
    170 H170       -0.2694  -14.1281  -40.6156 H         1 UNK         0.0600 
    171 H171       -1.3691  -14.4138  -38.3909 H         1 UNK         0.0600 
    172 H172        0.1927  -14.2929  -37.5894 H         1 UNK         0.0600 
    173 H173       -0.4635  -12.9113  -38.4683 H         1 UNK         0.0600 
    174 H174        1.9779  -13.3700  -39.0561 H         1 UNK         0.3000 
    175 H175        3.7341  -12.3938  -40.2881 H         1 UNK         0.0600 
    176 H176        4.9237  -15.2274  -40.5401 H         1 UNK         0.0600 
    177 H177        5.7763  -13.8155  -39.9217 H         1 UNK         0.0600 
    178 H178        4.4138  -14.4729  -39.0331 H         1 UNK         0.0600 
    179 H179        3.9661  -13.6785  -42.8785 H         1 UNK         0.3000 
    180 H180        5.6860  -10.9910  -44.2143 H         1 UNK         0.0600 
    181 H181        7.2007  -13.6354  -43.8802 H         1 UNK         0.0600 
    182 H182        7.8167  -12.0458  -43.4462 H         1 UNK         0.0600 
    183 H183        7.4941  -12.4238  -45.1293 H         1 UNK         0.0600 
    184 H184        5.2568  -13.5400  -45.3839 H         1 UNK         0.3000 
    185 H185        3.5904  -13.3379  -47.1669 H         1 UNK         0.0600 
    186 H186        2.0433  -15.2602  -46.5199 H         1 UNK         0.0600 
    187 H187        3.5360  -15.2213  -45.6025 H         1 UNK         0.0600 
    188 H188        2.0482  -14.6407  -44.8679 H         1 UNK         0.0600 
    189 H189        0.8025  -13.0768  -46.4378 H         1 UNK         0.3000 
    190 H190       -2.5095  -19.3764  -46.0405 H         1 UNK         0.3000 
    191 H191       -4.7298  -19.7065  -47.7628 H         1 UNK         0.0600 
    192 H192       -4.6045  -19.7832  -44.7034 H         1 UNK         0.0600 
    193 H193       -6.0589  -19.5500  -45.6642 H         1 UNK         0.0600 
    194 H194       -4.7861  -18.3383  -45.6952 H         1 UNK         0.0600 
    195 H195       -3.2216  -22.0025  -45.4493 H         1 UNK         0.3000 
    196 H196       -5.0499  -24.1411  -45.8294 H         1 UNK         0.0600 
    197 H197       -3.2497  -25.5422  -44.8490 H         1 UNK         0.0600 
    198 H198       -3.4491  -24.0532  -43.9375 H         1 UNK         0.0600 
    199 H199       -2.0904  -24.2362  -45.0437 H         1 UNK         0.0600 
    200 H200       -1.9399  -23.3951  -47.5058 H         1 UNK         0.3000 
    201 H201       -1.9809  -25.5703  -49.3169 H         1 UNK         0.0600 
    202 H202        0.0377  -24.2071  -48.8737 H         1 UNK         0.0600 
    203 H203       -0.7123  -22.7977  -49.6179 H         1 UNK         0.0600 
    204 H204       -0.3253  -24.2092  -50.5938 H         1 UNK         0.0600 
    205 H205       -3.3123  -22.2675  -49.6334 H         1 UNK         0.3000 
    206 H206       -4.3275  -22.3819  -52.2427 H         1 UNK         0.0600 
    207 H207       -4.2067  -20.2842  -50.9796 H         1 UNK         0.0600 
    208 H208       -5.8799  -20.5690  -51.4410 H         1 UNK         0.0600 
    209 H209       -5.3677  -20.8699  -49.7964 H         1 UNK         0.0600 
    210 H210       -5.9801  -23.2416  -49.1747 H         1 UNK         0.3000 
    211 H211       -8.3967  -24.1564  -50.3893 H         1 UNK         0.0600 
    212 H212       -7.1714  -24.7670  -47.6460 H         1 UNK         0.0600 
    213 H213       -8.8379  -25.0921  -48.1116 H         1 UNK         0.0600 
    214 H214       -8.2601  -23.4343  -48.0229 H         1 UNK         0.0600 
    215 H215       -5.4065  -25.8632  -49.3994 H         1 UNK         0.3000 
    216 H216       -6.3795  -28.4860  -49.7626 H         1 UNK         0.0600 
    217 H217       -3.9576  -29.1213  -49.6321 H         1 UNK         0.0600 
    218 H218       -4.4267  -28.0063  -48.3609 H         1 UNK         0.0600 
    219 H219       -3.5113  -27.4242  -49.7518 H         1 UNK         0.0600 
    220 H220       -4.4126  -26.4508  -52.0375 H         1 UNK         0.3000 
    221 H221       -5.3065  -28.1096  -54.2929 H         1 UNK         0.0600 
    222 H222       -2.3864  -28.1951  -53.3598 H         1 UNK         0.0600 
    223 H223       -3.5097  -29.5530  -53.3917 H         1 UNK         0.0600 
    224 H224       -2.9673  -28.8315  -54.8943 H         1 UNK         0.0600 
    225 H225       -3.3597  -25.3005  -53.1796 H         1 UNK         0.3000 
    226 H226       -2.4267  -24.6892  -55.7984 H         1 UNK         0.0600 
    227 H227       -1.1950  -23.9915  -53.8152 H         1 UNK         0.0600 
    228 H228       -1.6175  -22.5803  -54.7704 H         1 UNK         0.0600 
    229 H229       -2.5038  -22.9400  -53.2997 H         1 UNK         0.0600 
    230 H230       -5.3065  -23.6180  -54.0763 H         1 UNK         0.3000 
    231 H231       -7.0861  -22.3670  -54.5947 H         1 UNK         0.0600 
    232 H232       -8.2619  -23.3527  -56.5469 H         1 UNK         0.0600 
    233 H233       -7.4446  -24.5845  -55.6004 H         1 UNK         0.0600 
    234 H234       -6.7482  -24.0436  -57.1255 H         1 UNK         0.0600 
    235 H235       -5.8460  -19.3677  -56.3268 H         1 UNK         0.3000 
    236 H236       -5.5253  -20.8538  -53.7711 H         1 UNK         0.0600 
    237 H237       -6.8708  -18.7799  -53.6836 H         1 UNK         0.0600 
    238 H238       -5.5593  -17.8670  -54.4305 H         1 UNK         0.0600 
    239 H239       -5.3530  -18.5568  -52.8277 H         1 UNK         0.0600 
    240 H240       -3.7565  -19.6577  -56.5025 H         1 UNK         0.3000 
    241 H241       -1.1618  -20.1255  -55.1956 H         1 UNK         0.0600 
    242 H242       -0.1546  -21.5683  -58.2631 H         1 UNK         0.3800 
    243 H243        0.2356  -21.2730  -56.5941 H         1 UNK         0.3800 
    244 H244       -0.2684  -18.0555  -56.4760 H         1 UNK         0.0800 
    245 H245       -1.9200  -17.5471  -56.6718 H         1 UNK         0.0800 
    246 H246        1.0359  -18.1937  -54.3359 H         1 UNK         0.0800 
    247 H247        1.0014  -16.5181  -54.8314 H         1 UNK         0.0800 
@<TRIPOS>BOND
     1    1    2 1    
     2    1  127 1    
     3    1  128 1    
     4    1  129 1    
     5    2    3 2    
     6    2    4 am   BACKBONE|DICT|INTERRES
     7    4    5 1    
     8    4  130 1    
     9    5    6 1    
    10    5   65 1    
    11    5  131 1    
    12    6    7 1    
    13    6  132 1    
    14    6  133 1    
    15    7    8 1    
    16    8    9 1    
    17    8  134 1    
    18    8  135 1    
    19    9   10 ar   
    20    9   14 ar   
    21   10   11 ar   
    22   10  136 1    
    23   11   12 ar   
    24   11  126 1    
    25   12   13 ar   
    26   12  137 1    
    27   13   14 ar   
    28   13   15 1    
    29   14  138 1    
    30   15   16 1    
    31   15  139 1    
    32   15  140 1    
    33   16   17 1    
    34   17   18 1    
    35   17  141 1    
    36   17  142 1    
    37   18   19 1    
    38   18   67 1    
    39   18  143 1    
    40   19   20 am   BACKBONE|DICT|INTERRES
    41   19  144 1    
    42   20   21 2    
    43   20   22 1    
    44   22   23 1    
    45   22   24 1    
    46   22  145 1    
    47   23  146 1    
    48   23  147 1    
    49   23  148 1    
    50   24   25 am   BACKBONE|DICT|INTERRES
    51   24  149 1    
    52   25   26 2    
    53   25   27 1    
    54   27   28 1    
    55   27   29 1    
    56   27  150 1    
    57   28  151 1    
    58   28  152 1    
    59   28  153 1    
    60   29   30 am   BACKBONE|DICT|INTERRES
    61   29  154 1    
    62   30   31 2    
    63   30   32 1    
    64   32   33 1    
    65   32   34 1    
    66   32  155 1    
    67   33  156 1    
    68   33  157 1    
    69   33  158 1    
    70   34   35 am   BACKBONE|DICT|INTERRES
    71   34  159 1    
    72   35   36 2    
    73   35   37 1    
    74   37   38 1    
    75   37   39 1    
    76   37  160 1    
    77   38  161 1    
    78   38  162 1    
    79   38  163 1    
    80   39   40 am   BACKBONE|DICT|INTERRES
    81   39  164 1    
    82   40   41 2    
    83   40   42 1    
    84   42   43 1    
    85   42   44 1    
    86   42  165 1    
    87   43  166 1    
    88   43  167 1    
    89   43  168 1    
    90   44   45 am   BACKBONE|DICT|INTERRES
    91   44  169 1    
    92   45   46 2    
    93   45   47 1    
    94   47   48 1    
    95   47   49 1    
    96   47  170 1    
    97   48  171 1    
    98   48  172 1    
    99   48  173 1    
   100   49   50 am   BACKBONE|DICT|INTERRES
   101   49  174 1    
   102   50   51 2    
   103   50   52 1    
   104   52   53 1    
   105   52   54 1    
   106   52  175 1    
   107   53  176 1    
   108   53  177 1    
   109   53  178 1    
   110   54   55 am   BACKBONE|DICT|INTERRES
   111   54  179 1    
   112   55   56 2    
   113   55   57 1    
   114   57   58 1    
   115   57   59 1    
   116   57  180 1    
   117   58  181 1    
   118   58  182 1    
   119   58  183 1    
   120   59   60 am   BACKBONE|DICT|INTERRES
   121   59  184 1    
   122   60   61 2    
   123   60   62 1    
   124   62   63 1    
   125   62   64 1    
   126   62  185 1    
   127   63  186 1    
   128   63  187 1    
   129   63  188 1    
   130   64   65 am   BACKBONE|DICT|INTERRES
   131   64  189 1    
   132   65   66 2    
   133   67   68 2    
   134   67   69 am   BACKBONE|DICT|INTERRES
   135   69   70 1    
   136   69  190 1    
   137   70   71 1    
   138   70   72 1    
   139   70  191 1    
   140   71  192 1    
   141   71  193 1    
   142   71  194 1    
   143   72   73 2    
   144   72   74 am   BACKBONE|DICT|INTERRES
   145   74   75 1    
   146   74  195 1    
   147   75   76 1    
   148   75   77 1    
   149   75  196 1    
   150   76  197 1    
   151   76  198 1    
   152   76  199 1    
   153   77   78 2    
   154   77   79 am   BACKBONE|DICT|INTERRES
   155   79   80 1    
   156   79  200 1    
   157   80   81 1    
   158   80   82 1    
   159   80  201 1    
   160   81  202 1    
   161   81  203 1    
   162   81  204 1    
   163   82   83 2    
   164   82   84 am   BACKBONE|DICT|INTERRES
   165   84   85 1    
   166   84  205 1    
   167   85   86 1    
   168   85   87 1    
   169   85  206 1    
   170   86  207 1    
   171   86  208 1    
   172   86  209 1    
   173   87   88 2    
   174   87   89 am   BACKBONE|DICT|INTERRES
   175   89   90 1    
   176   89  210 1    
   177   90   91 1    
   178   90   92 1    
   179   90  211 1    
   180   91  212 1    
   181   91  213 1    
   182   91  214 1    
   183   92   93 2    
   184   92   94 am   BACKBONE|DICT|INTERRES
   185   94   95 1    
   186   94  215 1    
   187   95   96 1    
   188   95   97 1    
   189   95  216 1    
   190   96  217 1    
   191   96  218 1    
   192   96  219 1    
   193   97   98 2    
   194   97   99 am   BACKBONE|DICT|INTERRES
   195   99  100 1    
   196   99  220 1    
   197  100  101 1    
   198  100  102 1    
   199  100  221 1    
   200  101  222 1    
   201  101  223 1    
   202  101  224 1    
   203  102  103 2    
   204  102  104 am   BACKBONE|DICT|INTERRES
   205  104  105 1    
   206  104  225 1    
   207  105  106 1    
   208  105  107 1    
   209  105  226 1    
   210  106  227 1    
   211  106  228 1    
   212  106  229 1    
   213  107  108 2    
   214  107  109 am   BACKBONE|DICT|INTERRES
   215  109  110 1    
   216  109  230 1    
   217  110  111 1    
   218  110  112 1    
   219  110  231 1    
   220  111  232 1    
   221  111  233 1    
   222  111  234 1    
   223  112  113 2    
   224  112  114 am   BACKBONE|DICT|INTERRES
   225  114  115 1    
   226  114  235 1    
   227  115  116 1    
   228  115  117 1    
   229  115  236 1    
   230  116  237 1    
   231  116  238 1    
   232  116  239 1    
   233  117  118 2    
   234  117  119 am   BACKBONE|DICT|INTERRES
   235  119  120 1    
   236  119  240 1    
   237  120  121 1    
   238  120  124 1    
   239  120  241 1    
   240  121  122 am   BACKBONE|DICT|INTERRES
   241  121  123 2    
   242  122  242 1    
   243  122  243 1    
   244  124  125 1    
   245  124  244 1    
   246  124  245 1    
   247  125  126 1    
   248  126  246 1    
   249  126  247 1    
@<TRIPOS>SUBSTRUCTURE
     1 UNK         1 GROUP             0       ****    0 ROOT    
