@<TRIPOS>MOLECULE
3R540
247   249    1
SMALL
USER_CHARGES


@<TRIPOS>ATOM
      1 CA          4.1079  -11.6330  -52.2386 C.3       0 UNK        -0.1800 
      2 C           3.9462  -11.6096  -50.7251 C.2       0 UNK         0.5000 
      3 O           4.4463  -10.6956  -50.0685 O.2       0 UNK        -0.5000 
      4 N           3.2577  -12.6136  -50.1708 N.am      1 UNK        -0.5000 
      5 CA          2.9509  -12.7291  -48.7430 C.3       1 UNK         0.1400 
      6 C6          2.4524  -14.1478  -48.3705 C.3       23 UNK        -0.0398 
      7 S7          3.7282  -15.4372  -48.5483 S.3       23 UNK        -0.2404 
      8 C8          3.2503  -16.2514  -50.1071 C.3       23 UNK        -0.0205 
      9 C9          1.8874  -16.9278  -50.0333 C.ar      23 UNK        -0.0193 
     10 C10         0.8104  -16.4245  -50.7713 C.ar      23 UNK        -0.1150 
     11 C11        -0.4324  -17.0615  -50.7326 C.ar      23 UNK        -0.0193 
     12 C12        -0.5912  -18.2085  -49.9542 C.ar      23 UNK        -0.1150 
     13 C13         0.4739  -18.7319  -49.2197 C.ar      23 UNK        -0.0193 
     14 C14         1.7102  -18.0757  -49.2534 C.ar      23 UNK        -0.1150 
     15 C15         0.2590  -19.9862  -48.3809 C.3       23 UNK        -0.0205 
     16 S16         1.5933  -21.2122  -48.5713 S.3       23 UNK        -0.2404 
     17 C17         0.6912  -22.7179  -49.0790 C.3       23 UNK        -0.0398 
     18 CA          0.1554  -23.5847  -47.9087 C.3       11 UNK         0.1400 
     19 N           1.1269  -23.7146  -46.8185 N.am      11 UNK        -0.5000 
     20 C           1.0645  -24.5978  -45.8163 C.2       10 UNK         0.5000 
     21 O           0.1795  -25.4465  -45.7220 O.2       10 UNK        -0.5000 
     22 CA          2.1228  -24.4766  -44.7040 C.3       10 UNK         0.1400 
     23 CB          3.2753  -25.4589  -44.9572 C.3       10 UNK        -0.1800 
     24 N           2.6684  -23.1245  -44.5326 N.am      10 UNK        -0.5000 
     25 C           1.9557  -22.0384  -44.2003 C.2       9 UNK         0.5000 
     26 O           0.7288  -22.0430  -44.0748 O.2       9 UNK        -0.5000 
     27 CA          2.7577  -20.7351  -44.0241 C.3       9 UNK         0.1400 
     28 CB          2.9736  -20.0353  -45.3740 C.3       9 UNK        -0.1800 
     29 N           2.1078  -19.8027  -43.1057 N.am      9 UNK        -0.5000 
     30 C           2.0818  -19.9387  -41.7738 C.2       8 UNK         0.5000 
     31 O           2.6204  -20.8714  -41.1750 O.2       8 UNK        -0.5000 
     32 CA          1.3631  -18.8428  -40.9622 C.3       8 UNK         0.1400 
     33 CB          2.3731  -17.7992  -40.4605 C.3       8 UNK        -0.1800 
     34 N           0.3082  -18.1620  -41.7128 N.am      8 UNK        -0.5000 
     35 C          -0.8988  -18.6851  -41.9661 C.2       7 UNK         0.5000 
     36 O          -1.2697  -19.7808  -41.5442 O.2       7 UNK        -0.5000 
     37 CA         -1.8581  -17.8444  -42.8325 C.3       7 UNK         0.1400 
     38 CB         -2.7159  -16.9274  -41.9480 C.3       7 UNK        -0.1800 
     39 N          -1.1819  -17.0421  -43.8557 N.am      7 UNK        -0.5000 
     40 C          -0.4762  -17.5554  -44.8744 C.2       6 UNK         0.5000 
     41 O          -0.3280  -18.7597  -45.0589 O.2       6 UNK        -0.5000 
     42 CA          0.2305  -16.5623  -45.8122 C.3       6 UNK         0.1400 
     43 CB         -0.7620  -15.9366  -46.8040 C.3       6 UNK        -0.1800 
     44 N           0.9215  -15.5104  -45.0709 N.am      6 UNK        -0.5000 
     45 C           1.9470  -15.7157  -44.2328 C.2       5 UNK         0.5000 
     46 O           2.4674  -16.8133  -44.0377 O.2       5 UNK        -0.5000 
     47 CA          2.4361  -14.4948  -43.4368 C.3       5 UNK         0.1400 
     48 CB          3.3869  -13.6303  -44.2790 C.3       5 UNK        -0.1800 
     49 N           1.3226  -13.6790  -42.9499 N.am      5 UNK        -0.5000 
     50 C           0.4701  -14.0611  -41.9884 C.2       4 UNK         0.5000 
     51 O           0.5490  -15.1352  -41.3934 O.2       4 UNK        -0.5000 
     52 CA         -0.6787  -13.0917  -41.6537 C.3       4 UNK         0.1400 
     53 CB         -0.2131  -12.0295  -40.6468 C.3       4 UNK        -0.1800 
     54 N          -1.2252  -12.4288  -42.8386 N.am      4 UNK        -0.5000 
     55 C          -1.9232  -13.0524  -43.7980 C.2       3 UNK         0.5000 
     56 O          -2.1956  -14.2525  -43.7764 O.2       3 UNK        -0.5000 
     57 CA         -2.3332  -12.1997  -45.0152 C.3       3 UNK         0.1400 
     58 CB         -3.6118  -11.4036  -44.7141 C.3       3 UNK        -0.1800 
     59 N          -1.2824  -11.2834  -45.4772 N.am      3 UNK        -0.5000 
     60 C          -0.0592  -11.6731  -45.8574 C.2       2 UNK         0.5000 
     61 O           0.3248  -12.8436  -45.7967 O.2       2 UNK        -0.5000 
     62 CA          0.9146  -10.5808  -46.3422 C.3       2 UNK         0.1400 
     63 CB          1.5031   -9.8211  -45.1428 C.3       2 UNK        -0.1800 
     64 N           2.0127  -11.1909  -47.0930 N.am      2 UNK        -0.5000 
     65 C           1.8830  -11.6994  -48.3241 C.2       1 UNK         0.5000 
     66 O           0.9344  -11.4527  -49.0739 O.2       1 UNK        -0.5000 
     67 C          -1.2555  -23.1415  -47.4539 C.2       11 UNK         0.5000 
     68 O          -2.1892  -23.2713  -48.2452 O.2       11 UNK        -0.5000 
     69 N          -1.4081  -22.6530  -46.2135 N.am      12 UNK        -0.5000 
     70 CA         -2.7066  -22.3854  -45.5872 C.3       12 UNK         0.1400 
     71 CB         -2.6213  -21.0884  -44.7723 C.3       12 UNK        -0.1800 
     72 C          -3.2170  -23.5578  -44.7258 C.2       12 UNK         0.5000 
     73 O          -4.3493  -23.4922  -44.2449 O.2       12 UNK        -0.5000 
     74 N          -2.4004  -24.6049  -44.5474 N.am      13 UNK        -0.5000 
     75 CA         -2.7807  -25.8510  -43.8818 C.3       13 UNK         0.1400 
     76 CB         -1.6843  -26.2517  -42.8812 C.3       13 UNK        -0.1800 
     77 C          -3.0083  -26.9625  -44.9194 C.2       13 UNK         0.5000 
     78 O          -3.9963  -27.6914  -44.8274 O.2       13 UNK        -0.5000 
     79 N          -2.0969  -27.0634  -45.8965 N.am      14 UNK        -0.5000 
     80 CA         -2.1195  -28.0513  -46.9759 C.3       14 UNK         0.1400 
     81 CB         -0.7063  -28.1524  -47.5716 C.3       14 UNK        -0.1800 
     82 C          -3.1430  -27.7357  -48.0841 C.2       14 UNK         0.5000 
     83 O          -3.4989  -28.6351  -48.8469 O.2       14 UNK        -0.5000 
     84 N          -3.5887  -26.4783  -48.1669 N.am      15 UNK        -0.5000 
     85 CA         -4.5523  -25.9771  -49.1390 C.3       15 UNK         0.1400 
     86 CB         -3.8183  -25.5833  -50.4356 C.3       15 UNK        -0.1800 
     87 C          -5.3019  -24.7840  -48.5301 C.2       15 UNK         0.5000 
     88 O          -4.9397  -24.3059  -47.4523 O.2       15 UNK        -0.5000 
     89 N          -6.3273  -24.3018  -49.2398 N.am      16 UNK        -0.5000 
     90 CA         -7.1083  -23.1162  -48.8863 C.3       16 UNK         0.1400 
     91 CB         -8.4737  -23.2015  -49.5925 C.3       16 UNK        -0.1800 
     92 C          -6.3381  -21.8274  -49.2409 C.2       16 UNK         0.5000 
     93 O          -6.7124  -21.1302  -50.1845 O.2       16 UNK        -0.5000 
     94 N          -5.2393  -21.5745  -48.5132 N.am      17 UNK        -0.5000 
     95 CA         -4.2788  -20.4777  -48.7023 C.3       17 UNK         0.1400 
     96 CB         -4.9119  -19.1203  -48.3365 C.3       17 UNK        -0.1800 
     97 C          -3.6741  -20.5063  -50.1181 C.2       17 UNK         0.5000 
     98 O          -3.8277  -19.5566  -50.8852 O.2       17 UNK        -0.5000 
     99 N          -3.0574  -21.6503  -50.4454 N.am      18 UNK        -0.5000 
    100 CA        -2.4918  -22.0386  -51.7446 C.3       18 UNK         0.1400 
    101 CB        -1.3878  -21.0595  -52.1868 C.3       18 UNK        -0.1800 
    102 C         -3.5364  -22.2715  -52.8611 C.2       18 UNK         0.5000 
    103 O         -3.1523  -22.6684  -53.9626 O.2       18 UNK        -0.5000 
    104 N         -4.8283  -22.0653  -52.5607 N.am      19 UNK        -0.5000 
    105 CA        -5.9945  -22.2745  -53.4187 C.3       19 UNK         0.1400 
    106 CB        -6.2723  -23.7869  -53.5694 C.3       19 UNK        -0.1800 
    107 C         -5.8805  -21.5074  -54.7527 C.2       19 UNK         0.5000 
    108 O         -5.7496  -20.2815  -54.7357 O.2       19 UNK        -0.5000 
    109 N         -5.9119  -22.2298  -55.8804 N.am      20 UNK        -0.5000 
    110 CA        -5.8767  -21.7028  -57.2476 C.3       20 UNK         0.1400 
    111 CB        -6.0580  -22.8718  -58.2285 C.3       20 UNK        -0.1800 
    112 C         -4.6160  -20.8891  -57.6071 C.2       20 UNK         0.5000 
    113 O         -4.6544  -20.1302  -58.5766 O.2       20 UNK        -0.5000 
    114 N         -3.5320  -21.0412  -56.8324 N.am      21 UNK        -0.5000 
    115 CA        -2.3039  -20.2594  -56.9815 C.3       21 UNK         0.1400 
    116 CB        -1.1748  -20.9344  -56.1916 C.3       21 UNK        -0.1800 
    117 C         -2.4617  -18.7881  -56.5456 C.2       21 UNK         0.5000 
    118 O         -1.7328  -17.9379  -57.0594 O.2       21 UNK        -0.5000 
    119 N         -3.3980  -18.5137  -55.6265 N.am      22 UNK        -0.5000 
    120 CA        -3.7092  -17.1655  -55.1200 C.3       22 UNK         0.1400 
    121 C         -5.1661  -16.7254  -55.4313 C.2       22 UNK         0.5000 
    122 N         -6.1261  -17.6305  -55.5754 N.am      22 UNK        -0.7600 
    123 O         -5.4301  -15.5330  -55.5600 O.2       22 UNK        -0.5000 
    124 C124       -3.4213  -17.0311  -53.6036 C.3       23 UNK        -0.0398 
    125 S125       -1.6601  -17.2651  -53.1917 S.3       23 UNK        -0.2404 
    126 C126       -1.6097  -16.5271  -51.5309 C.3       23 UNK        -0.0205 
    127 H127        5.1652  -11.6549  -52.5029 H         1 UNK         0.0600 
    128 H128        3.6641  -10.7392  -52.6771 H         1 UNK         0.0600 
    129 H129        3.6282  -12.5047  -52.6847 H         1 UNK         0.0600 
    130 H130        2.8447  -13.3160  -50.7650 H         1 UNK         0.3000 
    131 H131        3.8658  -12.5262  -48.1816 H         1 UNK         0.0600 
    132 H132        2.1374  -14.1786  -47.3267 H         1 UNK         0.0800 
    133 H133        1.5665  -14.4072  -48.9503 H         1 UNK         0.0800 
    134 H134        3.2802  -15.5233  -50.9184 H         1 UNK         0.0800 
    135 H135        4.0023  -17.0030  -50.3507 H         1 UNK         0.0800 
    136 H136        0.9380  -15.5428  -51.3832 H         1 UNK         0.1150 
    137 H137       -1.5520  -18.6967  -49.9292 H         1 UNK         0.1150 
    138 H138        2.5409  -18.4630  -48.6803 H         1 UNK         0.1150 
    139 H139        0.1964  -19.7009  -47.3336 H         1 UNK         0.0800 
    140 H140       -0.7001  -20.4436  -48.6252 H         1 UNK         0.0800 
    141 H141       -0.0954  -22.4624  -49.7895 H         1 UNK         0.0800 
    142 H142        1.3997  -23.3172  -49.6522 H         1 UNK         0.0800 
    143 H143        0.0101  -24.5901  -48.3100 H         1 UNK         0.0600 
    144 H144        1.8700  -23.0305  -46.8136 H         1 UNK         0.3000 
    145 H145        1.6359  -24.7554  -43.7672 H         1 UNK         0.0600 
    146 H146        3.9830  -25.4601  -44.1280 H         1 UNK         0.0600 
    147 H147        2.9032  -26.4788  -45.0654 H         1 UNK         0.0600 
    148 H148        3.8229  -25.2109  -45.8674 H         1 UNK         0.0600 
    149 H149        3.6692  -23.0350  -44.6352 H         1 UNK         0.3000 
    150 H150        3.7373  -20.9884  -43.6133 H         1 UNK         0.0600 
    151 H151        3.4853  -20.6887  -46.0813 H         1 UNK         0.0600 
    152 H152        3.5842  -19.1394  -45.2607 H         1 UNK         0.0600 
    153 H153        2.0291  -19.7364  -45.8259 H         1 UNK         0.0600 
    154 H154        1.6189  -19.0228  -43.5256 H         1 UNK         0.3000 
    155 H155        0.9134  -19.3217  -40.0899 H         1 UNK         0.0600 
    156 H156        3.1681  -18.2699  -39.8807 H         1 UNK         0.0600 
    157 H157        1.8923  -17.0641  -39.8149 H         1 UNK         0.0600 
    158 H158        2.8413  -17.2635  -41.2869 H         1 UNK         0.0600 
    159 H159        0.5130  -17.2255  -42.0401 H         1 UNK         0.3000 
    160 H160       -2.5268  -18.5372  -43.3461 H         1 UNK         0.0600 
    161 H161       -2.1085  -16.1786  -41.4390 H         1 UNK         0.0600 
    162 H162       -3.2417  -17.5004  -41.1833 H         1 UNK         0.0600 
    163 H163       -3.4697  -16.4045  -42.5367 H         1 UNK         0.0600 
    164 H164       -1.2949  -16.0350  -43.7907 H         1 UNK         0.3000 
    165 H165        0.9788  -17.1153  -46.3843 H         1 UNK         0.0600 
    166 H166       -0.2507  -15.3012  -47.5262 H         1 UNK         0.0600 
    167 H167       -1.2882  -16.7081  -47.3675 H         1 UNK         0.0600 
    168 H168       -1.5115  -15.3289  -46.2965 H         1 UNK         0.0600 
    169 H169        0.5808  -14.5602  -45.2007 H         1 UNK         0.3000 
    170 H170        2.9919  -14.8625  -42.5715 H         1 UNK         0.0600 
    171 H171        4.2381  -14.2164  -44.6279 H         1 UNK         0.0600 
    172 H172        2.8914  -13.2216  -45.1580 H         1 UNK         0.0600 
    173 H173        3.7816  -12.7970  -43.6976 H         1 UNK         0.0600 
    174 H174        1.1487  -12.8109  -43.4328 H         1 UNK         0.3000 
    175 H175       -1.4785  -13.6727  -41.1894 H         1 UNK         0.0600 
    176 H176        0.5719  -11.3958  -41.0614 H         1 UNK         0.0600 
    177 H177       -1.0389  -11.3860  -40.3426 H         1 UNK         0.0600 
    178 H178        0.1837  -12.4957  -39.7439 H         1 UNK         0.0600 
    179 H179       -1.0397  -11.4420  -42.9402 H         1 UNK         0.3000 
    180 H180       -2.5485  -12.8885  -45.8348 H         1 UNK         0.0600 
    181 H181       -3.4511  -10.6629  -43.9298 H         1 UNK         0.0600 
    182 H182       -4.4140  -12.0644  -44.3825 H         1 UNK         0.0600 
    183 H183       -3.9695  -10.8813  -45.6015 H         1 UNK         0.0600 
    184 H184       -1.5297  -10.3061  -45.5375 H         1 UNK         0.3000 
    185 H185        0.3764   -9.8816  -46.9854 H         1 UNK         0.0600 
    186 H186        0.7207   -9.3220  -44.5700 H         1 UNK         0.0600 
    187 H187        2.0341  -10.4879  -44.4619 H         1 UNK         0.0600 
    188 H188        2.2027   -9.0517  -45.4701 H         1 UNK         0.0600 
    189 H189        2.8209  -11.4502  -46.5478 H         1 UNK         0.3000 
    190 H190       -0.5945  -22.5245  -45.6195 H         1 UNK         0.3000 
    191 H191       -3.4656  -22.2343  -46.3534 H         1 UNK         0.0600 
    192 H192       -1.8266  -21.1299  -44.0270 H         1 UNK         0.0600 
    193 H193       -3.5552  -20.8837  -44.2477 H         1 UNK         0.0600 
    194 H194       -2.4296  -20.2382  -45.4255 H         1 UNK         0.0600 
    195 H195       -1.4880  -24.5942  -44.9864 H         1 UNK         0.3000 
    196 H196       -3.7097  -25.7221  -43.3227 H         1 UNK         0.0600 
    197 H197       -1.9526  -27.1705  -42.3582 H         1 UNK         0.0600 
    198 H198       -1.5410  -25.4780  -42.1268 H         1 UNK         0.0600 
    199 H199       -0.7248  -26.4219  -43.3701 H         1 UNK         0.0600 
    200 H200       -1.2823  -26.4531  -45.8703 H         1 UNK         0.3000 
    201 H201       -2.3824  -29.0224  -46.5515 H         1 UNK         0.0600 
    202 H202        0.0236  -28.4298  -46.8108 H         1 UNK         0.0600 
    203 H203       -0.3876  -27.2063  -48.0109 H         1 UNK         0.0600 
    204 H204       -0.6634  -28.9103  -48.3549 H         1 UNK         0.0600 
    205 H205       -3.3083  -25.7996  -47.4706 H         1 UNK         0.3000 
    206 H206       -5.2893  -26.7530  -49.3563 H         1 UNK         0.0600 
    207 H207       -3.3239  -26.4447  -50.8845 H         1 UNK         0.0600 
    208 H208       -4.5049  -25.1833  -51.1820 H         1 UNK         0.0600 
    209 H209       -3.0575  -24.8261  -50.2488 H         1 UNK         0.0600 
    210 H210       -6.5604  -24.7394  -50.1189 H         1 UNK         0.3000 
    211 H211       -7.2892  -23.1100  -47.8092 H         1 UNK         0.0600 
    212 H212       -8.3676  -23.2378  -50.6777 H         1 UNK         0.0600 
    213 H213       -9.0927  -22.3365  -49.3512 H         1 UNK         0.0600 
    214 H214       -9.0233  -24.0896  -49.2802 H         1 UNK         0.0600 
    215 H215       -4.9808  -22.2808  -47.8317 H         1 UNK         0.3000 
    216 H216       -3.4511  -20.6455  -48.0133 H         1 UNK         0.0600 
    217 H217       -4.1778  -18.3170  -48.4112 H         1 UNK         0.0600 
    218 H218       -5.2861  -19.1246  -47.3129 H         1 UNK         0.0600 
    219 H219       -5.7421  -18.8662  -48.9963 H         1 UNK         0.0600 
    220 H220       -2.9720  -22.3552  -49.7162 H         1 UNK         0.3000 
    221 H221       -2.0165  -23.0051  -51.5739 H         1 UNK         0.0600 
    222 H222       -1.8070  -20.1301  -52.5707 H         1 UNK         0.0600 
    223 H223       -0.7160  -20.8087  -51.3671 H         1 UNK         0.0600 
    224 H224       -0.7776  -21.4967  -52.9765 H         1 UNK         0.0600 
    225 H225       -5.0375  -21.6564  -51.6593 H         1 UNK         0.3000 
    226 H226       -6.8441  -21.8351  -52.8945 H         1 UNK         0.0600 
    227 H227       -6.4255  -24.2493  -52.5946 H         1 UNK         0.0600 
    228 H228       -7.1780  -23.9684  -54.1496 H         1 UNK         0.0600 
    229 H229       -5.4487  -24.3113  -54.0553 H         1 UNK         0.0600 
    230 H230       -5.9849  -23.2330  -55.7947 H         1 UNK         0.3000 
    231 H231       -6.7295  -21.0300  -57.3579 H         1 UNK         0.0600 
    232 H232       -6.0744  -22.5194  -59.2608 H         1 UNK         0.0600 
    233 H233       -6.9983  -23.3944  -58.0518 H         1 UNK         0.0600 
    234 H234       -5.2477  -23.5968  -58.1421 H         1 UNK         0.0600 
    235 H235       -3.5748  -21.6805  -56.0482 H         1 UNK         0.3000 
    236 H236       -2.0241  -20.2632  -58.0372 H         1 UNK         0.0600 
    237 H237       -1.0338  -21.9696  -56.5027 H         1 UNK         0.0600 
    238 H238       -0.2277  -20.4148  -56.3415 H         1 UNK         0.0600 
    239 H239       -1.3851  -20.9284  -55.1236 H         1 UNK         0.0600 
    240 H240       -3.9816  -19.2649  -55.2796 H         1 UNK         0.3000 
    241 H241       -3.0785  -16.4331  -55.6273 H         1 UNK         0.0600 
    242 H242       -7.0611  -17.3214  -55.7872 H         1 UNK         0.3800 
    243 H243       -5.9609  -18.6141  -55.3735 H         1 UNK         0.3800 
    244 H244       -3.7215  -16.0439  -53.2470 H         1 UNK         0.0800 
    245 H245       -4.0087  -17.7568  -53.0377 H         1 UNK         0.0800 
    246 H246       -1.5537  -15.4408  -51.6149 H         1 UNK         0.0800 
    247 H247       -2.5386  -16.7509  -51.0030 H         1 UNK         0.0800 
@<TRIPOS>BOND
     1    1    2 1    
     2    1  127 1    
     3    1  128 1    
     4    1  129 1    
     5    2    3 2    
     6    2    4 am   BACKBONE|DICT|INTERRES
     7    4    5 1    
     8    4  130 1    
     9    5    6 1    
    10    5   65 1    
    11    5  131 1    
    12    6    7 1    
    13    6  132 1    
    14    6  133 1    
    15    7    8 1    
    16    8    9 1    
    17    8  134 1    
    18    8  135 1    
    19    9   10 ar   
    20    9   14 ar   
    21   10   11 ar   
    22   10  136 1    
    23   11   12 ar   
    24   11  126 1    
    25   12   13 ar   
    26   12  137 1    
    27   13   14 ar   
    28   13   15 1    
    29   14  138 1    
    30   15   16 1    
    31   15  139 1    
    32   15  140 1    
    33   16   17 1    
    34   17   18 1    
    35   17  141 1    
    36   17  142 1    
    37   18   19 1    
    38   18   67 1    
    39   18  143 1    
    40   19   20 am   BACKBONE|DICT|INTERRES
    41   19  144 1    
    42   20   21 2    
    43   20   22 1    
    44   22   23 1    
    45   22   24 1    
    46   22  145 1    
    47   23  146 1    
    48   23  147 1    
    49   23  148 1    
    50   24   25 am   BACKBONE|DICT|INTERRES
    51   24  149 1    
    52   25   26 2    
    53   25   27 1    
    54   27   28 1    
    55   27   29 1    
    56   27  150 1    
    57   28  151 1    
    58   28  152 1    
    59   28  153 1    
    60   29   30 am   BACKBONE|DICT|INTERRES
    61   29  154 1    
    62   30   31 2    
    63   30   32 1    
    64   32   33 1    
    65   32   34 1    
    66   32  155 1    
    67   33  156 1    
    68   33  157 1    
    69   33  158 1    
    70   34   35 am   BACKBONE|DICT|INTERRES
    71   34  159 1    
    72   35   36 2    
    73   35   37 1    
    74   37   38 1    
    75   37   39 1    
    76   37  160 1    
    77   38  161 1    
    78   38  162 1    
    79   38  163 1    
    80   39   40 am   BACKBONE|DICT|INTERRES
    81   39  164 1    
    82   40   41 2    
    83   40   42 1    
    84   42   43 1    
    85   42   44 1    
    86   42  165 1    
    87   43  166 1    
    88   43  167 1    
    89   43  168 1    
    90   44   45 am   BACKBONE|DICT|INTERRES
    91   44  169 1    
    92   45   46 2    
    93   45   47 1    
    94   47   48 1    
    95   47   49 1    
    96   47  170 1    
    97   48  171 1    
    98   48  172 1    
    99   48  173 1    
   100   49   50 am   BACKBONE|DICT|INTERRES
   101   49  174 1    
   102   50   51 2    
   103   50   52 1    
   104   52   53 1    
   105   52   54 1    
   106   52  175 1    
   107   53  176 1    
   108   53  177 1    
   109   53  178 1    
   110   54   55 am   BACKBONE|DICT|INTERRES
   111   54  179 1    
   112   55   56 2    
   113   55   57 1    
   114   57   58 1    
   115   57   59 1    
   116   57  180 1    
   117   58  181 1    
   118   58  182 1    
   119   58  183 1    
   120   59   60 am   BACKBONE|DICT|INTERRES
   121   59  184 1    
   122   60   61 2    
   123   60   62 1    
   124   62   63 1    
   125   62   64 1    
   126   62  185 1    
   127   63  186 1    
   128   63  187 1    
   129   63  188 1    
   130   64   65 am   BACKBONE|DICT|INTERRES
   131   64  189 1    
   132   65   66 2    
   133   67   68 2    
   134   67   69 am   BACKBONE|DICT|INTERRES
   135   69   70 1    
   136   69  190 1    
   137   70   71 1    
   138   70   72 1    
   139   70  191 1    
   140   71  192 1    
   141   71  193 1    
   142   71  194 1    
   143   72   73 2    
   144   72   74 am   BACKBONE|DICT|INTERRES
   145   74   75 1    
   146   74  195 1    
   147   75   76 1    
   148   75   77 1    
   149   75  196 1    
   150   76  197 1    
   151   76  198 1    
   152   76  199 1    
   153   77   78 2    
   154   77   79 am   BACKBONE|DICT|INTERRES
   155   79   80 1    
   156   79  200 1    
   157   80   81 1    
   158   80   82 1    
   159   80  201 1    
   160   81  202 1    
   161   81  203 1    
   162   81  204 1    
   163   82   83 2    
   164   82   84 am   BACKBONE|DICT|INTERRES
   165   84   85 1    
   166   84  205 1    
   167   85   86 1    
   168   85   87 1    
   169   85  206 1    
   170   86  207 1    
   171   86  208 1    
   172   86  209 1    
   173   87   88 2    
   174   87   89 am   BACKBONE|DICT|INTERRES
   175   89   90 1    
   176   89  210 1    
   177   90   91 1    
   178   90   92 1    
   179   90  211 1    
   180   91  212 1    
   181   91  213 1    
   182   91  214 1    
   183   92   93 2    
   184   92   94 am   BACKBONE|DICT|INTERRES
   185   94   95 1    
   186   94  215 1    
   187   95   96 1    
   188   95   97 1    
   189   95  216 1    
   190   96  217 1    
   191   96  218 1    
   192   96  219 1    
   193   97   98 2    
   194   97   99 am   BACKBONE|DICT|INTERRES
   195   99  100 1    
   196   99  220 1    
   197  100  101 1    
   198  100  102 1    
   199  100  221 1    
   200  101  222 1    
   201  101  223 1    
   202  101  224 1    
   203  102  103 2    
   204  102  104 am   BACKBONE|DICT|INTERRES
   205  104  105 1    
   206  104  225 1    
   207  105  106 1    
   208  105  107 1    
   209  105  226 1    
   210  106  227 1    
   211  106  228 1    
   212  106  229 1    
   213  107  108 2    
   214  107  109 am   BACKBONE|DICT|INTERRES
   215  109  110 1    
   216  109  230 1    
   217  110  111 1    
   218  110  112 1    
   219  110  231 1    
   220  111  232 1    
   221  111  233 1    
   222  111  234 1    
   223  112  113 2    
   224  112  114 am   BACKBONE|DICT|INTERRES
   225  114  115 1    
   226  114  235 1    
   227  115  116 1    
   228  115  117 1    
   229  115  236 1    
   230  116  237 1    
   231  116  238 1    
   232  116  239 1    
   233  117  118 2    
   234  117  119 am   BACKBONE|DICT|INTERRES
   235  119  120 1    
   236  119  240 1    
   237  120  121 1    
   238  120  124 1    
   239  120  241 1    
   240  121  122 am   BACKBONE|DICT|INTERRES
   241  121  123 2    
   242  122  242 1    
   243  122  243 1    
   244  124  125 1    
   245  124  244 1    
   246  124  245 1    
   247  125  126 1    
   248  126  246 1    
   249  126  247 1    
@<TRIPOS>SUBSTRUCTURE
     1 UNK         1 GROUP             0       ****    0 ROOT    
