@<TRIPOS>MOLECULE
3R540
247   249    1
SMALL
USER_CHARGES


@<TRIPOS>ATOM
      1 CA          5.3376  -13.0727  -43.0109 C.3       0 UNK        -0.1800 
      2 C           4.4628  -13.5617  -44.1558 C.2       0 UNK         0.5000 
      3 O           4.0588  -14.7233  -44.1646 O.2       0 UNK        -0.5000 
      4 N           4.1672  -12.6834  -45.1187 N.am      1 UNK        -0.5000 
      5 CA          3.3262  -12.9669  -46.2849 C.3       1 UNK         0.1400 
      6 C6          4.0638  -13.8236  -47.3542 C.3       23 UNK        -0.0398 
      7 S7          2.9468  -14.9692  -48.2247 S.3       23 UNK        -0.2404 
      8 C8          4.1600  -15.9479  -49.1672 C.3       23 UNK        -0.0205 
      9 C9          3.5256  -17.1186  -49.9082 C.ar      23 UNK        -0.0193 
     10 C10         2.4938  -16.9003  -50.8254 C.ar      23 UNK        -0.1150 
     11 C11         1.9237  -17.9590  -51.5384 C.ar      23 UNK        -0.0193 
     12 C12         2.4275  -19.2530  -51.3439 C.ar      23 UNK        -0.1150 
     13 C13         3.4653  -19.4875  -50.4377 C.ar      23 UNK        -0.0193 
     14 C14         4.0026  -18.4183  -49.7151 C.ar      23 UNK        -0.1150 
     15 C15         4.0406  -20.8877  -50.2758 C.3       23 UNK        -0.0205 
     16 S16         3.4466  -21.7171  -48.7704 S.3       23 UNK        -0.2404 
     17 C17         1.7204  -22.0976  -49.2188 C.3       23 UNK        -0.0398 
     18 CA          1.0565  -23.0443  -48.1919 C.3       11 UNK         0.1400 
     19 N           0.9012  -22.4269  -46.8716 N.am      11 UNK        -0.5000 
     20 C           0.5287  -23.0806  -45.7622 C.2       10 UNK         0.5000 
     21 O           0.3382  -24.2968  -45.7176 O.2       10 UNK        -0.5000 
     22 CA          0.2616  -22.2211  -44.5114 C.3       10 UNK         0.1400 
     23 CB          1.5716  -21.8294  -43.8118 C.3       10 UNK        -0.1800 
     24 N          -0.5164  -21.0210  -44.8300 N.am      10 UNK        -0.5000 
     25 C          -1.7887  -21.0481  -45.2522 C.2       9 UNK         0.5000 
     26 O          -2.4541  -22.0798  -45.3270 O.2       9 UNK        -0.5000 
     27 CA         -2.4119  -19.7181  -45.7124 C.3       9 UNK         0.1400 
     28 CB         -3.0863  -18.9855  -44.5441 C.3       9 UNK        -0.1800 
     29 N          -1.4341  -18.8449  -46.3600 N.am      9 UNK        -0.5000 
     30 C          -0.9364  -19.0567  -47.5880 C.2       8 UNK         0.5000 
     31 O          -1.2865  -19.9833  -48.3165 O.2       8 UNK        -0.5000 
     32 CA          0.1766  -18.1070  -48.0620 C.3       8 UNK         0.1400 
     33 CB         -0.4348  -16.8673  -48.7314 C.3       8 UNK        -0.1800 
     34 N           1.0726  -17.7124  -46.9716 N.am      8 UNK        -0.5000 
     35 C           1.8782  -18.5727  -46.3300 C.2       7 UNK         0.5000 
     36 O           1.9449  -19.7665  -46.6134 O.2       7 UNK        -0.5000 
     37 CA          2.6872  -18.0571  -45.1229 C.3       7 UNK         0.1400 
     38 CB          4.0913  -17.6148  -45.5553 C.3       7 UNK        -0.1800 
     39 N           2.0261  -16.9861  -44.3726 N.am      7 UNK        -0.5000 
     40 C           0.8279  -17.1164  -43.7828 C.2       6 UNK         0.5000 
     41 O           0.1889  -18.1703  -43.7849 O.2       6 UNK        -0.5000 
     42 CA          0.1962  -15.8736  -43.1207 C.3       6 UNK         0.1400 
     43 CB          1.1892  -14.7397  -42.8020 C.3       6 UNK        -0.1800 
     44 N          -0.9254  -15.3373  -43.8985 N.am      6 UNK        -0.5000 
     45 C          -0.9263  -15.0050  -45.1999 C.2       5 UNK         0.5000 
     46 O           0.0250  -15.1711  -45.9621 O.2       5 UNK        -0.5000 
     47 CA         -2.2010  -14.3149  -45.7196 C.3       5 UNK         0.1400 
     48 CB         -3.3434  -15.3251  -45.9078 C.3       5 UNK        -0.1800 
     49 N          -2.6352  -13.2336  -44.8299 N.am      5 UNK        -0.5000 
     50 C          -1.9170  -12.1245  -44.6080 C.2       4 UNK         0.5000 
     51 O          -0.8650  -11.8685  -45.2004 O.2       4 UNK        -0.5000 
     52 CA         -2.4472  -11.1633  -43.5294 C.3       4 UNK         0.1400 
     53 CB         -2.2018  -11.7445  -42.1271 C.3       4 UNK        -0.1800 
     54 N          -1.7288   -9.8983  -43.6350 N.am      4 UNK        -0.5000 
     55 C          -2.2064   -8.7609  -44.1445 C.2       3 UNK         0.5000 
     56 O          -3.3947   -8.5705  -44.4071 O.2       3 UNK        -0.5000 
     57 CA         -1.1695   -7.6653  -44.4660 C.3       3 UNK         0.1400 
     58 CB         -0.6537   -6.9716  -43.1898 C.3       3 UNK        -0.1800 
     59 N          -0.0705   -8.1421  -45.3222 N.am      3 UNK        -0.5000 
     60 C           0.9051   -9.0149  -45.0311 C.2       2 UNK         0.5000 
     61 O           1.0888   -9.5065  -43.9131 O.2       2 UNK        -0.5000 
     62 CA          1.8221   -9.4169  -46.1936 C.3       2 UNK         0.1400 
     63 CB          2.9573   -8.3965  -46.3861 C.3       2 UNK        -0.1800 
     64 N           2.3837  -10.7337  -45.9116 N.am      2 UNK        -0.5000 
     65 C           2.7458  -11.6418  -46.8265 C.2       1 UNK         0.5000 
     66 O           2.6716  -11.4398  -48.0399 O.2       1 UNK        -0.5000 
     67 C          -0.2834  -23.5987  -48.7179 C.2       11 UNK         0.5000 
     68 O          -0.3088  -24.7193  -49.2253 O.2       11 UNK        -0.5000 
     69 N          -1.3806  -22.8499  -48.5275 N.am      12 UNK        -0.5000 
     70 CA         -2.7417  -23.2798  -48.8484 C.3       12 UNK         0.1400 
     71 CB         -3.7297  -22.1414  -48.5858 C.3       12 UNK        -0.1800 
     72 C          -3.1812  -24.5281  -48.0703 C.2       12 UNK         0.5000 
     73 O          -3.7552  -25.4338  -48.6703 O.2       12 UNK        -0.5000 
     74 N          -2.8827  -24.5721  -46.7648 N.am      13 UNK        -0.5000 
     75 CA         -3.1634  -25.7130  -45.8928 C.3       13 UNK         0.1400 
     76 CB         -2.8598  -25.3377  -44.4346 C.3       13 UNK        -0.1800 
     77 C          -2.3963  -26.9821  -46.3074 C.2       13 UNK         0.5000 
     78 O          -2.9666  -28.0725  -46.2658 O.2       13 UNK        -0.5000 
     79 N          -1.1373  -26.8143  -46.7362 N.am      14 UNK        -0.5000 
     80 CA         -0.3019  -27.8844  -47.2824 C.3       14 UNK         0.1400 
     81 CB          1.1560  -27.4056  -47.3597 C.3       14 UNK        -0.1800 
     82 C          -0.7954  -28.3788  -48.6570 C.2       14 UNK         0.5000 
     83 O          -0.8064  -29.5861  -48.9004 O.2       14 UNK        -0.5000 
     84 N          -1.2057  -27.4422  -49.5228 N.am      15 UNK        -0.5000 
     85 CA         -1.7274  -27.7086  -50.8658 C.3       15 UNK         0.1400 
     86 CB         -1.6673  -26.4078  -51.6835 C.3       15 UNK        -0.1800 
     87 C          -3.1632  -28.2712  -50.8823 C.2       15 UNK         0.5000 
     88 O          -3.5650  -28.8470  -51.8940 O.2       15 UNK        -0.5000 
     89 N          -3.9092  -28.0653  -49.7869 N.am      16 UNK        -0.5000 
     90 CA         -5.3525  -28.2800  -49.6308 C.3       16 UNK         0.1400 
     91 CB         -5.7247  -29.7707  -49.7738 C.3       16 UNK        -0.1800 
     92 C          -6.1616  -27.3440  -50.5559 C.2       16 UNK         0.5000 
     93 O          -7.0829  -27.7834  -51.2472 O.2       16 UNK        -0.5000 
     94 N          -5.7682  -26.0662  -50.5591 N.am      17 UNK        -0.5000 
     95 CA         -6.3154  -24.9864  -51.3752 C.3       17 UNK         0.1400 
     96 CB         -5.1823  -24.4609  -52.2765 C.3       17 UNK        -0.1800 
     97 C          -6.8678  -23.8619  -50.4790 C.2       17 UNK         0.5000 
     98 O          -6.7834  -23.9424  -49.2510 O.2       17 UNK        -0.5000 
     99 N          -7.4152  -22.8183  -51.1144 N.am      18 UNK        -0.5000 
    100 CA        -7.7944  -21.5589  -50.4705 C.3       18 UNK         0.1400 
    101 CB        -8.8019  -20.8293  -51.3725 C.3       18 UNK        -0.1800 
    102 C         -6.5573  -20.6716  -50.2402 C.2       18 UNK         0.5000 
    103 O         -5.5862  -20.7772  -50.9932 O.2       18 UNK        -0.5000 
    104 N         -6.6222  -19.7780  -49.2431 N.am      19 UNK        -0.5000 
    105 CA        -5.5362  -18.8633  -48.8585 C.3       19 UNK         0.1400 
    106 CB        -5.9571  -18.0640  -47.6165 C.3       19 UNK        -0.1800 
    107 C         -5.0738  -17.9161  -49.9837 C.2       19 UNK         0.5000 
    108 O         -3.8899  -17.5881  -50.0534 O.2       19 UNK        -0.5000 
    109 N         -6.0118  -17.5189  -50.8540 N.am      20 UNK        -0.5000 
    110 CA        -5.7497  -16.6981  -52.0367 C.3       20 UNK         0.1400 
    111 CB        -7.0618  -16.0296  -52.4755 C.3       20 UNK        -0.1800 
    112 C         -5.1394  -17.4982  -53.2050 C.2       20 UNK         0.5000 
    113 O         -4.4594  -16.9081  -54.0452 O.2       20 UNK        -0.5000 
    114 N         -5.4019  -18.8118  -53.2517 N.am      21 UNK        -0.5000 
    115 CA        -4.8817  -19.7248  -54.2702 C.3       21 UNK         0.1400 
    116 CB        -5.8596  -20.8962  -54.4522 C.3       21 UNK        -0.1800 
    117 C         -3.4744  -20.2326  -53.9123 C.2       21 UNK         0.5000 
    118 O         -2.6470  -20.3809  -54.8104 O.2       21 UNK        -0.5000 
    119 N         -3.2482  -20.4803  -52.6142 N.am      22 UNK        -0.5000 
    120 CA        -1.9801  -20.8461  -51.9575 C.3       22 UNK         0.1400 
    121 C         -1.2730  -22.1504  -52.4379 C.2       22 UNK         0.5000 
    122 N         -1.9287  -23.0172  -53.1990 N.am      22 UNK        -0.7600 
    123 O         -0.1284  -22.4070  -52.0785 O.2       22 UNK        -0.5000 
    124 C124       -1.0327  -19.6333  -51.7356 C.3       23 UNK        -0.0398 
    125 S125       -0.1161  -19.0592  -53.2066 S.3       23 UNK        -0.2404 
    126 C126        0.7956  -17.6347  -52.5211 C.3       23 UNK        -0.0205 
    127 H127        5.6219  -12.0275  -43.1345 H         1 UNK         0.0600 
    128 H128        6.2479  -13.6695  -42.9545 H         1 UNK         0.0600 
    129 H129        4.8045  -13.1716  -42.0654 H         1 UNK         0.0600 
    130 H130        4.5320  -11.7416  -45.0704 H         1 UNK         0.3000 
    131 H131        2.4634  -13.5312  -45.9227 H         1 UNK         0.0600 
    132 H132        4.5973  -13.2046  -48.0775 H         1 UNK         0.0800 
    133 H133        4.8307  -14.4365  -46.8795 H         1 UNK         0.0800 
    134 H134        4.9339  -16.3057  -48.4865 H         1 UNK         0.0800 
    135 H135        4.6576  -15.3002  -49.8901 H         1 UNK         0.0800 
    136 H136        2.1303  -15.8942  -50.9820 H         1 UNK         0.1150 
    137 H137        2.0273  -20.0878  -51.9007 H         1 UNK         0.1150 
    138 H138        4.8082  -18.6002  -49.0177 H         1 UNK         0.1150 
    139 H139        3.8121  -21.5039  -51.1469 H         1 UNK         0.0800 
    140 H140        5.1287  -20.8233  -50.2306 H         1 UNK         0.0800 
    141 H141        1.7296  -22.5567  -50.2086 H         1 UNK         0.0800 
    142 H142        1.1588  -21.1666  -49.3090 H         1 UNK         0.0800 
    143 H143        1.7160  -23.9057  -48.0645 H         1 UNK         0.0600 
    144 H144        1.1161  -21.4339  -46.8102 H         1 UNK         0.3000 
    145 H145       -0.3240  -22.8224  -43.8128 H         1 UNK         0.0600 
    146 H146        1.3825  -21.2085  -42.9358 H         1 UNK         0.0600 
    147 H147        2.1081  -22.7166  -43.4737 H         1 UNK         0.0600 
    148 H148        2.2397  -21.2809  -44.4746 H         1 UNK         0.0600 
    149 H149       -0.0457  -20.1273  -44.7592 H         1 UNK         0.3000 
    150 H150       -3.1900  -19.9509  -46.4409 H         1 UNK         0.0600 
    151 H151       -3.8090  -19.6330  -44.0460 H         1 UNK         0.0600 
    152 H152       -3.6302  -18.1095  -44.8936 H         1 UNK         0.0600 
    153 H153       -2.3676  -18.6609  -43.7923 H         1 UNK         0.0600 
    154 H154       -1.0259  -18.1169  -45.7901 H         1 UNK         0.3000 
    155 H155        0.7744  -18.6352  -48.8074 H         1 UNK         0.0600 
    156 H156       -1.0130  -17.1490  -49.6116 H         1 UNK         0.0600 
    157 H157       -1.1083  -16.3337  -48.0623 H         1 UNK         0.0600 
    158 H158        0.3337  -16.1688  -49.0579 H         1 UNK         0.0600 
    159 H159        1.0204  -16.7463  -46.6606 H         1 UNK         0.3000 
    160 H160        2.8064  -18.8989  -44.4385 H         1 UNK         0.0600 
    161 H161        4.7232  -17.4116  -44.6907 H         1 UNK         0.0600 
    162 H162        4.5843  -18.3886  -46.1454 H         1 UNK         0.0600 
    163 H163        4.0557  -16.7114  -46.1608 H         1 UNK         0.0600 
    164 H164        2.5087  -16.0933  -44.3403 H         1 UNK         0.3000 
    165 H165       -0.2171  -16.2202  -42.1725 H         1 UNK         0.0600 
    166 H166        0.7239  -13.9859  -42.1669 H         1 UNK         0.0600 
    167 H167        2.0647  -15.1126  -42.2691 H         1 UNK         0.0600 
    168 H168        1.5277  -14.2344  -43.7058 H         1 UNK         0.0600 
    169 H169       -1.7717  -15.1717  -43.3741 H         1 UNK         0.3000 
    170 H170       -1.9681  -13.8827  -46.6954 H         1 UNK         0.0600 
    171 H171       -3.0285  -16.1645  -46.5289 H         1 UNK         0.0600 
    172 H172       -3.6865  -15.7284  -44.9549 H         1 UNK         0.0600 
    173 H173       -4.1986  -14.8623  -46.4006 H         1 UNK         0.0600 
    174 H174       -3.4947  -13.3777  -44.3199 H         1 UNK         0.3000 
    175 H175       -3.5188  -11.0182  -43.6801 H         1 UNK         0.0600 
    176 H176       -1.1437  -11.9475  -41.9551 H         1 UNK         0.0600 
    177 H177       -2.5395  -11.0559  -41.3525 H         1 UNK         0.0600 
    178 H178       -2.7435  -12.6804  -41.9861 H         1 UNK         0.0600 
    179 H179       -0.7177   -9.9649  -43.5482 H         1 UNK         0.3000 
    180 H180       -1.6893   -6.9070  -45.0541 H         1 UNK         0.0600 
    181 H181       -0.1535   -7.6657  -42.5143 H         1 UNK         0.0600 
    182 H182       -1.4782   -6.5213  -42.6360 H         1 UNK         0.0600 
    183 H183        0.0490   -6.1743  -43.4318 H         1 UNK         0.0600 
    184 H184       -0.1255   -7.8176  -46.2780 H         1 UNK         0.3000 
    185 H185        1.2174   -9.4674  -47.1018 H         1 UNK         0.0600 
    186 H186        3.5852   -8.3235  -45.4972 H         1 UNK         0.0600 
    187 H187        3.5962   -8.6698  -47.2260 H         1 UNK         0.0600 
    188 H188        2.5603   -7.4017  -46.5914 H         1 UNK         0.0600 
    189 H189        2.3862  -10.9786  -44.9289 H         1 UNK         0.3000 
    190 H190       -1.2785  -21.9085  -48.1604 H         1 UNK         0.3000 
    191 H191       -2.7675  -23.5187  -49.9130 H         1 UNK         0.0600 
    192 H192       -3.8004  -21.8943  -47.5291 H         1 UNK         0.0600 
    193 H193       -4.7276  -22.4242  -48.9098 H         1 UNK         0.0600 
    194 H194       -3.4573  -21.2397  -49.1256 H         1 UNK         0.0600 
    195 H195       -2.4665  -23.7549  -46.3278 H         1 UNK         0.3000 
    196 H196       -4.2303  -25.9325  -45.9702 H         1 UNK         0.0600 
    197 H197       -3.0888  -26.1657  -43.7627 H         1 UNK         0.0600 
    198 H198       -3.4582  -24.4843  -44.1153 H         1 UNK         0.0600 
    199 H199       -1.8101  -25.0806  -44.2933 H         1 UNK         0.0600 
    200 H200       -0.7315  -25.8858  -46.7003 H         1 UNK         0.3000 
    201 H201       -0.3416  -28.7293  -46.5917 H         1 UNK         0.0600 
    202 H202        1.5251  -27.1079  -46.3780 H         1 UNK         0.0600 
    203 H203        1.2679  -26.5531  -48.0297 H         1 UNK         0.0600 
    204 H204        1.8080  -28.1992  -47.7267 H         1 UNK         0.0600 
    205 H205       -1.0941  -26.4635  -49.2701 H         1 UNK         0.3000 
    206 H206       -1.0799  -28.4446  -51.3468 H         1 UNK         0.0600 
    207 H207       -0.6480  -26.0263  -51.7465 H         1 UNK         0.0600 
    208 H208       -2.0189  -26.5670  -52.7036 H         1 UNK         0.0600 
    209 H209       -2.2881  -25.6279  -51.2410 H         1 UNK         0.0600 
    210 H210       -3.4845  -27.5083  -49.0551 H         1 UNK         0.3000 
    211 H211       -5.5920  -27.9803  -48.6095 H         1 UNK         0.0600 
    212 H212       -5.5812  -30.1341  -50.7914 H         1 UNK         0.0600 
    213 H213       -6.7716  -29.9343  -49.5160 H         1 UNK         0.0600 
    214 H214       -5.1253  -30.3911  -49.1076 H         1 UNK         0.0600 
    215 H215       -5.0494  -25.7877  -49.8928 H         1 UNK         0.3000 
    216 H216       -7.1317  -25.3530  -52.0006 H         1 UNK         0.0600 
    217 H217       -5.5545  -23.7422  -53.0056 H         1 UNK         0.0600 
    218 H218       -4.7160  -25.2716  -52.8370 H         1 UNK         0.0600 
    219 H219       -4.4026  -23.9676  -51.6949 H         1 UNK         0.0600 
    220 H220       -7.4298  -22.8191  -52.1231 H         1 UNK         0.3000 
    221 H221       -8.2659  -21.7708  -49.5086 H         1 UNK         0.0600 
    222 H222       -8.3714  -20.5828  -52.3442 H         1 UNK         0.0600 
    223 H223       -9.6887  -21.4395  -51.5451 H         1 UNK         0.0600 
    224 H224       -9.1361  -19.8970  -50.9156 H         1 UNK         0.0600 
    225 H225       -7.4590  -19.7372  -48.6790 H         1 UNK         0.3000 
    226 H226       -4.6737  -19.4660  -48.5781 H         1 UNK         0.0600 
    227 H227       -6.1752  -18.7246  -46.7772 H         1 UNK         0.0600 
    228 H228       -5.1604  -17.3910  -47.2972 H         1 UNK         0.0600 
    229 H229       -6.8429  -17.4574  -47.8084 H         1 UNK         0.0600 
    230 H230       -6.9626  -17.8255  -50.7113 H         1 UNK         0.3000 
    231 H231       -5.0408  -15.9117  -51.7682 H         1 UNK         0.0600 
    232 H232       -6.9016  -15.3854  -53.3412 H         1 UNK         0.0600 
    233 H233       -7.4724  -15.4067  -51.6806 H         1 UNK         0.0600 
    234 H234       -7.8176  -16.7665  -52.7503 H         1 UNK         0.0600 
    235 H235       -5.9026  -19.2349  -52.4828 H         1 UNK         0.3000 
    236 H236       -4.8138  -19.1973  -55.2243 H         1 UNK         0.0600 
    237 H237       -6.8389  -20.5433  -54.7758 H         1 UNK         0.0600 
    238 H238       -5.4981  -21.5928  -55.2096 H         1 UNK         0.0600 
    239 H239       -5.9958  -21.4566  -53.5285 H         1 UNK         0.0600 
    240 H240       -4.0455  -20.4145  -51.9867 H         1 UNK         0.3000 
    241 H241       -2.3010  -21.1250  -50.9582 H         1 UNK         0.0600 
    242 H242       -2.8528  -22.8035  -53.5345 H         1 UNK         0.3800 
    243 H243       -1.4624  -23.8578  -53.4976 H         1 UNK         0.3800 
    244 H244       -1.6082  -18.7953  -51.3402 H         1 UNK         0.0800 
    245 H245       -0.3102  -19.8803  -50.9573 H         1 UNK         0.0800 
    246 H246        1.2241  -17.0783  -53.3556 H         1 UNK         0.0800 
    247 H247        0.0792  -16.9655  -52.0420 H         1 UNK         0.0800 
@<TRIPOS>BOND
     1    1    2 1    
     2    1  127 1    
     3    1  128 1    
     4    1  129 1    
     5    2    3 2    
     6    2    4 am   BACKBONE|DICT|INTERRES
     7    4    5 1    
     8    4  130 1    
     9    5    6 1    
    10    5   65 1    
    11    5  131 1    
    12    6    7 1    
    13    6  132 1    
    14    6  133 1    
    15    7    8 1    
    16    8    9 1    
    17    8  134 1    
    18    8  135 1    
    19    9   10 ar   
    20    9   14 ar   
    21   10   11 ar   
    22   10  136 1    
    23   11   12 ar   
    24   11  126 1    
    25   12   13 ar   
    26   12  137 1    
    27   13   14 ar   
    28   13   15 1    
    29   14  138 1    
    30   15   16 1    
    31   15  139 1    
    32   15  140 1    
    33   16   17 1    
    34   17   18 1    
    35   17  141 1    
    36   17  142 1    
    37   18   19 1    
    38   18   67 1    
    39   18  143 1    
    40   19   20 am   BACKBONE|DICT|INTERRES
    41   19  144 1    
    42   20   21 2    
    43   20   22 1    
    44   22   23 1    
    45   22   24 1    
    46   22  145 1    
    47   23  146 1    
    48   23  147 1    
    49   23  148 1    
    50   24   25 am   BACKBONE|DICT|INTERRES
    51   24  149 1    
    52   25   26 2    
    53   25   27 1    
    54   27   28 1    
    55   27   29 1    
    56   27  150 1    
    57   28  151 1    
    58   28  152 1    
    59   28  153 1    
    60   29   30 am   BACKBONE|DICT|INTERRES
    61   29  154 1    
    62   30   31 2    
    63   30   32 1    
    64   32   33 1    
    65   32   34 1    
    66   32  155 1    
    67   33  156 1    
    68   33  157 1    
    69   33  158 1    
    70   34   35 am   BACKBONE|DICT|INTERRES
    71   34  159 1    
    72   35   36 2    
    73   35   37 1    
    74   37   38 1    
    75   37   39 1    
    76   37  160 1    
    77   38  161 1    
    78   38  162 1    
    79   38  163 1    
    80   39   40 am   BACKBONE|DICT|INTERRES
    81   39  164 1    
    82   40   41 2    
    83   40   42 1    
    84   42   43 1    
    85   42   44 1    
    86   42  165 1    
    87   43  166 1    
    88   43  167 1    
    89   43  168 1    
    90   44   45 am   BACKBONE|DICT|INTERRES
    91   44  169 1    
    92   45   46 2    
    93   45   47 1    
    94   47   48 1    
    95   47   49 1    
    96   47  170 1    
    97   48  171 1    
    98   48  172 1    
    99   48  173 1    
   100   49   50 am   BACKBONE|DICT|INTERRES
   101   49  174 1    
   102   50   51 2    
   103   50   52 1    
   104   52   53 1    
   105   52   54 1    
   106   52  175 1    
   107   53  176 1    
   108   53  177 1    
   109   53  178 1    
   110   54   55 am   BACKBONE|DICT|INTERRES
   111   54  179 1    
   112   55   56 2    
   113   55   57 1    
   114   57   58 1    
   115   57   59 1    
   116   57  180 1    
   117   58  181 1    
   118   58  182 1    
   119   58  183 1    
   120   59   60 am   BACKBONE|DICT|INTERRES
   121   59  184 1    
   122   60   61 2    
   123   60   62 1    
   124   62   63 1    
   125   62   64 1    
   126   62  185 1    
   127   63  186 1    
   128   63  187 1    
   129   63  188 1    
   130   64   65 am   BACKBONE|DICT|INTERRES
   131   64  189 1    
   132   65   66 2    
   133   67   68 2    
   134   67   69 am   BACKBONE|DICT|INTERRES
   135   69   70 1    
   136   69  190 1    
   137   70   71 1    
   138   70   72 1    
   139   70  191 1    
   140   71  192 1    
   141   71  193 1    
   142   71  194 1    
   143   72   73 2    
   144   72   74 am   BACKBONE|DICT|INTERRES
   145   74   75 1    
   146   74  195 1    
   147   75   76 1    
   148   75   77 1    
   149   75  196 1    
   150   76  197 1    
   151   76  198 1    
   152   76  199 1    
   153   77   78 2    
   154   77   79 am   BACKBONE|DICT|INTERRES
   155   79   80 1    
   156   79  200 1    
   157   80   81 1    
   158   80   82 1    
   159   80  201 1    
   160   81  202 1    
   161   81  203 1    
   162   81  204 1    
   163   82   83 2    
   164   82   84 am   BACKBONE|DICT|INTERRES
   165   84   85 1    
   166   84  205 1    
   167   85   86 1    
   168   85   87 1    
   169   85  206 1    
   170   86  207 1    
   171   86  208 1    
   172   86  209 1    
   173   87   88 2    
   174   87   89 am   BACKBONE|DICT|INTERRES
   175   89   90 1    
   176   89  210 1    
   177   90   91 1    
   178   90   92 1    
   179   90  211 1    
   180   91  212 1    
   181   91  213 1    
   182   91  214 1    
   183   92   93 2    
   184   92   94 am   BACKBONE|DICT|INTERRES
   185   94   95 1    
   186   94  215 1    
   187   95   96 1    
   188   95   97 1    
   189   95  216 1    
   190   96  217 1    
   191   96  218 1    
   192   96  219 1    
   193   97   98 2    
   194   97   99 am   BACKBONE|DICT|INTERRES
   195   99  100 1    
   196   99  220 1    
   197  100  101 1    
   198  100  102 1    
   199  100  221 1    
   200  101  222 1    
   201  101  223 1    
   202  101  224 1    
   203  102  103 2    
   204  102  104 am   BACKBONE|DICT|INTERRES
   205  104  105 1    
   206  104  225 1    
   207  105  106 1    
   208  105  107 1    
   209  105  226 1    
   210  106  227 1    
   211  106  228 1    
   212  106  229 1    
   213  107  108 2    
   214  107  109 am   BACKBONE|DICT|INTERRES
   215  109  110 1    
   216  109  230 1    
   217  110  111 1    
   218  110  112 1    
   219  110  231 1    
   220  111  232 1    
   221  111  233 1    
   222  111  234 1    
   223  112  113 2    
   224  112  114 am   BACKBONE|DICT|INTERRES
   225  114  115 1    
   226  114  235 1    
   227  115  116 1    
   228  115  117 1    
   229  115  236 1    
   230  116  237 1    
   231  116  238 1    
   232  116  239 1    
   233  117  118 2    
   234  117  119 am   BACKBONE|DICT|INTERRES
   235  119  120 1    
   236  119  240 1    
   237  120  121 1    
   238  120  124 1    
   239  120  241 1    
   240  121  122 am   BACKBONE|DICT|INTERRES
   241  121  123 2    
   242  122  242 1    
   243  122  243 1    
   244  124  125 1    
   245  124  244 1    
   246  124  245 1    
   247  125  126 1    
   248  126  246 1    
   249  126  247 1    
@<TRIPOS>SUBSTRUCTURE
     1 UNK         1 GROUP             0       ****    0 ROOT    
