@<TRIPOS>MOLECULE
3R540
247   249    1
SMALL
USER_CHARGES


@<TRIPOS>ATOM
      1 CA         -2.5818  -17.8306  -49.3780 C.3       0 UNK        -0.1800 
      2 C          -2.1907  -16.4419  -48.8911 C.2       0 UNK         0.5000 
      3 O          -1.8060  -16.2731  -47.7340 O.2       0 UNK        -0.5000 
      4 N          -2.3149  -15.4380  -49.7689 N.am      1 UNK        -0.5000 
      5 CA         -1.9495  -14.0244  -49.5779 C.3       1 UNK         0.1400 
      6 C6         -0.4186  -13.8060  -49.4210 C.3       23 UNK        -0.0398 
      7 S7          0.5337  -14.5041  -50.8167 S.3       23 UNK        -0.2404 
      8 C8          1.4114  -15.8909  -50.0244 C.3       23 UNK        -0.0205 
      9 C9          1.4458  -17.1217  -50.9170 C.ar      23 UNK        -0.0193 
     10 C10         2.1351  -17.0992  -52.1336 C.ar      23 UNK        -0.1150 
     11 C11         2.1602  -18.2265  -52.9607 C.ar      23 UNK        -0.0193 
     12 C12         1.4839  -19.3827  -52.5554 C.ar      23 UNK        -0.1150 
     13 C13         0.7994  -19.4210  -51.3387 C.ar      23 UNK        -0.0193 
     14 C14         0.7890  -18.2896  -50.5209 C.ar      23 UNK        -0.1150 
     15 C15         0.0651  -20.6841  -50.9227 C.3       23 UNK        -0.0205 
     16 S16         1.2188  -21.9577  -50.3261 S.3       23 UNK        -0.2404 
     17 C17         1.4381  -21.4439  -48.5886 C.3       23 UNK        -0.0398 
     18 CA          0.6631  -22.3518  -47.6050 C.3       11 UNK         0.1400 
     19 N           1.1079  -22.1772  -46.2239 N.am      11 UNK        -0.5000 
     20 C           0.7497  -22.9635  -45.1988 C.2       10 UNK         0.5000 
     21 O           0.0741  -23.9855  -45.3231 O.2       10 UNK        -0.5000 
     22 CA          1.1564  -22.4814  -43.7929 C.3       10 UNK         0.1400 
     23 CB          2.6130  -22.8511  -43.4780 C.3       10 UNK        -0.1800 
     24 N           0.9601  -21.0371  -43.6385 N.am      10 UNK        -0.5000 
     25 C          -0.2414  -20.4430  -43.6865 C.2       9 UNK         0.5000 
     26 O          -1.3016  -21.0628  -43.7579 O.2       9 UNK        -0.5000 
     27 CA         -0.2685  -18.9066  -43.7029 C.3       9 UNK         0.1400 
     28 CB         -0.3381  -18.3555  -42.2771 C.3       9 UNK        -0.1800 
     29 N           0.8774  -18.3300  -44.4080 N.am      9 UNK        -0.5000 
     30 C           1.0243  -18.3667  -45.7409 C.2       8 UNK         0.5000 
     31 O           0.2070  -18.8815  -46.5023 O.2       8 UNK        -0.5000 
     32 CA          2.3313  -17.7912  -46.3165 C.3       8 UNK         0.1400 
     33 CB          2.2907  -16.2579  -46.3646 C.3       8 UNK        -0.1800 
     34 N           3.5067  -18.2136  -45.5587 N.am      8 UNK        -0.5000 
     35 C           3.9110  -19.4832  -45.4218 C.2       7 UNK         0.5000 
     36 O           3.3740  -20.4338  -45.9883 O.2       7 UNK        -0.5000 
     37 CA          5.0829  -19.7410  -44.4567 C.3       7 UNK         0.1400 
     38 CB          6.4099  -19.7936  -45.2277 C.3       7 UNK        -0.1800 
     39 N           5.1909  -18.7527  -43.3795 N.am      7 UNK        -0.5000 
     40 C           4.2618  -18.5173  -42.4418 C.2       6 UNK         0.5000 
     41 O           3.1858  -19.1198  -42.3884 O.2       6 UNK        -0.5000 
     42 CA          4.6221  -17.4469  -41.3883 C.3       6 UNK         0.1400 
     43 CB          5.3211  -16.2127  -42.0032 C.3       6 UNK        -0.1800 
     44 N           3.4881  -17.0320  -40.5552 N.am      6 UNK        -0.5000 
     45 C           2.3890  -16.3681  -40.9383 C.2       5 UNK         0.5000 
     46 O           2.1478  -16.0214  -42.0989 O.2       5 UNK        -0.5000 
     47 CA          1.4044  -16.0173  -39.8108 C.3       5 UNK         0.1400 
     48 CB          2.0004  -14.9686  -38.8522 C.3       5 UNK        -0.1800 
     49 N           0.1617  -15.5036  -40.3781 N.am      5 UNK        -0.5000 
     50 C          -1.0442  -15.5785  -39.8005 C.2       4 UNK         0.5000 
     51 O          -1.2322  -16.0930  -38.6971 O.2       4 UNK        -0.5000 
     52 CA         -2.2461  -14.9821  -40.5612 C.3       4 UNK         0.1400 
     53 CB         -2.8870  -13.8421  -39.7511 C.3       4 UNK        -0.1800 
     54 N          -1.8750  -14.4599  -41.8793 N.am      4 UNK        -0.5000 
     55 C          -2.2769  -14.9671  -43.0503 C.2       3 UNK         0.5000 
     56 O          -3.0029  -15.9572  -43.1666 O.2       3 UNK        -0.5000 
     57 CA         -1.7316  -14.2613  -44.3030 C.3       3 UNK         0.1400 
     58 CB         -0.4352  -14.9296  -44.7720 C.3       3 UNK        -0.1800 
     59 N          -2.6843  -14.2686  -45.4096 N.am      3 UNK        -0.5000 
     60 C          -3.7780  -13.4965  -45.4799 C.2       2 UNK         0.5000 
     61 O          -4.1184  -12.7232  -44.5822 O.2       2 UNK        -0.5000 
     62 CA         -4.6134  -13.5874  -46.7799 C.3       2 UNK         0.1400 
     63 CB         -5.4363  -12.3117  -47.0556 C.3       2 UNK        -0.1800 
     64 N          -3.8148  -13.9538  -47.9567 N.am      2 UNK        -0.5000 
     65 C          -2.7476  -13.3096  -48.4584 C.2       1 UNK         0.5000 
     66 O          -2.3760  -12.2031  -48.0641 O.2       1 UNK        -0.5000 
     67 C          -0.8657  -22.1850  -47.7306 C.2       11 UNK         0.5000 
     68 O          -1.5009  -23.0275  -48.3589 O.2       11 UNK        -0.5000 
     69 N          -1.4402  -21.1482  -47.1006 N.am      12 UNK        -0.5000 
     70 CA         -2.8865  -20.9050  -47.0576 C.3       12 UNK         0.1400 
     71 CB         -3.1835  -19.5923  -46.3150 C.3       12 UNK        -0.1800 
     72 C          -3.6728  -22.0648  -46.4184 C.2       12 UNK         0.5000 
     73 O          -4.7325  -22.4288  -46.9244 O.2       12 UNK        -0.5000 
     74 N          -3.1331  -22.6503  -45.3414 N.am      13 UNK        -0.5000 
     75 CA         -3.6902  -23.8323  -44.6843 C.3       13 UNK         0.1400 
     76 CB         -2.9480  -24.0886  -43.3642 C.3       13 UNK        -0.1800 
     77 C          -3.6625  -25.0796  -45.5885 C.2       13 UNK         0.5000 
     78 O          -4.6525  -25.8099  -45.6410 O.2       13 UNK        -0.5000 
     79 N          -2.5476  -25.2836  -46.3040 N.am      14 UNK        -0.5000 
     80 CA         -2.3607  -26.3816  -47.2544 C.3       14 UNK         0.1400 
     81 CB         -0.8721  -26.4886  -47.6205 C.3       14 UNK        -0.1800 
     82 C          -3.2274  -26.2374  -48.5211 C.2       14 UNK         0.5000 
     83 O          -3.8086  -27.2227  -48.9771 O.2       14 UNK        -0.5000 
     84 N          -3.3048  -25.0138  -49.0595 N.am      15 UNK        -0.5000 
     85 CA         -4.0614  -24.6604  -50.2628 C.3       15 UNK         0.1400 
     86 CB         -3.5115  -23.3370  -50.8214 C.3       15 UNK        -0.1800 
     87 C          -5.5824  -24.5538  -50.0359 C.2       15 UNK         0.5000 
     88 O          -6.3242  -24.5019  -51.0176 O.2       15 UNK        -0.5000 
     89 N          -6.0122  -24.5174  -48.7652 N.am      16 UNK        -0.5000 
     90 CA         -7.3803  -24.2932  -48.2895 C.3       16 UNK         0.1400 
     91 CB         -8.3308  -25.4215  -48.7430 C.3       16 UNK        -0.1800 
     92 C          -7.8686  -22.8812  -48.6686 C.2       16 UNK         0.5000 
     93 O          -8.8261  -22.7276  -49.4293 O.2       16 UNK        -0.5000 
     94 N          -7.1572  -21.8828  -48.1305 N.am      17 UNK        -0.5000 
     95 CA         -7.2471  -20.4506  -48.4051 C.3       17 UNK         0.1400 
     96 CB         -8.6588  -19.8874  -48.1177 C.3       17 UNK        -0.1800 
     97 C          -6.6822  -20.1385  -49.8032 C.2       17 UNK         0.5000 
     98 O          -5.5160  -20.4523  -50.0475 O.2       17 UNK        -0.5000 
     99 N          -7.4979  -19.5176  -50.6681 N.am      18 UNK        -0.5000 
    100 CA        -7.1681  -18.9842  -51.9960 C.3       18 UNK         0.1400 
    101 CB        -6.6045  -20.0852  -52.9217 C.3       18 UNK        -0.1800 
    102 C         -6.2385  -17.7530  -51.9345 C.2       18 UNK         0.5000 
    103 O         -5.7583  -17.3717  -50.8639 O.2       18 UNK        -0.5000 
    104 N         -6.0264  -17.1218  -53.0962 N.am      19 UNK        -0.5000 
    105 CA        -5.1362  -15.9694  -53.2446 C.3       19 UNK         0.1400 
    106 CB        -5.4352  -15.2587  -54.5736 C.3       19 UNK        -0.1800 
    107 C         -3.6530  -16.3703  -53.1641 C.2       19 UNK         0.5000 
    108 O         -2.8692  -15.6675  -52.5288 O.2       19 UNK        -0.5000 
    109 N         -3.3097  -17.4994  -53.7917 N.am      20 UNK        -0.5000 
    110 CA        -1.9759  -18.0801  -53.9017 C.3       20 UNK         0.1400 
    111 CB        -1.0589  -17.1625  -54.7343 C.3       20 UNK        -0.1800 
    112 C         -2.1158  -19.4602  -54.5662 C.2       20 UNK         0.5000 
    113 O         -3.1872  -19.7750  -55.0939 O.2       20 UNK        -0.5000 
    114 N         -1.0376  -20.2529  -54.5434 N.am      21 UNK        -0.5000 
    115 CA        -0.9886  -21.5976  -55.1277 C.3       21 UNK         0.1400 
    116 CB        -1.4671  -22.6399  -54.0969 C.3       21 UNK        -0.1800 
    117 C          0.3979  -21.9367  -55.7122 C.2       21 UNK         0.5000 
    118 O          0.7343  -23.1170  -55.8198 O.2       21 UNK        -0.5000 
    119 N          1.1811  -20.9145  -56.0897 N.am      22 UNK        -0.5000 
    120 CA         2.5004  -21.0863  -56.7351 C.3       22 UNK         0.1400 
    121 C          2.4295  -21.4007  -58.2603 C.2       22 UNK         0.5000 
    122 N          1.2726  -21.3289  -58.9079 N.am      22 UNK        -0.7600 
    123 O          3.4453  -21.7270  -58.8685 O.2       22 UNK        -0.5000 
    124 C124        3.4588  -19.8954  -56.4656 C.3       23 UNK        -0.0398 
    125 S125        3.8268  -19.6716  -54.6911 S.3       23 UNK        -0.2404 
    126 C126        2.8758  -18.1635  -54.3063 C.3       23 UNK        -0.0205 
    127 H127       -3.5964  -18.0690  -49.0586 H         1 UNK         0.0600 
    128 H128       -1.9117  -18.5835  -48.9656 H         1 UNK         0.0600 
    129 H129       -2.5418  -17.8996  -50.4653 H         1 UNK         0.0600 
    130 H130       -2.6068  -15.6514  -50.7212 H         1 UNK         0.3000 
    131 H131       -2.2523  -13.5270  -50.5005 H         1 UNK         0.0600 
    132 H132       -0.0657  -14.2136  -48.4728 H         1 UNK         0.0800 
    133 H133       -0.1892  -12.7397  -49.3881 H         1 UNK         0.0800 
    134 H134        0.9263  -16.1434  -49.0825 H         1 UNK         0.0800 
    135 H135        2.4289  -15.5845  -49.7788 H         1 UNK         0.0800 
    136 H136        2.6399  -16.1938  -52.4402 H         1 UNK         0.1150 
    137 H137        1.5038  -20.2659  -53.1775 H         1 UNK         0.1150 
    138 H138        0.2720  -18.3176  -49.5731 H         1 UNK         0.1150 
    139 H139       -0.6853  -20.4679  -50.1611 H         1 UNK         0.0800 
    140 H140       -0.4870  -21.0762  -51.7749 H         1 UNK         0.0800 
    141 H141        1.1683  -20.3955  -48.4603 H         1 UNK         0.0800 
    142 H142        2.5063  -21.5018  -48.3756 H         1 UNK         0.0800 
    143 H143        0.8928  -23.3870  -47.8673 H         1 UNK         0.0600 
    144 H144        1.7227  -21.3886  -46.0435 H         1 UNK         0.3000 
    145 H145        0.5148  -22.9853  -43.0669 H         1 UNK         0.0600 
    146 H146        2.9140  -22.4801  -42.4981 H         1 UNK         0.0600 
    147 H147        2.7425  -23.9340  -43.4712 H         1 UNK         0.0600 
    148 H148        3.3030  -22.4480  -44.2180 H         1 UNK         0.0600 
    149 H149        1.7844  -20.4589  -43.5319 H         1 UNK         0.3000 
    150 H150       -1.1762  -18.5925  -44.2218 H         1 UNK         0.0600 
    151 H151       -1.2133  -18.7373  -41.7501 H         1 UNK         0.0600 
    152 H152       -0.4206  -17.2715  -42.2992 H         1 UNK         0.0600 
    153 H153        0.5433  -18.6232  -41.6942 H         1 UNK         0.0600 
    154 H154        1.6101  -17.9309  -43.8355 H         1 UNK         0.3000 
    155 H155        2.4332  -18.1626  -47.3386 H         1 UNK         0.0600 
    156 H156        2.3113  -15.8233  -45.3645 H         1 UNK         0.0600 
    157 H157        1.3845  -15.9062  -46.8565 H         1 UNK         0.0600 
    158 H158        3.1389  -15.8588  -46.9208 H         1 UNK         0.0600 
    159 H159        4.0040  -17.4971  -45.0514 H         1 UNK         0.3000 
    160 H160        4.9193  -20.7153  -43.9935 H         1 UNK         0.0600 
    161 H161        6.6455  -18.8343  -45.6902 H         1 UNK         0.0600 
    162 H162        6.3704  -20.5402  -46.0223 H         1 UNK         0.0600 
    163 H163        7.2377  -20.0638  -44.5719 H         1 UNK         0.0600 
    164 H164        6.0500  -18.2232  -43.3479 H         1 UNK         0.3000 
    165 H165        5.3298  -17.9222  -40.7076 H         1 UNK         0.0600 
    166 H166        5.4942  -15.4442  -41.2496 H         1 UNK         0.0600 
    167 H167        6.2955  -16.4687  -42.4197 H         1 UNK         0.0600 
    168 H168        4.7288  -15.7655  -42.8024 H         1 UNK         0.0600 
    169 H169        3.5608  -17.2980  -39.5834 H         1 UNK         0.3000 
    170 H170        1.1959  -16.9374  -39.2608 H         1 UNK         0.0600 
    171 H171        2.9224  -15.3262  -38.3928 H         1 UNK         0.0600 
    172 H172        2.2313  -14.0383  -39.3725 H         1 UNK         0.0600 
    173 H173        1.3095  -14.7348  -38.0421 H         1 UNK         0.0600 
    174 H174        0.2519  -15.1455  -41.3193 H         1 UNK         0.3000 
    175 H175       -2.9827  -15.7821  -40.6596 H         1 UNK         0.0600 
    176 H176       -2.1873  -13.0216  -39.5872 H         1 UNK         0.0600 
    177 H177       -3.7615  -13.4400  -40.2631 H         1 UNK         0.0600 
    178 H178       -3.2189  -14.1918  -38.7727 H         1 UNK         0.0600 
    179 H179       -1.2845  -13.6399  -41.8781 H         1 UNK         0.3000 
    180 H180       -1.5092  -13.2219  -44.0514 H         1 UNK         0.0600 
    181 H181       -0.6170  -15.9513  -45.1059 H         1 UNK         0.0600 
    182 H182        0.3059  -14.9687  -43.9728 H         1 UNK         0.0600 
    183 H183        0.0068  -14.3780  -45.6016 H         1 UNK         0.0600 
    184 H184       -2.4832  -14.9060  -46.1720 H         1 UNK         0.3000 
    185 H185       -5.3178  -14.4058  -46.6251 H         1 UNK         0.0600 
    186 H186       -6.1410  -12.1176  -46.2462 H         1 UNK         0.0600 
    187 H187       -4.7999  -11.4316  -47.1520 H         1 UNK         0.0600 
    188 H188       -6.0173  -12.4079  -47.9728 H         1 UNK         0.0600 
    189 H189       -4.0223  -14.8577  -48.3578 H         1 UNK         0.3000 
    190 H190       -0.8470  -20.4518  -46.6572 H         1 UNK         0.3000 
    191 H191       -3.2265  -20.7977  -48.0900 H         1 UNK         0.0600 
    192 H192       -3.0350  -19.6913  -45.2404 H         1 UNK         0.0600 
    193 H193       -4.2193  -19.2891  -46.4704 H         1 UNK         0.0600 
    194 H194       -2.5502  -18.7766  -46.6602 H         1 UNK         0.0600 
    195 H195       -2.2945  -22.2467  -44.9336 H         1 UNK         0.3000 
    196 H196       -4.7345  -23.6189  -44.4465 H         1 UNK         0.0600 
    197 H197       -3.3707  -24.9460  -42.8391 H         1 UNK         0.0600 
    198 H198       -3.0225  -23.2290  -42.6978 H         1 UNK         0.0600 
    199 H199       -1.8898  -24.2926  -43.5271 H         1 UNK         0.0600 
    200 H200       -1.7688  -24.6452  -46.1848 H         1 UNK         0.3000 
    201 H201       -2.6518  -27.3096  -46.7577 H         1 UNK         0.0600 
    202 H202       -0.2599  -26.6572  -46.7344 H         1 UNK         0.0600 
    203 H203       -0.5098  -25.5832  -48.1081 H         1 UNK         0.0600 
    204 H204       -0.6964  -27.3217  -48.3021 H         1 UNK         0.0600 
    205 H205       -2.7390  -24.2680  -48.6550 H         1 UNK         0.3000 
    206 H206       -3.8983  -25.4378  -51.0119 H         1 UNK         0.0600 
    207 H207       -2.4504  -23.4171  -51.0589 H         1 UNK         0.0600 
    208 H208       -4.0300  -23.0483  -51.7364 H         1 UNK         0.0600 
    209 H209       -3.6336  -22.5219  -50.1068 H         1 UNK         0.0600 
    210 H210       -5.3012  -24.5206  -48.0459 H         1 UNK         0.3000 
    211 H211       -7.3336  -24.3275  -47.1998 H         1 UNK         0.0600 
    212 H212       -8.4713  -25.4345  -49.8239 H         1 UNK         0.0600 
    213 H213       -9.3156  -25.3005  -48.2906 H         1 UNK         0.0600 
    214 H214       -7.9523  -26.3984  -48.4424 H         1 UNK         0.0600 
    215 H215       -6.3262  -22.1463  -47.6002 H         1 UNK         0.3000 
    216 H216       -6.5650  -19.9736  -47.6998 H         1 UNK         0.0600 
    217 H217       -8.6676  -18.7996  -48.1975 H         1 UNK         0.0600 
    218 H218       -8.9752  -20.1343  -47.1042 H         1 UNK         0.0600 
    219 H219       -9.4144  -20.2748  -48.8012 H         1 UNK         0.0600 
    220 H220       -8.4302  -19.3041  -50.3442 H         1 UNK         0.3000 
    221 H221       -8.1141  -18.6433  -52.4191 H         1 UNK         0.0600 
    222 H222       -5.5859  -20.3662  -52.6517 H         1 UNK         0.0600 
    223 H223       -7.2195  -20.9846  -52.8861 H         1 UNK         0.0600 
    224 H224       -6.5801  -19.7540  -53.9601 H         1 UNK         0.0600 
    225 H225       -6.4698  -17.4658  -53.9355 H         1 UNK         0.3000 
    226 H226       -5.3371  -15.2656  -52.4336 H         1 UNK         0.0600 
    227 H227       -6.4669  -14.9082  -54.6096 H         1 UNK         0.0600 
    228 H228       -4.7922  -14.3868  -54.7018 H         1 UNK         0.0600 
    229 H229       -5.2728  -15.9146  -55.4297 H         1 UNK         0.0600 
    230 H230       -4.0197  -18.0462  -54.2638 H         1 UNK         0.3000 
    231 H231       -1.5609  -18.2142  -52.9009 H         1 UNK         0.0600 
    232 H232       -0.8540  -16.2255  -54.2165 H         1 UNK         0.0600 
    233 H233       -1.5030  -16.9228  -55.7011 H         1 UNK         0.0600 
    234 H234       -0.0971  -17.6328  -54.9256 H         1 UNK         0.0600 
    235 H235       -0.1978  -19.9335  -54.0820 H         1 UNK         0.3000 
    236 H236       -1.6717  -21.6355  -55.9787 H         1 UNK         0.0600 
    237 H237       -1.6019  -23.6161  -54.5641 H         1 UNK         0.0600 
    238 H238       -0.7486  -22.7667  -53.2874 H         1 UNK         0.0600 
    239 H239       -2.4253  -22.3595  -53.6598 H         1 UNK         0.0600 
    240 H240        0.8282  -19.9721  -56.0303 H         1 UNK         0.3000 
    241 H241        2.9720  -21.9649  -56.2902 H         1 UNK         0.0600 
    242 H242        1.2433  -21.5409  -59.8932 H         1 UNK         0.3800 
    243 H243        0.4269  -21.0662  -58.4286 H         1 UNK         0.3800 
    244 H244        4.4170  -20.0628  -56.9607 H         1 UNK         0.0800 
    245 H245        3.0629  -18.9751  -56.8969 H         1 UNK         0.0800 
    246 H246        2.1310  -17.9801  -55.0784 H         1 UNK         0.0800 
    247 H247        3.5605  -17.3146  -54.3365 H         1 UNK         0.0800 
@<TRIPOS>BOND
     1    1    2 1    
     2    1  127 1    
     3    1  128 1    
     4    1  129 1    
     5    2    3 2    
     6    2    4 am   BACKBONE|DICT|INTERRES
     7    4    5 1    
     8    4  130 1    
     9    5    6 1    
    10    5   65 1    
    11    5  131 1    
    12    6    7 1    
    13    6  132 1    
    14    6  133 1    
    15    7    8 1    
    16    8    9 1    
    17    8  134 1    
    18    8  135 1    
    19    9   10 ar   
    20    9   14 ar   
    21   10   11 ar   
    22   10  136 1    
    23   11   12 ar   
    24   11  126 1    
    25   12   13 ar   
    26   12  137 1    
    27   13   14 ar   
    28   13   15 1    
    29   14  138 1    
    30   15   16 1    
    31   15  139 1    
    32   15  140 1    
    33   16   17 1    
    34   17   18 1    
    35   17  141 1    
    36   17  142 1    
    37   18   19 1    
    38   18   67 1    
    39   18  143 1    
    40   19   20 am   BACKBONE|DICT|INTERRES
    41   19  144 1    
    42   20   21 2    
    43   20   22 1    
    44   22   23 1    
    45   22   24 1    
    46   22  145 1    
    47   23  146 1    
    48   23  147 1    
    49   23  148 1    
    50   24   25 am   BACKBONE|DICT|INTERRES
    51   24  149 1    
    52   25   26 2    
    53   25   27 1    
    54   27   28 1    
    55   27   29 1    
    56   27  150 1    
    57   28  151 1    
    58   28  152 1    
    59   28  153 1    
    60   29   30 am   BACKBONE|DICT|INTERRES
    61   29  154 1    
    62   30   31 2    
    63   30   32 1    
    64   32   33 1    
    65   32   34 1    
    66   32  155 1    
    67   33  156 1    
    68   33  157 1    
    69   33  158 1    
    70   34   35 am   BACKBONE|DICT|INTERRES
    71   34  159 1    
    72   35   36 2    
    73   35   37 1    
    74   37   38 1    
    75   37   39 1    
    76   37  160 1    
    77   38  161 1    
    78   38  162 1    
    79   38  163 1    
    80   39   40 am   BACKBONE|DICT|INTERRES
    81   39  164 1    
    82   40   41 2    
    83   40   42 1    
    84   42   43 1    
    85   42   44 1    
    86   42  165 1    
    87   43  166 1    
    88   43  167 1    
    89   43  168 1    
    90   44   45 am   BACKBONE|DICT|INTERRES
    91   44  169 1    
    92   45   46 2    
    93   45   47 1    
    94   47   48 1    
    95   47   49 1    
    96   47  170 1    
    97   48  171 1    
    98   48  172 1    
    99   48  173 1    
   100   49   50 am   BACKBONE|DICT|INTERRES
   101   49  174 1    
   102   50   51 2    
   103   50   52 1    
   104   52   53 1    
   105   52   54 1    
   106   52  175 1    
   107   53  176 1    
   108   53  177 1    
   109   53  178 1    
   110   54   55 am   BACKBONE|DICT|INTERRES
   111   54  179 1    
   112   55   56 2    
   113   55   57 1    
   114   57   58 1    
   115   57   59 1    
   116   57  180 1    
   117   58  181 1    
   118   58  182 1    
   119   58  183 1    
   120   59   60 am   BACKBONE|DICT|INTERRES
   121   59  184 1    
   122   60   61 2    
   123   60   62 1    
   124   62   63 1    
   125   62   64 1    
   126   62  185 1    
   127   63  186 1    
   128   63  187 1    
   129   63  188 1    
   130   64   65 am   BACKBONE|DICT|INTERRES
   131   64  189 1    
   132   65   66 2    
   133   67   68 2    
   134   67   69 am   BACKBONE|DICT|INTERRES
   135   69   70 1    
   136   69  190 1    
   137   70   71 1    
   138   70   72 1    
   139   70  191 1    
   140   71  192 1    
   141   71  193 1    
   142   71  194 1    
   143   72   73 2    
   144   72   74 am   BACKBONE|DICT|INTERRES
   145   74   75 1    
   146   74  195 1    
   147   75   76 1    
   148   75   77 1    
   149   75  196 1    
   150   76  197 1    
   151   76  198 1    
   152   76  199 1    
   153   77   78 2    
   154   77   79 am   BACKBONE|DICT|INTERRES
   155   79   80 1    
   156   79  200 1    
   157   80   81 1    
   158   80   82 1    
   159   80  201 1    
   160   81  202 1    
   161   81  203 1    
   162   81  204 1    
   163   82   83 2    
   164   82   84 am   BACKBONE|DICT|INTERRES
   165   84   85 1    
   166   84  205 1    
   167   85   86 1    
   168   85   87 1    
   169   85  206 1    
   170   86  207 1    
   171   86  208 1    
   172   86  209 1    
   173   87   88 2    
   174   87   89 am   BACKBONE|DICT|INTERRES
   175   89   90 1    
   176   89  210 1    
   177   90   91 1    
   178   90   92 1    
   179   90  211 1    
   180   91  212 1    
   181   91  213 1    
   182   91  214 1    
   183   92   93 2    
   184   92   94 am   BACKBONE|DICT|INTERRES
   185   94   95 1    
   186   94  215 1    
   187   95   96 1    
   188   95   97 1    
   189   95  216 1    
   190   96  217 1    
   191   96  218 1    
   192   96  219 1    
   193   97   98 2    
   194   97   99 am   BACKBONE|DICT|INTERRES
   195   99  100 1    
   196   99  220 1    
   197  100  101 1    
   198  100  102 1    
   199  100  221 1    
   200  101  222 1    
   201  101  223 1    
   202  101  224 1    
   203  102  103 2    
   204  102  104 am   BACKBONE|DICT|INTERRES
   205  104  105 1    
   206  104  225 1    
   207  105  106 1    
   208  105  107 1    
   209  105  226 1    
   210  106  227 1    
   211  106  228 1    
   212  106  229 1    
   213  107  108 2    
   214  107  109 am   BACKBONE|DICT|INTERRES
   215  109  110 1    
   216  109  230 1    
   217  110  111 1    
   218  110  112 1    
   219  110  231 1    
   220  111  232 1    
   221  111  233 1    
   222  111  234 1    
   223  112  113 2    
   224  112  114 am   BACKBONE|DICT|INTERRES
   225  114  115 1    
   226  114  235 1    
   227  115  116 1    
   228  115  117 1    
   229  115  236 1    
   230  116  237 1    
   231  116  238 1    
   232  116  239 1    
   233  117  118 2    
   234  117  119 am   BACKBONE|DICT|INTERRES
   235  119  120 1    
   236  119  240 1    
   237  120  121 1    
   238  120  124 1    
   239  120  241 1    
   240  121  122 am   BACKBONE|DICT|INTERRES
   241  121  123 2    
   242  122  242 1    
   243  122  243 1    
   244  124  125 1    
   245  124  244 1    
   246  124  245 1    
   247  125  126 1    
   248  126  246 1    
   249  126  247 1    
@<TRIPOS>SUBSTRUCTURE
     1 UNK         1 GROUP             0       ****    0 ROOT    
