@<TRIPOS>MOLECULE
3R540
247   249    1
SMALL
USER_CHARGES


@<TRIPOS>ATOM
      1 CA          0.1976  -17.5133  -47.2723 C.3       0 UNK        -0.1800 
      2 C          -0.1252  -16.0753  -47.6338 C.2       0 UNK         0.5000 
      3 O           0.7737  -15.3276  -48.0172 O.2       0 UNK        -0.5000 
      4 N          -1.4044  -15.6957  -47.5197 N.am      1 UNK        -0.5000 
      5 CA         -1.9672  -14.3998  -47.9077 C.3       1 UNK         0.1400 
      6 C6         -1.9673  -14.2192  -49.4519 C.3       23 UNK        -0.0398 
      7 S7         -3.1068  -12.9317  -50.0687 S.3       23 UNK        -0.2404 
      8 C8         -4.7617  -13.5559  -49.6109 C.3       23 UNK        -0.0205 
      9 C9         -4.9673  -15.0280  -49.9420 C.ar      23 UNK        -0.0193 
     10 C10        -5.1145  -15.4452  -51.2682 C.ar      23 UNK        -0.1150 
     11 C11        -5.3102  -16.7968  -51.5714 C.ar      23 UNK        -0.0193 
     12 C12        -5.3523  -17.7317  -50.5312 C.ar      23 UNK        -0.1150 
     13 C13        -5.1832  -17.3307  -49.2033 C.ar      23 UNK        -0.0193 
     14 C14        -5.0114  -15.9758  -48.9156 C.ar      23 UNK        -0.1150 
     15 C15        -5.1868  -18.3510  -48.0728 C.3       23 UNK        -0.0205 
     16 S16        -3.5197  -18.5822  -47.3704 S.3       23 UNK        -0.2404 
     17 C17        -2.6685  -19.4906  -48.7066 C.3       23 UNK        -0.0398 
     18 CA         -1.9751  -20.8375  -48.3499 C.3       11 UNK         0.1400 
     19 N          -0.7242  -20.6953  -47.6072 N.am      11 UNK        -0.5000 
     20 C           0.4656  -21.1327  -48.0512 C.2       10 UNK         0.5000 
     21 O           0.6709  -21.4776  -49.2164 O.2       10 UNK        -0.5000 
     22 CA          1.6308  -21.2311  -47.0419 C.3       10 UNK         0.1400 
     23 CB          2.7714  -20.2663  -47.4034 C.3       10 UNK        -0.1800 
     24 N           1.2497  -21.0274  -45.6425 N.am      10 UNK        -0.5000 
     25 C           0.4623  -21.8464  -44.9313 C.2       9 UNK         0.5000 
     26 O          -0.0442  -22.8717  -45.3847 O.2       9 UNK        -0.5000 
     27 CA          0.1146  -21.4012  -43.4997 C.3       9 UNK         0.1400 
     28 CB          1.1423  -21.9515  -42.5019 C.3       9 UNK        -0.1800 
     29 N           0.0018  -19.9461  -43.3451 N.am      9 UNK        -0.5000 
     30 C          -0.8645  -19.1714  -44.0200 C.2       8 UNK         0.5000 
     31 O          -1.6072  -19.6155  -44.8979 O.2       8 UNK        -0.5000 
     32 CA         -0.8782  -17.6582  -43.6976 C.3       8 UNK         0.1400 
     33 CB         -2.2480  -17.0006  -43.9567 C.3       8 UNK        -0.1800 
     34 N          -0.3878  -17.3341  -42.3563 N.am      8 UNK        -0.5000 
     35 C          -0.8909  -17.7484  -41.1819 C.2       7 UNK         0.5000 
     36 O          -1.9339  -18.3948  -41.0742 O.2       7 UNK        -0.5000 
     37 CA         -0.0711  -17.4032  -39.9187 C.3       7 UNK         0.1400 
     38 CB         -0.2318  -18.4584  -38.8047 C.3       7 UNK        -0.1800 
     39 N           1.3519  -17.1564  -40.1876 N.am      7 UNK        -0.5000 
     40 C           2.2424  -18.0016  -40.7348 C.2       6 UNK         0.5000 
     41 O           1.9552  -19.1439  -41.0934 O.2       6 UNK        -0.5000 
     42 CA          3.6714  -17.4722  -40.9774 C.3       6 UNK         0.1400 
     43 CB          4.1734  -17.8580  -42.3807 C.3       6 UNK        -0.1800 
     44 N           3.7325  -16.0161  -40.8452 N.am      6 UNK        -0.5000 
     45 C           4.1533  -15.3471  -39.7628 C.2       5 UNK         0.5000 
     46 O           4.6317  -15.8891  -38.7664 O.2       5 UNK        -0.5000 
     47 CA          3.9814  -13.8130  -39.7819 C.3       5 UNK         0.1400 
     48 CB          5.2976  -13.1311  -40.1850 C.3       5 UNK        -0.1800 
     49 N           2.9165  -13.3573  -40.6808 N.am      5 UNK        -0.5000 
     50 C           1.6089  -13.6116  -40.5239 C.2       4 UNK         0.5000 
     51 O           1.1446  -14.2105  -39.5544 O.2       4 UNK        -0.5000 
     52 CA          0.6748  -13.1917  -41.6754 C.3       4 UNK         0.1400 
     53 CB          0.0700  -11.8065  -41.4066 C.3       4 UNK        -0.1800 
     54 N           1.3423  -13.1794  -42.9793 N.am      4 UNK        -0.5000 
     55 C           1.8504  -14.2484  -43.6043 C.2       3 UNK         0.5000 
     56 O           1.7747  -15.3927  -43.1489 O.2       3 UNK        -0.5000 
     57 CA          2.5840  -13.9748  -44.9359 C.3       3 UNK         0.1400 
     58 CB          3.1881  -15.2488  -45.5490 C.3       3 UNK        -0.1800 
     59 N           1.7273  -13.3181  -45.9278 N.am      3 UNK        -0.5000 
     60 C           1.3802  -12.0214  -45.9177 C.2       2 UNK         0.5000 
     61 O           1.7574  -11.2298  -45.0518 O.2       2 UNK        -0.5000 
     62 CA          0.4547  -11.5137  -47.0419 C.3       2 UNK         0.1400 
     63 CB          1.2699  -10.7802  -48.1175 C.3       2 UNK        -0.1800 
     64 N          -0.3226  -12.5743  -47.6816 N.am      2 UNK        -0.5000 
     65 C          -1.3328  -13.2406  -47.1070 C.2       1 UNK         0.5000 
     66 O          -1.7532  -12.9939  -45.9756 O.2       1 UNK        -0.5000 
     67 C          -2.8876  -21.8493  -47.6395 C.2       11 UNK         0.5000 
     68 O          -3.3435  -22.7992  -48.2802 O.2       11 UNK        -0.5000 
     69 N          -3.1115  -21.6495  -46.3334 N.am      12 UNK        -0.5000 
     70 CA         -4.1005  -22.3659  -45.5294 C.3       12 UNK         0.1400 
     71 CB         -4.1982  -21.7024  -44.1477 C.3       12 UNK        -0.1800 
     72 C          -3.8389  -23.8749  -45.3924 C.2       12 UNK         0.5000 
     73 O          -4.7870  -24.6566  -45.4725 O.2       12 UNK        -0.5000 
     74 N          -2.5700  -24.2592  -45.2047 N.am      13 UNK        -0.5000 
     75 CA         -2.1509  -25.6576  -45.0952 C.3       13 UNK         0.1400 
     76 CB         -0.9995  -25.7652  -44.0817 C.3       13 UNK        -0.1800 
     77 C          -1.7347  -26.2444  -46.4560 C.2       13 UNK         0.5000 
     78 O          -1.6456  -27.4669  -46.5755 O.2       13 UNK        -0.5000 
     79 N          -1.4777  -25.3802  -47.4492 N.am      14 UNK        -0.5000 
     80 CA         -1.0850  -25.7673  -48.8016 C.3       14 UNK         0.1400 
     81 CB         -0.4544  -24.5695  -49.5322 C.3       14 UNK        -0.1800 
     82 C          -2.2663  -26.3540  -49.5905 C.2       14 UNK         0.5000 
     83 O          -2.2168  -27.5247  -49.9709 O.2       14 UNK        -0.5000 
     84 N          -3.3004  -25.5339  -49.8219 N.am      15 UNK        -0.5000 
     85 CA         -4.4529  -25.8847  -50.6625 C.3       15 UNK         0.1400 
     86 CB         -4.0096  -25.9591  -52.1428 C.3       15 UNK        -0.1800 
     87 C          -5.6400  -24.9129  -50.5041 C.2       15 UNK         0.5000 
     88 O          -6.5610  -24.9637  -51.3200 O.2       15 UNK        -0.5000 
     89 N          -5.5836  -24.0084  -49.5125 N.am      16 UNK        -0.5000 
     90 CA         -6.3883  -22.7809  -49.4021 C.3       16 UNK         0.1400 
     91 CB         -7.8901  -23.0850  -49.2224 C.3       16 UNK        -0.1800 
     92 C          -6.0897  -21.7997  -50.5603 C.2       16 UNK         0.5000 
     93 O          -6.9654  -21.0506  -50.9934 O.2       16 UNK        -0.5000 
     94 N          -4.8405  -21.8377  -51.0363 N.am      17 UNK        -0.5000 
     95 CA         -4.2988  -21.1080  -52.1705 C.3       17 UNK         0.1400 
     96 CB         -4.6681  -21.8179  -53.4792 C.3       17 UNK        -0.1800 
     97 C          -2.7845  -21.0509  -51.9625 C.2       17 UNK         0.5000 
     98 O          -2.1874  -22.0925  -51.6827 O.2       17 UNK        -0.5000 
     99 N          -2.2051  -19.8461  -52.0449 N.am      18 UNK        -0.5000 
    100 CA        -0.7958  -19.5396  -51.7852 C.3       18 UNK         0.1400 
    101 CB        -0.5756  -18.0253  -51.9284 C.3       18 UNK        -0.1800 
    102 C          0.1309  -20.3390  -52.7100 C.2       18 UNK         0.5000 
    103 O          0.1470  -20.0802  -53.9136 O.2       18 UNK        -0.5000 
    104 N          0.7986  -21.3562  -52.1459 N.am      19 UNK        -0.5000 
    105 CA         1.5912  -22.3784  -52.8441 C.3       19 UNK         0.1400 
    106 CB         2.9030  -21.7644  -53.3743 C.3       19 UNK        -0.1800 
    107 C          0.7969  -23.1265  -53.9440 C.2       19 UNK         0.5000 
    108 O          1.3812  -23.5679  -54.9345 O.2       19 UNK        -0.5000 
    109 N         -0.5295  -23.2160  -53.7575 N.am      20 UNK        -0.5000 
    110 CA        -1.5476  -23.7169  -54.6847 C.3       20 UNK         0.1400 
    111 CB        -1.3380  -25.2164  -54.9789 C.3       20 UNK        -0.1800 
    112 C         -1.7253  -22.8741  -55.9712 C.2       20 UNK         0.5000 
    113 O         -2.3841  -23.3420  -56.9010 O.2       20 UNK        -0.5000 
    114 N         -1.1613  -21.6566  -56.0243 N.am      21 UNK        -0.5000 
    115 CA        -1.1522  -20.8145  -57.2228 C.3       21 UNK         0.1400 
    116 CB         0.0156  -19.8181  -57.1508 C.3       21 UNK        -0.1800 
    117 C         -2.4816  -20.0760  -57.4555 C.2       21 UNK         0.5000 
    118 O         -2.9891  -20.0909  -58.5774 O.2       21 UNK        -0.5000 
    119 N         -3.0195  -19.4406  -56.4051 N.am      22 UNK        -0.5000 
    120 CA        -4.2470  -18.6203  -56.4590 C.3       22 UNK         0.1400 
    121 C         -5.5857  -19.4090  -56.3343 C.2       22 UNK         0.5000 
    122 N         -5.5963  -20.7259  -56.4954 N.am      22 UNK        -0.7600 
    123 O         -6.6397  -18.8188  -56.1139 O.2       22 UNK        -0.5000 
    124 C124       -4.1650  -17.3700  -55.5403 C.3       23 UNK        -0.0398 
    125 S125       -3.8891  -17.7050  -53.7658 S.3       23 UNK        -0.2404 
    126 C126       -5.4839  -17.2336  -53.0204 C.3       23 UNK        -0.0205 
    127 H127        0.5289  -18.0479  -48.1620 H         1 UNK         0.0600 
    128 H128       -0.6724  -18.0256  -46.8689 H         1 UNK         0.0600 
    129 H129        0.9885  -17.5564  -46.5268 H         1 UNK         0.0600 
    130 H130       -2.0815  -16.3672  -47.1840 H         1 UNK         0.3000 
    131 H131       -3.0030  -14.4400  -47.5761 H         1 UNK         0.0600 
    132 H132       -0.9664  -14.0120  -49.8315 H         1 UNK         0.0800 
    133 H133       -2.2503  -15.1582  -49.9295 H         1 UNK         0.0800 
    134 H134       -4.9290  -13.3743  -48.5484 H         1 UNK         0.0800 
    135 H135       -5.5141  -12.9646  -50.1346 H         1 UNK         0.0800 
    136 H136       -5.0757  -14.7150  -52.0644 H         1 UNK         0.1150 
    137 H137       -5.5251  -18.7725  -50.7478 H         1 UNK         0.1150 
    138 H138       -4.9039  -15.6665  -47.8860 H         1 UNK         0.1150 
    139 H139       -5.8552  -18.0060  -47.2826 H         1 UNK         0.0800 
    140 H140       -5.5826  -19.3108  -48.4083 H         1 UNK         0.0800 
    141 H141       -3.3970  -19.6746  -49.4942 H         1 UNK         0.0800 
    142 H142       -1.9403  -18.8076  -49.1423 H         1 UNK         0.0800 
    143 H143       -1.7487  -21.3104  -49.3028 H         1 UNK         0.0600 
    144 H144       -0.8127  -20.4199  -46.6359 H         1 UNK         0.3000 
    145 H145        2.0197  -22.2478  -47.1287 H         1 UNK         0.0600 
    146 H146        3.6477  -20.4464  -46.7806 H         1 UNK         0.0600 
    147 H147        3.0834  -20.3960  -48.4407 H         1 UNK         0.0600 
    148 H148        2.4834  -19.2244  -47.2765 H         1 UNK         0.0600 
    149 H149        1.6056  -20.1987  -45.1900 H         1 UNK         0.3000 
    150 H150       -0.8571  -21.8323  -43.2530 H         1 UNK         0.0600 
    151 H151        1.2287  -23.0358  -42.5859 H         1 UNK         0.0600 
    152 H152        0.8521  -21.7279  -41.4751 H         1 UNK         0.0600 
    153 H153        2.1330  -21.5270  -42.6696 H         1 UNK         0.0600 
    154 H154        0.5854  -19.5258  -42.6293 H         1 UNK         0.3000 
    155 H155       -0.1649  -17.2008  -44.3830 H         1 UNK         0.0600 
    156 H156       -2.2227  -15.9347  -43.7296 H         1 UNK         0.0600 
    157 H157       -3.0365  -17.4559  -43.3570 H         1 UNK         0.0600 
    158 H158       -2.5382  -17.0983  -45.0018 H         1 UNK         0.0600 
    159 H159        0.4683  -16.7893  -42.3407 H         1 UNK         0.3000 
    160 H160       -0.4788  -16.4635  -39.5444 H         1 UNK         0.0600 
    161 H161        0.0885  -19.4472  -39.1346 H         1 UNK         0.0600 
    162 H162       -1.2723  -18.5408  -38.4887 H         1 UNK         0.0600 
    163 H163        0.3521  -18.1929  -37.9234 H         1 UNK         0.0600 
    164 H164        1.6683  -16.2251  -39.9457 H         1 UNK         0.3000 
    165 H165        4.3225  -17.9470  -40.2410 H         1 UNK         0.0600 
    166 H166        3.5071  -17.4921  -43.1623 H         1 UNK         0.0600 
    167 H167        5.1675  -17.4528  -42.5700 H         1 UNK         0.0600 
    168 H168        4.2406  -18.9411  -42.4897 H         1 UNK         0.0600 
    169 H169        3.3142  -15.4962  -41.6063 H         1 UNK         0.3000 
    170 H170        3.7261  -13.4977  -38.7681 H         1 UNK         0.0600 
    171 H171        6.1099  -13.4249  -39.5188 H         1 UNK         0.0600 
    172 H172        5.5939  -13.3964  -41.2007 H         1 UNK         0.0600 
    173 H173        5.2125  -12.0456  -40.1316 H         1 UNK         0.0600 
    174 H174        3.2066  -12.8520  -41.5051 H         1 UNK         0.3000 
    175 H175       -0.1380  -13.9196  -41.7222 H         1 UNK         0.0600 
    176 H176        0.8371  -11.0317  -41.3747 H         1 UNK         0.0600 
    177 H177       -0.6492  -11.5347  -42.1796 H         1 UNK         0.0600 
    178 H178       -0.4570  -11.7883  -40.4517 H         1 UNK         0.0600 
    179 H179        1.4333  -12.2808  -43.4443 H         1 UNK         0.3000 
    180 H180        3.4150  -13.3046  -44.7065 H         1 UNK         0.0600 
    181 H181        2.4251  -15.9984  -45.7478 H         1 UNK         0.0600 
    182 H182        3.9197  -15.6967  -44.8758 H         1 UNK         0.0600 
    183 H183        3.6998  -15.0337  -46.4872 H         1 UNK         0.0600 
    184 H184        1.3652  -13.9085  -46.6699 H         1 UNK         0.3000 
    185 H185       -0.2421  -10.8011  -46.5957 H         1 UNK         0.0600 
    186 H186        0.6205  -10.3536  -48.8824 H         1 UNK         0.0600 
    187 H187        1.8410   -9.9586  -47.6831 H         1 UNK         0.0600 
    188 H188        1.9778  -11.4476  -48.6107 H         1 UNK         0.0600 
    189 H189       -0.0023  -12.8755  -48.5904 H         1 UNK         0.3000 
    190 H190       -2.6793  -20.8474  -45.8815 H         1 UNK         0.3000 
    191 H191       -5.0661  -22.2480  -46.0255 H         1 UNK         0.0600 
    192 H192       -4.9584  -22.1860  -43.5329 H         1 UNK         0.0600 
    193 H193       -3.2533  -21.7568  -43.6069 H         1 UNK         0.0600 
    194 H194       -4.4705  -20.6502  -44.2350 H         1 UNK         0.0600 
    195 H195       -1.8254  -23.5678  -45.1947 H         1 UNK         0.3000 
    196 H196       -2.9781  -26.2621  -44.7169 H         1 UNK         0.0600 
    197 H197       -0.7521  -26.8095  -43.8874 H         1 UNK         0.0600 
    198 H198       -1.2676  -25.3120  -43.1272 H         1 UNK         0.0600 
    199 H199       -0.0920  -25.2809  -44.4416 H         1 UNK         0.0600 
    200 H200       -1.5955  -24.3946  -47.2674 H         1 UNK         0.3000 
    201 H201       -0.3197  -26.5430  -48.7263 H         1 UNK         0.0600 
    202 H202        0.4489  -24.2342  -49.0228 H         1 UNK         0.0600 
    203 H203       -1.1340  -23.7206  -49.5984 H         1 UNK         0.0600 
    204 H204       -0.1707  -24.8369  -50.5510 H         1 UNK         0.0600 
    205 H205       -3.2547  -24.5882  -49.4636 H         1 UNK         0.3000 
    206 H206       -4.8190  -26.8665  -50.3557 H         1 UNK         0.0600 
    207 H207       -3.2498  -26.7233  -52.3033 H         1 UNK         0.0600 
    208 H208       -4.8424  -26.2076  -52.8015 H         1 UNK         0.0600 
    209 H209       -3.5974  -25.0071  -52.4769 H         1 UNK         0.0600 
    210 H210       -4.8052  -24.0422  -48.8652 H         1 UNK         0.3000 
    211 H211       -6.0521  -22.2806  -48.4930 H         1 UNK         0.0600 
    212 H212       -8.3398  -23.4850  -50.1311 H         1 UNK         0.0600 
    213 H213       -8.4395  -22.1795  -48.9628 H         1 UNK         0.0600 
    214 H214       -8.0532  -23.8046  -48.4202 H         1 UNK         0.0600 
    215 H215       -4.1733  -22.4555  -50.5920 H         1 UNK         0.3000 
    216 H216       -4.6986  -20.0973  -52.1992 H         1 UNK         0.0600 
    217 H217       -4.0756  -21.4384  -54.3114 H         1 UNK         0.0600 
    218 H218       -5.7186  -21.6579  -53.7220 H         1 UNK         0.0600 
    219 H219       -4.5089  -22.8936  -53.4148 H         1 UNK         0.0600 
    220 H220       -2.7699  -19.0580  -52.3362 H         1 UNK         0.3000 
    221 H221       -0.5703  -19.8083  -50.7551 H         1 UNK         0.0600 
    222 H222       -0.8011  -17.6782  -52.9376 H         1 UNK         0.0600 
    223 H223       -1.2041  -17.4657  -51.2351 H         1 UNK         0.0600 
    224 H224        0.4605  -17.7607  -51.7140 H         1 UNK         0.0600 
    225 H225        0.6968  -21.4968  -51.1425 H         1 UNK         0.3000 
    226 H226        1.8513  -23.1272  -52.0947 H         1 UNK         0.0600 
    227 H227        3.4467  -21.2520  -52.5806 H         1 UNK         0.0600 
    228 H228        3.5642  -22.5343  -53.7734 H         1 UNK         0.0600 
    229 H229        2.7180  -21.0451  -54.1728 H         1 UNK         0.0600 
    230 H230       -0.9075  -22.8138  -52.9028 H         1 UNK         0.3000 
    231 H231       -2.4897  -23.6306  -54.1482 H         1 UNK         0.0600 
    232 H232       -2.1901  -25.6328  -55.5171 H         1 UNK         0.0600 
    233 H233       -1.2309  -25.7874  -54.0565 H         1 UNK         0.0600 
    234 H234       -0.4514  -25.3912  -55.5886 H         1 UNK         0.0600 
    235 H235       -0.6466  -21.3038  -55.2226 H         1 UNK         0.3000 
    236 H236       -0.9749  -21.4569  -58.0883 H         1 UNK         0.0600 
    237 H237        0.9637  -20.3314  -56.9890 H         1 UNK         0.0600 
    238 H238        0.1037  -19.2558  -58.0812 H         1 UNK         0.0600 
    239 H239       -0.1151  -19.0946  -56.3456 H         1 UNK         0.0600 
    240 H240       -2.5482  -19.4819  -55.5136 H         1 UNK         0.3000 
    241 H241       -4.3037  -18.2097  -57.4689 H         1 UNK         0.0600 
    242 H242       -4.7515  -21.2197  -56.7339 H         1 UNK         0.3800 
    243 H243       -6.4697  -21.2238  -56.4300 H         1 UNK         0.3800 
    244 H244       -5.0474  -16.7422  -55.6710 H         1 UNK         0.0800 
    245 H245       -3.3325  -16.7492  -55.8736 H         1 UNK         0.0800 
    246 H246       -5.9387  -16.4206  -53.5878 H         1 UNK         0.0800 
    247 H247       -6.1759  -18.0751  -53.0849 H         1 UNK         0.0800 
@<TRIPOS>BOND
     1    1    2 1    
     2    1  127 1    
     3    1  128 1    
     4    1  129 1    
     5    2    3 2    
     6    2    4 am   BACKBONE|DICT|INTERRES
     7    4    5 1    
     8    4  130 1    
     9    5    6 1    
    10    5   65 1    
    11    5  131 1    
    12    6    7 1    
    13    6  132 1    
    14    6  133 1    
    15    7    8 1    
    16    8    9 1    
    17    8  134 1    
    18    8  135 1    
    19    9   10 ar   
    20    9   14 ar   
    21   10   11 ar   
    22   10  136 1    
    23   11   12 ar   
    24   11  126 1    
    25   12   13 ar   
    26   12  137 1    
    27   13   14 ar   
    28   13   15 1    
    29   14  138 1    
    30   15   16 1    
    31   15  139 1    
    32   15  140 1    
    33   16   17 1    
    34   17   18 1    
    35   17  141 1    
    36   17  142 1    
    37   18   19 1    
    38   18   67 1    
    39   18  143 1    
    40   19   20 am   BACKBONE|DICT|INTERRES
    41   19  144 1    
    42   20   21 2    
    43   20   22 1    
    44   22   23 1    
    45   22   24 1    
    46   22  145 1    
    47   23  146 1    
    48   23  147 1    
    49   23  148 1    
    50   24   25 am   BACKBONE|DICT|INTERRES
    51   24  149 1    
    52   25   26 2    
    53   25   27 1    
    54   27   28 1    
    55   27   29 1    
    56   27  150 1    
    57   28  151 1    
    58   28  152 1    
    59   28  153 1    
    60   29   30 am   BACKBONE|DICT|INTERRES
    61   29  154 1    
    62   30   31 2    
    63   30   32 1    
    64   32   33 1    
    65   32   34 1    
    66   32  155 1    
    67   33  156 1    
    68   33  157 1    
    69   33  158 1    
    70   34   35 am   BACKBONE|DICT|INTERRES
    71   34  159 1    
    72   35   36 2    
    73   35   37 1    
    74   37   38 1    
    75   37   39 1    
    76   37  160 1    
    77   38  161 1    
    78   38  162 1    
    79   38  163 1    
    80   39   40 am   BACKBONE|DICT|INTERRES
    81   39  164 1    
    82   40   41 2    
    83   40   42 1    
    84   42   43 1    
    85   42   44 1    
    86   42  165 1    
    87   43  166 1    
    88   43  167 1    
    89   43  168 1    
    90   44   45 am   BACKBONE|DICT|INTERRES
    91   44  169 1    
    92   45   46 2    
    93   45   47 1    
    94   47   48 1    
    95   47   49 1    
    96   47  170 1    
    97   48  171 1    
    98   48  172 1    
    99   48  173 1    
   100   49   50 am   BACKBONE|DICT|INTERRES
   101   49  174 1    
   102   50   51 2    
   103   50   52 1    
   104   52   53 1    
   105   52   54 1    
   106   52  175 1    
   107   53  176 1    
   108   53  177 1    
   109   53  178 1    
   110   54   55 am   BACKBONE|DICT|INTERRES
   111   54  179 1    
   112   55   56 2    
   113   55   57 1    
   114   57   58 1    
   115   57   59 1    
   116   57  180 1    
   117   58  181 1    
   118   58  182 1    
   119   58  183 1    
   120   59   60 am   BACKBONE|DICT|INTERRES
   121   59  184 1    
   122   60   61 2    
   123   60   62 1    
   124   62   63 1    
   125   62   64 1    
   126   62  185 1    
   127   63  186 1    
   128   63  187 1    
   129   63  188 1    
   130   64   65 am   BACKBONE|DICT|INTERRES
   131   64  189 1    
   132   65   66 2    
   133   67   68 2    
   134   67   69 am   BACKBONE|DICT|INTERRES
   135   69   70 1    
   136   69  190 1    
   137   70   71 1    
   138   70   72 1    
   139   70  191 1    
   140   71  192 1    
   141   71  193 1    
   142   71  194 1    
   143   72   73 2    
   144   72   74 am   BACKBONE|DICT|INTERRES
   145   74   75 1    
   146   74  195 1    
   147   75   76 1    
   148   75   77 1    
   149   75  196 1    
   150   76  197 1    
   151   76  198 1    
   152   76  199 1    
   153   77   78 2    
   154   77   79 am   BACKBONE|DICT|INTERRES
   155   79   80 1    
   156   79  200 1    
   157   80   81 1    
   158   80   82 1    
   159   80  201 1    
   160   81  202 1    
   161   81  203 1    
   162   81  204 1    
   163   82   83 2    
   164   82   84 am   BACKBONE|DICT|INTERRES
   165   84   85 1    
   166   84  205 1    
   167   85   86 1    
   168   85   87 1    
   169   85  206 1    
   170   86  207 1    
   171   86  208 1    
   172   86  209 1    
   173   87   88 2    
   174   87   89 am   BACKBONE|DICT|INTERRES
   175   89   90 1    
   176   89  210 1    
   177   90   91 1    
   178   90   92 1    
   179   90  211 1    
   180   91  212 1    
   181   91  213 1    
   182   91  214 1    
   183   92   93 2    
   184   92   94 am   BACKBONE|DICT|INTERRES
   185   94   95 1    
   186   94  215 1    
   187   95   96 1    
   188   95   97 1    
   189   95  216 1    
   190   96  217 1    
   191   96  218 1    
   192   96  219 1    
   193   97   98 2    
   194   97   99 am   BACKBONE|DICT|INTERRES
   195   99  100 1    
   196   99  220 1    
   197  100  101 1    
   198  100  102 1    
   199  100  221 1    
   200  101  222 1    
   201  101  223 1    
   202  101  224 1    
   203  102  103 2    
   204  102  104 am   BACKBONE|DICT|INTERRES
   205  104  105 1    
   206  104  225 1    
   207  105  106 1    
   208  105  107 1    
   209  105  226 1    
   210  106  227 1    
   211  106  228 1    
   212  106  229 1    
   213  107  108 2    
   214  107  109 am   BACKBONE|DICT|INTERRES
   215  109  110 1    
   216  109  230 1    
   217  110  111 1    
   218  110  112 1    
   219  110  231 1    
   220  111  232 1    
   221  111  233 1    
   222  111  234 1    
   223  112  113 2    
   224  112  114 am   BACKBONE|DICT|INTERRES
   225  114  115 1    
   226  114  235 1    
   227  115  116 1    
   228  115  117 1    
   229  115  236 1    
   230  116  237 1    
   231  116  238 1    
   232  116  239 1    
   233  117  118 2    
   234  117  119 am   BACKBONE|DICT|INTERRES
   235  119  120 1    
   236  119  240 1    
   237  120  121 1    
   238  120  124 1    
   239  120  241 1    
   240  121  122 am   BACKBONE|DICT|INTERRES
   241  121  123 2    
   242  122  242 1    
   243  122  243 1    
   244  124  125 1    
   245  124  244 1    
   246  124  245 1    
   247  125  126 1    
   248  126  246 1    
   249  126  247 1    
@<TRIPOS>SUBSTRUCTURE
     1 UNK         1 GROUP             0       ****    0 ROOT    
