@<TRIPOS>MOLECULE
3R540
247   249    1
SMALL
USER_CHARGES


@<TRIPOS>ATOM
      1 CA         -0.9975  -11.1454  -50.4965 C.3       0 UNK        -0.1800 
      2 C          -0.9033  -12.6017  -50.0641 C.2       0 UNK         0.5000 
      3 O           0.1138  -13.2484  -50.3087 O.2       0 UNK        -0.5000 
      4 N          -1.9588  -13.1163  -49.4246 N.am      1 UNK        -0.5000 
      5 CA         -2.0502  -14.4899  -48.9227 C.3       1 UNK         0.1400 
      6 C6         -2.3794  -15.5063  -50.0480 C.3       23 UNK        -0.0398 
      7 S7         -1.7235  -17.1725  -49.7125 S.3       23 UNK        -0.2404 
      8 C8         -0.2286  -17.2014  -50.7467 C.3       23 UNK        -0.0205 
      9 C9          0.2406  -18.6283  -50.9801 C.ar      23 UNK        -0.0193 
     10 C10        -0.1267  -19.3039  -52.1474 C.ar      23 UNK        -0.1150 
     11 C11         0.3146  -20.6091  -52.3780 C.ar      23 UNK        -0.0193 
     12 C12         1.0965  -21.2499  -51.4139 C.ar      23 UNK        -0.1150 
     13 C13         1.4556  -20.5977  -50.2311 C.ar      23 UNK        -0.0193 
     14 C14         1.0409  -19.2742  -50.0329 C.ar      23 UNK        -0.1150 
     15 C15         2.3055  -21.3493  -49.2061 C.3       23 UNK        -0.0205 
     16 S16         1.9985  -20.9123  -47.4595 S.3       23 UNK        -0.2404 
     17 C17         0.2189  -21.2730  -47.2697 C.3       23 UNK        -0.0398 
     18 CA         -0.0923  -22.6908  -46.7298 C.3       11 UNK         0.1400 
     19 N           0.6451  -23.0264  -45.5072 N.am      11 UNK        -0.5000 
     20 C           0.7064  -24.2567  -44.9737 C.2       10 UNK         0.5000 
     21 O           0.1487  -25.2381  -45.4621 O.2       10 UNK        -0.5000 
     22 CA          1.4786  -24.4176  -43.6503 C.3       10 UNK         0.1400 
     23 CB          2.9657  -24.6807  -43.9286 C.3       10 UNK        -0.1800 
     24 N           1.3548  -23.2606  -42.7657 N.am      10 UNK        -0.5000 
     25 C           0.2065  -22.7834  -42.2635 C.2       9 UNK         0.5000 
     26 O          -0.8878  -23.3217  -42.4278 O.2       9 UNK        -0.5000 
     27 CA          0.2916  -21.4395  -41.5120 C.3       9 UNK         0.1400 
     28 CB          0.4380  -21.6742  -40.0018 C.3       9 UNK        -0.1800 
     29 N           1.3925  -20.5893  -41.9820 N.am      9 UNK        -0.5000 
     30 C           1.5001  -20.1150  -43.2306 C.2       8 UNK         0.5000 
     31 O           0.6559  -20.3126  -44.1078 O.2       8 UNK        -0.5000 
     32 CA          2.8098  -19.3839  -43.5725 C.3       8 UNK         0.1400 
     33 CB          3.9015  -20.4014  -43.9420 C.3       8 UNK        -0.1800 
     34 N           2.6349  -18.4574  -44.6889 N.am      8 UNK        -0.5000 
     35 C           1.9779  -17.2979  -44.5957 C.2       7 UNK         0.5000 
     36 O           1.4941  -16.8662  -43.5471 O.2       7 UNK        -0.5000 
     37 CA          1.8300  -16.4851  -45.8864 C.3       7 UNK         0.1400 
     38 CB          0.6465  -16.9885  -46.7338 C.3       7 UNK        -0.1800 
     39 N           1.6350  -15.0870  -45.5212 N.am      7 UNK        -0.5000 
     40 C           1.8514  -14.0326  -46.3123 C.2       6 UNK         0.5000 
     41 O           2.2226  -14.1216  -47.4821 O.2       6 UNK        -0.5000 
     42 CA          1.6191  -12.6419  -45.6958 C.3       6 UNK         0.1400 
     43 CB          0.1989  -12.1480  -46.0098 C.3       6 UNK        -0.1800 
     44 N           1.8280  -12.6160  -44.2450 N.am      6 UNK        -0.5000 
     45 C           3.0306  -12.4918  -43.6637 C.2       5 UNK         0.5000 
     46 O           4.0857  -12.4442  -44.2974 O.2       5 UNK        -0.5000 
     47 CA          3.0802  -12.3713  -42.1278 C.3       5 UNK         0.1400 
     48 CB          3.2277  -10.8977  -41.7169 C.3       5 UNK        -0.1800 
     49 N           1.8924  -12.9201  -41.4753 N.am      5 UNK        -0.5000 
     50 C           1.7604  -14.1905  -41.0756 C.2       4 UNK         0.5000 
     51 O           2.6556  -15.0311  -41.1654 O.2       4 UNK        -0.5000 
     52 CA          0.3986  -14.5979  -40.4733 C.3       4 UNK         0.1400 
     53 CB         -0.3484  -13.4354  -39.7816 C.3       4 UNK        -0.1800 
     54 N          -0.4621  -15.2544  -41.4624 N.am      4 UNK        -0.5000 
     55 C          -0.8895  -14.7458  -42.6266 C.2       3 UNK         0.5000 
     56 O          -0.6173  -13.6048  -43.0112 O.2       3 UNK        -0.5000 
     57 CA         -1.7094  -15.6854  -43.5386 C.3       3 UNK         0.1400 
     58 CB         -2.6707  -16.6178  -42.7687 C.3       3 UNK        -0.1800 
     59 N          -2.4027  -14.9470  -44.5992 N.am      3 UNK        -0.5000 
     60 C          -3.4158  -14.0783  -44.4650 C.2       2 UNK         0.5000 
     61 O          -4.0094  -13.8764  -43.4045 O.2       2 UNK        -0.5000 
     62 CA         -3.8283  -13.2732  -45.7184 C.3       2 UNK         0.1400 
     63 CB         -3.8526  -11.7646  -45.4161 C.3       2 UNK        -0.1800 
     64 N          -2.9645  -13.4867  -46.8851 N.am      2 UNK        -0.5000 
     65 C          -3.0230  -14.5307  -47.7238 C.2       1 UNK         0.5000 
     66 O          -3.8086  -15.4662  -47.5771 O.2       1 UNK        -0.5000 
     67 C          -1.6112  -22.8374  -46.5193 C.2       11 UNK         0.5000 
     68 O          -2.3094  -23.3126  -47.4156 O.2       11 UNK        -0.5000 
     69 N          -2.0900  -22.4335  -45.3348 N.am      12 UNK        -0.5000 
     70 CA         -3.4833  -22.5699  -44.9195 C.3       12 UNK         0.1400 
     71 CB         -3.7564  -21.6526  -43.7180 C.3       12 UNK        -0.1800 
     72 C          -3.8408  -24.0314  -44.6023 C.2       12 UNK         0.5000 
     73 O          -4.8871  -24.5041  -45.0447 O.2       12 UNK        -0.5000 
     74 N          -2.9510  -24.7311  -43.8828 N.am      13 UNK        -0.5000 
     75 CA         -3.0981  -26.1394  -43.5040 C.3       13 UNK         0.1400 
     76 CB         -1.9669  -26.5320  -42.5426 C.3       13 UNK        -0.1800 
     77 C          -3.1392  -27.0954  -44.7112 C.2       13 UNK         0.5000 
     78 O          -3.9340  -28.0359  -44.7143 O.2       13 UNK        -0.5000 
     79 N          -2.3100  -26.8193  -45.7270 N.am      14 UNK        -0.5000 
     80 CA         -2.2829  -27.5442  -46.9998 C.3       14 UNK         0.1400 
     81 CB         -0.9343  -27.2787  -47.6887 C.3       14 UNK        -0.1800 
     82 C          -3.4397  -27.1657  -47.9473 C.2       14 UNK         0.5000 
     83 O          -3.6265  -27.8422  -48.9591 O.2       14 UNK        -0.5000 
     84 N          -4.1607  -26.0779  -47.6313 N.am      15 UNK        -0.5000 
     85 CA         -5.1984  -25.4223  -48.4369 C.3       15 UNK         0.1400 
     86 CB         -6.4165  -26.3454  -48.6442 C.3       15 UNK        -0.1800 
     87 C          -4.6590  -24.8317  -49.7583 C.2       15 UNK         0.5000 
     88 O          -5.4243  -24.6139  -50.6978 O.2       15 UNK        -0.5000 
     89 N          -3.3504  -24.5505  -49.7961 N.am      16 UNK        -0.5000 
     90 CA         -2.6504  -23.9125  -50.9076 C.3       16 UNK         0.1400 
     91 CB         -1.1404  -24.1346  -50.7327 C.3       16 UNK        -0.1800 
     92 C          -2.9783  -22.4125  -50.9894 C.2       16 UNK         0.5000 
     93 O          -3.0974  -21.8735  -52.0887 O.2       16 UNK        -0.5000 
     94 N          -3.1792  -21.7842  -49.8208 N.am      17 UNK        -0.5000 
     95 CA         -3.5302  -20.3706  -49.6644 C.3       17 UNK         0.1400 
     96 CB         -3.4907  -20.0060  -48.1717 C.3       17 UNK        -0.1800 
     97 C          -4.8902  -19.9774  -50.2770 C.2       17 UNK         0.5000 
     98 O          -5.1175  -18.7954  -50.5335 O.2       17 UNK        -0.5000 
     99 N          -5.7639  -20.9660  -50.5216 N.am      18 UNK        -0.5000 
    100 CA        -7.0354  -20.7976  -51.2285 C.3       18 UNK         0.1400 
    101 CB        -7.8663  -22.0812  -51.0842 C.3       18 UNK        -0.1800 
    102 C         -6.8505  -20.4350  -52.7165 C.2       18 UNK         0.5000 
    103 O         -7.7210  -19.7817  -53.2920 O.2       18 UNK        -0.5000 
    104 N         -5.7117  -20.8301  -53.3005 N.am      19 UNK        -0.5000 
    105 CA        -5.2674  -20.4531  -54.6375 C.3       19 UNK         0.1400 
    106 CB        -4.7709  -21.7141  -55.3680 C.3       19 UNK        -0.1800 
    107 C         -4.1727  -19.3839  -54.4868 C.2       19 UNK         0.5000 
    108 O         -3.0246  -19.6204  -54.8569 O.2       19 UNK        -0.5000 
    109 N         -4.5497  -18.2349  -53.9082 N.am      20 UNK        -0.5000 
    110 CA        -3.6751  -17.1531  -53.4377 C.3       20 UNK         0.1400 
    111 CB        -4.5561  -16.0028  -52.9259 C.3       20 UNK        -0.1800 
    112 C         -2.6437  -16.6148  -54.4504 C.2       20 UNK         0.5000 
    113 O         -1.5713  -16.1746  -54.0370 O.2       20 UNK        -0.5000 
    114 N         -2.9725  -16.6603  -55.7486 N.am      21 UNK        -0.5000 
    115 CA        -2.0712  -16.2818  -56.8404 C.3       21 UNK         0.1400 
    116 CB        -2.8884  -16.1304  -58.1326 C.3       21 UNK        -0.1800 
    117 C         -0.9143  -17.2818  -57.0485 C.2       21 UNK         0.5000 
    118 O          0.1576  -16.8801  -57.5022 O.2       21 UNK        -0.5000 
    119 N         -1.1550  -18.5561  -56.7117 N.am      22 UNK        -0.5000 
    120 CA        -0.2154  -19.6859  -56.7758 C.3       22 UNK         0.1400 
    121 C          0.3296  -20.0334  -58.1974 C.2       22 UNK         0.5000 
    122 N         -0.3560  -19.6560  -59.2698 N.am      22 UNK        -0.7600 
    123 O          1.3685  -20.6723  -58.3409 O.2       22 UNK        -0.5000 
    124 C124        0.8806  -19.5899  -55.6752 C.3       23 UNK        -0.0398 
    125 S125        1.2482  -21.2136  -54.9240 S.3       23 UNK        -0.2404 
    126 C126       -0.0580  -21.3385  -53.6591 C.3       23 UNK        -0.0205 
    127 H127       -1.9527  -10.6995  -50.2181 H         1 UNK         0.0600 
    128 H128       -0.8883  -11.0676  -51.5782 H         1 UNK         0.0600 
    129 H129       -0.2022  -10.5641  -50.0296 H         1 UNK         0.0600 
    130 H130       -2.7793  -12.5448  -49.2720 H         1 UNK         0.3000 
    131 H131       -1.0719  -14.7435  -48.5074 H         1 UNK         0.0600 
    132 H132       -3.4560  -15.5802  -50.2076 H         1 UNK         0.0800 
    133 H133       -1.9715  -15.1665  -51.0004 H         1 UNK         0.0800 
    134 H134       -0.4257  -16.7203  -51.7048 H         1 UNK         0.0800 
    135 H135        0.5570  -16.6166  -50.2659 H         1 UNK         0.0800 
    136 H136       -0.7500  -18.8114  -52.8808 H         1 UNK         0.1150 
    137 H137        1.4308  -22.2626  -51.5906 H         1 UNK         0.1150 
    138 H138        1.3266  -18.7459  -49.1356 H         1 UNK         0.1150 
    139 H139        2.1544  -22.4247  -49.3125 H         1 UNK         0.0800 
    140 H140        3.3565  -21.1627  -49.4292 H         1 UNK         0.0800 
    141 H141       -0.2841  -21.1207  -48.2256 H         1 UNK         0.0800 
    142 H142       -0.1869  -20.5118  -46.6013 H         1 UNK         0.0800 
    143 H143        0.2016  -23.4112  -47.4960 H         1 UNK         0.0600 
    144 H144        1.0774  -22.2485  -45.0256 H         1 UNK         0.3000 
    145 H145        1.0696  -25.2830  -43.1265 H         1 UNK         0.0600 
    146 H146        3.5121  -24.8748  -43.0054 H         1 UNK         0.0600 
    147 H147        3.0939  -25.5536  -44.5701 H         1 UNK         0.0600 
    148 H148        3.4385  -23.8339  -44.4281 H         1 UNK         0.0600 
    149 H149        2.2033  -22.7522  -42.5691 H         1 UNK         0.3000 
    150 H150       -0.6447  -20.9058  -41.6887 H         1 UNK         0.0600 
    151 H151        1.3704  -22.1867  -39.7616 H         1 UNK         0.0600 
    152 H152       -0.3808  -22.2866  -39.6212 H         1 UNK         0.0600 
    153 H153        0.4199  -20.7328  -39.4525 H         1 UNK         0.0600 
    154 H154        2.1263  -20.3945  -41.3158 H         1 UNK         0.3000 
    155 H155        3.1367  -18.8188  -42.6967 H         1 UNK         0.0600 
    156 H156        3.6147  -21.0081  -44.8019 H         1 UNK         0.0600 
    157 H157        4.1033  -21.0817  -43.1139 H         1 UNK         0.0600 
    158 H158        4.8400  -19.9020  -44.1835 H         1 UNK         0.0600 
    159 H159        2.9502  -18.7789  -45.5926 H         1 UNK         0.3000 
    160 H160        2.7555  -16.5809  -46.4581 H         1 UNK         0.0600 
    161 H161        0.7311  -18.0570  -46.9323 H         1 UNK         0.0600 
    162 H162        0.6116  -16.4832  -47.6984 H         1 UNK         0.0600 
    163 H163       -0.3100  -16.8269  -46.2382 H         1 UNK         0.0600 
    164 H164        1.3971  -14.9401  -44.5482 H         1 UNK         0.3000 
    165 H165        2.3219  -11.9517  -46.1676 H         1 UNK         0.0600 
    166 H166        0.0417  -11.1361  -45.6364 H         1 UNK         0.0600 
    167 H167        0.0216  -12.1296  -47.0857 H         1 UNK         0.0600 
    168 H168       -0.5551  -12.7916  -45.5588 H         1 UNK         0.0600 
    169 H169        0.9992  -12.7157  -43.6657 H         1 UNK         0.3000 
    170 H170        3.9679  -12.9061  -41.7835 H         1 UNK         0.0600 
    171 H171        3.3220  -10.7979  -40.6354 H         1 UNK         0.0600 
    172 H172        4.1196  -10.4547  -42.1618 H         1 UNK         0.0600 
    173 H173        2.3712  -10.3025  -42.0359 H         1 UNK         0.0600 
    174 H174        1.0942  -12.3070  -41.3905 H         1 UNK         0.3000 
    175 H175        0.6150  -15.3448  -39.7080 H         1 UNK         0.0600 
    176 H176        0.2872  -12.9478  -39.0412 H         1 UNK         0.0600 
    177 H177       -0.6823  -12.6723  -40.4850 H         1 UNK         0.0600 
    178 H178       -1.2302  -13.8017  -39.2559 H         1 UNK         0.0600 
    179 H179       -0.6835  -16.2190  -41.2625 H         1 UNK         0.3000 
    180 H180       -0.9899  -16.3213  -44.0504 H         1 UNK         0.0600 
    181 H181       -3.3219  -16.0648  -42.0912 H         1 UNK         0.0600 
    182 H182       -2.1211  -17.3472  -42.1730 H         1 UNK         0.0600 
    183 H183       -3.3033  -17.1820  -43.4542 H         1 UNK         0.0600 
    184 H184       -1.9912  -15.0201  -45.5164 H         1 UNK         0.3000 
    185 H185       -4.8435  -13.5826  -45.9756 H         1 UNK         0.0600 
    186 H186       -4.5443  -11.5355  -44.6044 H         1 UNK         0.0600 
    187 H187       -2.8683  -11.3991  -45.1205 H         1 UNK         0.0600 
    188 H188       -4.1780  -11.1919  -46.2847 H         1 UNK         0.0600 
    189 H189       -2.2862  -12.7622  -47.0690 H         1 UNK         0.3000 
    190 H190       -1.4422  -22.0720  -44.6487 H         1 UNK         0.3000 
    191 H191       -4.1216  -22.2431  -45.7429 H         1 UNK         0.0600 
    192 H192       -3.5510  -20.6106  -43.9643 H         1 UNK         0.0600 
    193 H193       -4.8013  -21.7144  -43.4116 H         1 UNK         0.0600 
    194 H194       -3.1461  -21.9186  -42.8548 H         1 UNK         0.0600 
    195 H195       -2.1351  -24.2476  -43.5159 H         1 UNK         0.3000 
    196 H196       -4.0459  -26.2389  -42.9711 H         1 UNK         0.0600 
    197 H197       -2.0849  -27.5608  -42.2003 H         1 UNK         0.0600 
    198 H198       -1.9588  -25.8935  -41.6590 H         1 UNK         0.0600 
    199 H199       -0.9909  -26.4557  -43.0212 H         1 UNK         0.0600 
    200 H200       -1.6315  -26.0704  -45.6207 H         1 UNK         0.3000 
    201 H201       -2.3592  -28.6144  -46.7970 H         1 UNK         0.0600 
    202 H202       -0.8532  -27.8332  -48.6244 H         1 UNK         0.0600 
    203 H203       -0.1013  -27.5873  -47.0568 H         1 UNK         0.0600 
    204 H204       -0.8041  -26.2208  -47.9215 H         1 UNK         0.0600 
    205 H205       -3.9418  -25.6103  -46.7609 H         1 UNK         0.3000 
    206 H206       -5.5341  -24.5680  -47.8476 H         1 UNK         0.0600 
    207 H207       -6.7717  -26.7470  -47.6951 H         1 UNK         0.0600 
    208 H208       -7.2465  -25.8005  -49.0955 H         1 UNK         0.0600 
    209 H209       -6.1847  -27.1849  -49.2998 H         1 UNK         0.0600 
    210 H210       -2.8222  -24.6659  -48.9400 H         1 UNK         0.3000 
    211 H211       -2.9677  -24.3856  -51.8392 H         1 UNK         0.0600 
    212 H212       -0.7545  -23.6238  -49.8499 H         1 UNK         0.0600 
    213 H213       -0.5909  -23.7606  -51.5951 H         1 UNK         0.0600 
    214 H214       -0.9055  -25.1948  -50.6363 H         1 UNK         0.0600 
    215 H215       -3.0525  -22.3196  -48.9681 H         1 UNK         0.3000 
    216 H216       -2.7666  -19.7935  -50.1874 H         1 UNK         0.0600 
    217 H217       -3.7581  -18.9595  -48.0168 H         1 UNK         0.0600 
    218 H218       -2.4938  -20.1427  -47.7564 H         1 UNK         0.0600 
    219 H219       -4.1869  -20.6119  -47.5917 H         1 UNK         0.0600 
    220 H220       -5.4950  -21.9120  -50.2932 H         1 UNK         0.3000 
    221 H221       -7.5814  -19.9803  -50.7529 H         1 UNK         0.0600 
    222 H222       -7.3803  -22.9307  -51.5652 H         1 UNK         0.0600 
    223 H223       -8.0269  -22.3346  -50.0361 H         1 UNK         0.0600 
    224 H224       -8.8481  -21.9629  -51.5443 H         1 UNK         0.0600 
    225 H225       -5.0129  -21.3011  -52.7354 H         1 UNK         0.3000 
    226 H226       -6.0839  -20.0204  -55.2188 H         1 UNK         0.0600 
    227 H227       -4.4236  -21.4725  -56.3733 H         1 UNK         0.0600 
    228 H228       -3.9434  -22.1883  -54.8381 H         1 UNK         0.0600 
    229 H229       -5.5688  -22.4501  -55.4670 H         1 UNK         0.0600 
    230 H230       -5.5192  -18.1534  -53.6367 H         1 UNK         0.3000 
    231 H231       -3.1100  -17.5508  -52.5921 H         1 UNK         0.0600 
    232 H232       -5.2320  -15.6408  -53.7015 H         1 UNK         0.0600 
    233 H233       -3.9526  -15.1548  -52.6004 H         1 UNK         0.0600 
    234 H234       -5.1592  -16.3186  -52.0742 H         1 UNK         0.0600 
    235 H235       -3.8747  -17.0333  -56.0045 H         1 UNK         0.3000 
    236 H236       -1.6301  -15.3118  -56.6010 H         1 UNK         0.0600 
    237 H237       -3.6610  -15.3691  -58.0237 H         1 UNK         0.0600 
    238 H238       -2.2510  -15.8279  -58.9647 H         1 UNK         0.0600 
    239 H239       -3.3746  -17.0653  -58.4141 H         1 UNK         0.0600 
    240 H240       -2.0416  -18.7787  -56.2689 H         1 UNK         0.3000 
    241 H241       -0.8487  -20.5395  -56.5325 H         1 UNK         0.0600 
    242 H242       -1.2136  -19.1366  -59.1730 H         1 UNK         0.3800 
    243 H243       -0.0087  -19.8859  -60.1878 H         1 UNK         0.3800 
    244 H244        1.8009  -19.1594  -56.0729 H         1 UNK         0.0800 
    245 H245        0.5705  -18.9143  -54.8781 H         1 UNK         0.0800 
    246 H246       -1.0015  -20.9620  -54.0525 H         1 UNK         0.0800 
    247 H247       -0.2298  -22.3927  -53.4433 H         1 UNK         0.0800 
@<TRIPOS>BOND
     1    1    2 1    
     2    1  127 1    
     3    1  128 1    
     4    1  129 1    
     5    2    3 2    
     6    2    4 am   BACKBONE|DICT|INTERRES
     7    4    5 1    
     8    4  130 1    
     9    5    6 1    
    10    5   65 1    
    11    5  131 1    
    12    6    7 1    
    13    6  132 1    
    14    6  133 1    
    15    7    8 1    
    16    8    9 1    
    17    8  134 1    
    18    8  135 1    
    19    9   10 ar   
    20    9   14 ar   
    21   10   11 ar   
    22   10  136 1    
    23   11   12 ar   
    24   11  126 1    
    25   12   13 ar   
    26   12  137 1    
    27   13   14 ar   
    28   13   15 1    
    29   14  138 1    
    30   15   16 1    
    31   15  139 1    
    32   15  140 1    
    33   16   17 1    
    34   17   18 1    
    35   17  141 1    
    36   17  142 1    
    37   18   19 1    
    38   18   67 1    
    39   18  143 1    
    40   19   20 am   BACKBONE|DICT|INTERRES
    41   19  144 1    
    42   20   21 2    
    43   20   22 1    
    44   22   23 1    
    45   22   24 1    
    46   22  145 1    
    47   23  146 1    
    48   23  147 1    
    49   23  148 1    
    50   24   25 am   BACKBONE|DICT|INTERRES
    51   24  149 1    
    52   25   26 2    
    53   25   27 1    
    54   27   28 1    
    55   27   29 1    
    56   27  150 1    
    57   28  151 1    
    58   28  152 1    
    59   28  153 1    
    60   29   30 am   BACKBONE|DICT|INTERRES
    61   29  154 1    
    62   30   31 2    
    63   30   32 1    
    64   32   33 1    
    65   32   34 1    
    66   32  155 1    
    67   33  156 1    
    68   33  157 1    
    69   33  158 1    
    70   34   35 am   BACKBONE|DICT|INTERRES
    71   34  159 1    
    72   35   36 2    
    73   35   37 1    
    74   37   38 1    
    75   37   39 1    
    76   37  160 1    
    77   38  161 1    
    78   38  162 1    
    79   38  163 1    
    80   39   40 am   BACKBONE|DICT|INTERRES
    81   39  164 1    
    82   40   41 2    
    83   40   42 1    
    84   42   43 1    
    85   42   44 1    
    86   42  165 1    
    87   43  166 1    
    88   43  167 1    
    89   43  168 1    
    90   44   45 am   BACKBONE|DICT|INTERRES
    91   44  169 1    
    92   45   46 2    
    93   45   47 1    
    94   47   48 1    
    95   47   49 1    
    96   47  170 1    
    97   48  171 1    
    98   48  172 1    
    99   48  173 1    
   100   49   50 am   BACKBONE|DICT|INTERRES
   101   49  174 1    
   102   50   51 2    
   103   50   52 1    
   104   52   53 1    
   105   52   54 1    
   106   52  175 1    
   107   53  176 1    
   108   53  177 1    
   109   53  178 1    
   110   54   55 am   BACKBONE|DICT|INTERRES
   111   54  179 1    
   112   55   56 2    
   113   55   57 1    
   114   57   58 1    
   115   57   59 1    
   116   57  180 1    
   117   58  181 1    
   118   58  182 1    
   119   58  183 1    
   120   59   60 am   BACKBONE|DICT|INTERRES
   121   59  184 1    
   122   60   61 2    
   123   60   62 1    
   124   62   63 1    
   125   62   64 1    
   126   62  185 1    
   127   63  186 1    
   128   63  187 1    
   129   63  188 1    
   130   64   65 am   BACKBONE|DICT|INTERRES
   131   64  189 1    
   132   65   66 2    
   133   67   68 2    
   134   67   69 am   BACKBONE|DICT|INTERRES
   135   69   70 1    
   136   69  190 1    
   137   70   71 1    
   138   70   72 1    
   139   70  191 1    
   140   71  192 1    
   141   71  193 1    
   142   71  194 1    
   143   72   73 2    
   144   72   74 am   BACKBONE|DICT|INTERRES
   145   74   75 1    
   146   74  195 1    
   147   75   76 1    
   148   75   77 1    
   149   75  196 1    
   150   76  197 1    
   151   76  198 1    
   152   76  199 1    
   153   77   78 2    
   154   77   79 am   BACKBONE|DICT|INTERRES
   155   79   80 1    
   156   79  200 1    
   157   80   81 1    
   158   80   82 1    
   159   80  201 1    
   160   81  202 1    
   161   81  203 1    
   162   81  204 1    
   163   82   83 2    
   164   82   84 am   BACKBONE|DICT|INTERRES
   165   84   85 1    
   166   84  205 1    
   167   85   86 1    
   168   85   87 1    
   169   85  206 1    
   170   86  207 1    
   171   86  208 1    
   172   86  209 1    
   173   87   88 2    
   174   87   89 am   BACKBONE|DICT|INTERRES
   175   89   90 1    
   176   89  210 1    
   177   90   91 1    
   178   90   92 1    
   179   90  211 1    
   180   91  212 1    
   181   91  213 1    
   182   91  214 1    
   183   92   93 2    
   184   92   94 am   BACKBONE|DICT|INTERRES
   185   94   95 1    
   186   94  215 1    
   187   95   96 1    
   188   95   97 1    
   189   95  216 1    
   190   96  217 1    
   191   96  218 1    
   192   96  219 1    
   193   97   98 2    
   194   97   99 am   BACKBONE|DICT|INTERRES
   195   99  100 1    
   196   99  220 1    
   197  100  101 1    
   198  100  102 1    
   199  100  221 1    
   200  101  222 1    
   201  101  223 1    
   202  101  224 1    
   203  102  103 2    
   204  102  104 am   BACKBONE|DICT|INTERRES
   205  104  105 1    
   206  104  225 1    
   207  105  106 1    
   208  105  107 1    
   209  105  226 1    
   210  106  227 1    
   211  106  228 1    
   212  106  229 1    
   213  107  108 2    
   214  107  109 am   BACKBONE|DICT|INTERRES
   215  109  110 1    
   216  109  230 1    
   217  110  111 1    
   218  110  112 1    
   219  110  231 1    
   220  111  232 1    
   221  111  233 1    
   222  111  234 1    
   223  112  113 2    
   224  112  114 am   BACKBONE|DICT|INTERRES
   225  114  115 1    
   226  114  235 1    
   227  115  116 1    
   228  115  117 1    
   229  115  236 1    
   230  116  237 1    
   231  116  238 1    
   232  116  239 1    
   233  117  118 2    
   234  117  119 am   BACKBONE|DICT|INTERRES
   235  119  120 1    
   236  119  240 1    
   237  120  121 1    
   238  120  124 1    
   239  120  241 1    
   240  121  122 am   BACKBONE|DICT|INTERRES
   241  121  123 2    
   242  122  242 1    
   243  122  243 1    
   244  124  125 1    
   245  124  244 1    
   246  124  245 1    
   247  125  126 1    
   248  126  246 1    
   249  126  247 1    
@<TRIPOS>SUBSTRUCTURE
     1 UNK         1 GROUP             0       ****    0 ROOT    
