@<TRIPOS>MOLECULE
3R540
247   249    1
SMALL
USER_CHARGES


@<TRIPOS>ATOM
      1 CA         -2.8470  -11.6557  -51.2334 C.3       0 UNK        -0.1800 
      2 C          -2.0391  -10.7112  -50.3449 C.2       0 UNK         0.5000 
      3 O          -1.8309   -9.5594  -50.7215 O.2       0 UNK        -0.5000 
      4 N          -1.5815  -11.1353  -49.1595 N.am      1 UNK        -0.5000 
      5 CA         -1.6952  -12.4890  -48.6066 C.3       1 UNK         0.1400 
      6 C6         -1.6385  -12.4850  -47.0553 C.3       23 UNK        -0.0398 
      7 S7         -2.9681  -11.5517  -46.2177 S.3       23 UNK        -0.2404 
      8 C8         -4.5017  -12.0640  -47.0720 C.3       23 UNK        -0.0205 
      9 C9         -4.6487  -13.5727  -47.2548 C.ar      23 UNK        -0.0193 
     10 C10        -4.9686  -14.0864  -48.5176 C.ar      23 UNK        -0.1150 
     11 C11        -5.1024  -15.4621  -48.7150 C.ar      23 UNK        -0.0193 
     12 C12        -4.9290  -16.3261  -47.6318 C.ar      23 UNK        -0.1150 
     13 C13        -4.6226  -15.8309  -46.3631 C.ar      23 UNK        -0.0193 
     14 C14        -4.4846  -14.4522  -46.1777 C.ar      23 UNK        -0.1150 
     15 C15        -4.4748  -16.7979  -45.2006 C.3       23 UNK        -0.0205 
     16 S16        -2.8206  -17.5582  -45.1690 S.3       23 UNK        -0.2404 
     17 C17        -3.1864  -19.1739  -44.3972 C.3       23 UNK        -0.0398 
     18 CA         -2.8869  -20.3374  -45.3722 C.3       11 UNK         0.1400 
     19 N          -1.4516  -20.4939  -45.5966 N.am      11 UNK        -0.5000 
     20 C          -0.9081  -21.0451  -46.6863 C.2       10 UNK         0.5000 
     21 O          -1.5631  -21.4637  -47.6401 O.2       10 UNK        -0.5000 
     22 CA          0.6252  -21.1773  -46.6881 C.3       10 UNK         0.1400 
     23 CB          1.2863  -19.9133  -47.2513 C.3       10 UNK        -0.1800 
     24 N           1.1460  -21.4712  -45.3505 N.am      10 UNK        -0.5000 
     25 C           1.0480  -22.6857  -44.7924 C.2       9 UNK         0.5000 
     26 O           0.5254  -23.6450  -45.3600 O.2       9 UNK        -0.5000 
     27 CA          1.5978  -22.8838  -43.3659 C.3       9 UNK         0.1400 
     28 CB          3.0394  -23.4097  -43.4235 C.3       9 UNK        -0.1800 
     29 N           1.5494  -21.7158  -42.4808 N.am      9 UNK        -0.5000 
     30 C           0.4579  -21.0021  -42.1760 C.2       8 UNK         0.5000 
     31 O          -0.6303  -21.1604  -42.7311 O.2       8 UNK        -0.5000 
     32 CA          0.5804  -19.9407  -41.0699 C.3       8 UNK         0.1400 
     33 CB          2.0270  -19.5756  -40.6802 C.3       8 UNK        -0.1800 
     34 N          -0.1193  -18.7452  -41.5156 N.am      8 UNK        -0.5000 
     35 C          -0.9181  -17.9693  -40.7740 C.2       7 UNK         0.5000 
     36 O          -1.1519  -18.1766  -39.5821 O.2       7 UNK        -0.5000 
     37 CA         -1.5835  -16.7707  -41.4910 C.3       7 UNK         0.1400 
     38 CB         -1.7593  -15.5451  -40.5706 C.3       7 UNK        -0.1800 
     39 N          -0.9216  -16.3989  -42.7485 N.am      7 UNK        -0.5000 
     40 C           0.3311  -15.9494  -42.9019 C.2       6 UNK         0.5000 
     41 O           1.0953  -15.6749  -41.9741 O.2       6 UNK        -0.5000 
     42 CA          0.8223  -15.8185  -44.3521 C.3       6 UNK         0.1400 
     43 CB          0.8995  -14.3414  -44.7690 C.3       6 UNK        -0.1800 
     44 N           2.1283  -16.4534  -44.5284 N.am      6 UNK        -0.5000 
     45 C           2.3658  -17.7670  -44.4074 C.2       5 UNK         0.5000 
     46 O           1.4964  -18.6043  -44.1460 O.2       5 UNK        -0.5000 
     47 CA          3.8102  -18.2090  -44.6905 C.3       5 UNK         0.1400 
     48 CB          4.0522  -19.7123  -44.4298 C.3       5 UNK        -0.1800 
     49 N           4.1418  -17.8462  -46.0673 N.am      5 UNK        -0.5000 
     50 C           5.3625  -17.8918  -46.6195 C.2       4 UNK         0.5000 
     51 O           6.3726  -18.2757  -46.0286 O.2       4 UNK        -0.5000 
     52 CA          5.4880  -17.3966  -48.0756 C.3       4 UNK         0.1400 
     53 CB          5.1988  -18.5424  -49.0576 C.3       4 UNK        -0.1800 
     54 N           4.5994  -16.2745  -48.3792 N.am      4 UNK        -0.5000 
     55 C           4.6254  -15.0836  -47.7672 C.2       3 UNK         0.5000 
     56 O           5.5029  -14.7512  -46.9694 O.2       3 UNK        -0.5000 
     57 CA          3.4787  -14.0955  -48.0642 C.3       3 UNK         0.1400 
     58 CB          4.0018  -12.8965  -48.8710 C.3       3 UNK        -0.1800 
     59 N           2.2922  -14.6247  -48.7485 N.am      3 UNK        -0.5000 
     60 C           1.5254  -15.6701  -48.4116 C.2       2 UNK         0.5000 
     61 O           1.8149  -16.4780  -47.5297 O.2       2 UNK        -0.5000 
     62 CA          0.1939  -15.7988  -49.1810 C.3       2 UNK         0.1400 
     63 CB         -0.5080  -17.1429  -48.9240 C.3       2 UNK        -0.1800 
     64 N          -0.7408  -14.7263  -48.8415 N.am      2 UNK        -0.5000 
     65 C          -0.6255  -13.4367  -49.1864 C.2       1 UNK         0.5000 
     66 O           0.2738  -13.0019  -49.9105 O.2       1 UNK        -0.5000 
     67 C          -3.5143  -21.6571  -44.8821 C.2       11 UNK         0.5000 
     68 O          -4.5977  -22.0163  -45.3417 O.2       11 UNK        -0.5000 
     69 N          -2.8315  -22.3434  -43.9570 N.am      12 UNK        -0.5000 
     70 CA         -3.2952  -23.5637  -43.3055 C.3       12 UNK         0.1400 
     71 CB         -2.6847  -23.6461  -41.8936 C.3       12 UNK        -0.1800 
     72 C          -2.9918  -24.8155  -44.1466 C.2       12 UNK         0.5000 
     73 O          -3.8935  -25.3402  -44.7987 O.2       12 UNK        -0.5000 
     74 N          -1.7399  -25.2908  -44.0909 N.am      13 UNK        -0.5000 
     75 CA         -1.2980  -26.5758  -44.6399 C.3       13 UNK         0.1400 
     76 CB          0.1263  -26.8823  -44.1499 C.3       13 UNK        -0.1800 
     77 C          -1.3856  -26.6669  -46.1731 C.2       13 UNK         0.5000 
     78 O          -1.8493  -27.6837  -46.6910 O.2       13 UNK        -0.5000 
     79 N          -0.9670  -25.6019  -46.8703 N.am      14 UNK        -0.5000 
     80 CA         -1.0758  -25.4907  -48.3298 C.3       14 UNK         0.1400 
     81 CB         -0.0280  -24.4961  -48.8487 C.3       14 UNK        -0.1800 
     82 C          -2.4927  -25.0941  -48.7954 C.2       14 UNK         0.5000 
     83 O          -2.7872  -25.2000  -49.9852 O.2       14 UNK        -0.5000 
     84 N          -3.3436  -24.6632  -47.8533 N.am      15 UNK        -0.5000 
     85 CA         -4.7531  -24.3088  -48.0245 C.3       15 UNK         0.1400 
     86 CB         -5.5966  -25.5644  -48.3295 C.3       15 UNK        -0.1800 
     87 C          -4.9920  -23.1373  -49.0006 C.2       15 UNK         0.5000 
     88 O          -5.9784  -23.1429  -49.7413 O.2       15 UNK        -0.5000 
     89 N          -4.1027  -22.1323  -48.9517 N.am      16 UNK        -0.5000 
     90 CA         -4.2138  -20.8243  -49.5990 C.3       16 UNK         0.1400 
     91 CB         -5.3281  -20.0085  -48.9015 C.3       16 UNK        -0.1800 
     92 C          -4.3859  -20.9287  -51.1285 C.2       16 UNK         0.5000 
     93 O          -3.4380  -21.2843  -51.8341 O.2       16 UNK        -0.5000 
     94 N          -5.5989  -20.6282  -51.6098 N.am      17 UNK        -0.5000 
     95 CA         -6.0028  -20.6518  -53.0128 C.3       17 UNK         0.1400 
     96 CB         -7.4086  -20.0457  -53.1326 C.3       17 UNK        -0.1800 
     97 C          -5.9564  -22.0483  -53.6619 C.2       17 UNK         0.5000 
     98 O          -5.8702  -22.1240  -54.8870 O.2       17 UNK        -0.5000 
     99 N          -5.9737  -23.1217  -52.8560 N.am      18 UNK        -0.5000 
    100 CA        -5.8400  -24.5054  -53.3235 C.3       18 UNK         0.1400 
    101 CB        -6.1127  -25.4663  -52.1598 C.3       18 UNK        -0.1800 
    102 C         -4.4588  -24.7955  -53.9435 C.2       18 UNK         0.5000 
    103 O         -4.3782  -25.5158  -54.9391 O.2       18 UNK        -0.5000 
    104 N         -3.4080  -24.1996  -53.3647 N.am      19 UNK        -0.5000 
    105 CA        -2.0375  -24.2323  -53.8808 C.3       19 UNK         0.1400 
    106 CB        -1.0685  -24.2819  -52.6885 C.3       19 UNK        -0.1800 
    107 C         -1.7216  -23.0168  -54.7744 C.2       19 UNK         0.5000 
    108 O         -0.6288  -22.9543  -55.3389 O.2       19 UNK        -0.5000 
    109 N         -2.6619  -22.0621  -54.8541 N.am      20 UNK        -0.5000 
    110 CA        -2.5470  -20.7335  -55.4655 C.3       20 UNK         0.1400 
    111 CB        -2.3693  -20.8380  -56.9940 C.3       20 UNK        -0.1800 
    112 C         -1.4651  -19.8668  -54.7851 C.2       20 UNK         0.5000 
    113 O         -0.8327  -19.0349  -55.4392 O.2       20 UNK        -0.5000 
    114 N         -1.2726  -20.0768  -53.4736 N.am      21 UNK        -0.5000 
    115 CA        -0.2136  -19.4628  -52.6703 C.3       21 UNK         0.1400 
    116 CB        -0.1544  -20.1624  -51.3032 C.3       21 UNK        -0.1800 
    117 C         -0.3776  -17.9420  -52.4984 C.2       21 UNK         0.5000 
    118 O          0.6169  -17.2439  -52.3041 O.2       21 UNK        -0.5000 
    119 N         -1.6245  -17.4642  -52.5867 N.am      22 UNK        -0.5000 
    120 CA        -2.0129  -16.0478  -52.4939 C.3       22 UNK         0.1400 
    121 C         -1.6219  -15.1900  -53.7348 C.2       22 UNK         0.5000 
    122 N         -1.1582  -15.7728  -54.8351 N.am      22 UNK        -0.7600 
    123 O         -1.7424  -13.9695  -53.6984 O.2       22 UNK        -0.5000 
    124 C124       -3.5221  -15.8803  -52.1667 C.3       23 UNK        -0.0398 
    125 S125       -4.0918  -16.9651  -50.8124 S.3       23 UNK        -0.2404 
    126 C126       -5.4668  -16.0219  -50.0822 C.3       23 UNK        -0.0205 
    127 H127       -2.3242  -12.5981  -51.3912 H         1 UNK         0.0600 
    128 H128       -3.0157  -11.2083  -52.2132 H         1 UNK         0.0600 
    129 H129       -3.8200  -11.8617  -50.7882 H         1 UNK         0.0600 
    130 H130       -1.0413  -10.4920  -48.5999 H         1 UNK         0.3000 
    131 H131       -2.6467  -12.9060  -48.9202 H         1 UNK         0.0600 
    132 H132       -0.6838  -12.0797  -46.7151 H         1 UNK         0.0800 
    133 H133       -1.6848  -13.5003  -46.6586 H         1 UNK         0.0800 
    134 H134       -4.5444  -11.5521  -48.0346 H         1 UNK         0.0800 
    135 H135       -5.3556  -11.6997  -46.4996 H         1 UNK         0.0800 
    136 H136       -5.1150  -13.4142  -49.3510 H         1 UNK         0.1150 
    137 H137       -5.0369  -17.3904  -47.7738 H         1 UNK         0.1150 
    138 H138       -4.2504  -14.0625  -45.1969 H         1 UNK         0.1150 
    139 H139       -5.2432  -17.5669  -45.2925 H         1 UNK         0.0800 
    140 H140       -4.6578  -16.2923  -44.2512 H         1 UNK         0.0800 
    141 H141       -2.5928  -19.2715  -43.4867 H         1 UNK         0.0800 
    142 H142       -4.2287  -19.1959  -44.0747 H         1 UNK         0.0800 
    143 H143       -3.3592  -20.1010  -46.3274 H         1 UNK         0.0600 
    144 H144       -0.8419  -20.2287  -44.8351 H         1 UNK         0.3000 
    145 H145        0.8976  -22.0020  -47.3478 H         1 UNK         0.0600 
    146 H146        1.0397  -19.8006  -48.3053 H         1 UNK         0.0600 
    147 H147        2.3722  -19.9630  -47.1848 H         1 UNK         0.0600 
    148 H148        0.9515  -19.0126  -46.7370 H         1 UNK         0.0600 
    149 H149        1.5195  -20.6970  -44.8148 H         1 UNK         0.3000 
    150 H150        0.9820  -23.6547  -42.8991 H         1 UNK         0.0600 
    151 H151        3.7217  -22.6692  -43.8420 H         1 UNK         0.0600 
    152 H152        3.1055  -24.3042  -44.0448 H         1 UNK         0.0600 
    153 H153        3.4025  -23.6795  -42.4317 H         1 UNK         0.0600 
    154 H154        2.4037  -21.5007  -41.9887 H         1 UNK         0.3000 
    155 H155        0.0801  -20.3582  -40.1941 H         1 UNK         0.0600 
    156 H156        2.0351  -18.8257  -39.8890 H         1 UNK         0.0600 
    157 H157        2.5813  -19.1634  -41.5231 H         1 UNK         0.0600 
    158 H158        2.5731  -20.4401  -40.3013 H         1 UNK         0.0600 
    159 H159        0.0187  -18.5167  -42.4925 H         1 UNK         0.3000 
    160 H160       -2.5813  -17.1114  -41.7710 H         1 UNK         0.0600 
    161 H161       -0.8066  -15.1943  -40.1734 H         1 UNK         0.0600 
    162 H162       -2.3975  -15.7840  -39.7192 H         1 UNK         0.0600 
    163 H163       -2.2276  -14.7167  -41.1023 H         1 UNK         0.0600 
    164 H164       -1.4591  -16.5986  -43.5836 H         1 UNK         0.3000 
    165 H165        0.1177  -16.3233  -45.0171 H         1 UNK         0.0600 
    166 H166        1.1422  -14.2403  -45.8254 H         1 UNK         0.0600 
    167 H167       -0.0566  -13.8413  -44.6092 H         1 UNK         0.0600 
    168 H168        1.6526  -13.7997  -44.1955 H         1 UNK         0.0600 
    169 H169        2.8984  -15.8400  -44.7465 H         1 UNK         0.3000 
    170 H170        4.4518  -17.6388  -44.0160 H         1 UNK         0.0600 
    171 H171        5.1160  -19.9471  -44.4174 H         1 UNK         0.0600 
    172 H172        3.5916  -20.3350  -45.1938 H         1 UNK         0.0600 
    173 H173        3.6569  -20.0181  -43.4623 H         1 UNK         0.0600 
    174 H174        3.3683  -17.4801  -46.6176 H         1 UNK         0.3000 
    175 H175        6.5161  -17.0617  -48.2276 H         1 UNK         0.0600 
    176 H176        5.8562  -19.3924  -48.8703 H         1 UNK         0.0600 
    177 H177        4.1707  -18.8970  -48.9708 H         1 UNK         0.0600 
    178 H178        5.3603  -18.2288  -50.0891 H         1 UNK         0.0600 
    179 H179        3.8253  -16.4639  -48.9981 H         1 UNK         0.3000 
    180 H180        3.1403  -13.7233  -47.0961 H         1 UNK         0.0600 
    181 H181        4.3195  -13.1962  -49.8704 H         1 UNK         0.0600 
    182 H182        4.8572  -12.4309  -48.3795 H         1 UNK         0.0600 
    183 H183        3.2354  -12.1284  -48.9787 H         1 UNK         0.0600 
    184 H184        1.9018  -14.0099  -49.4563 H         1 UNK         0.3000 
    185 H185        0.4280  -15.7279  -50.2429 H         1 UNK         0.0600 
    186 H186        0.1268  -17.9669  -49.2418 H         1 UNK         0.0600 
    187 H187       -0.7427  -17.2887  -47.8684 H         1 UNK         0.0600 
    188 H188       -1.4374  -17.2213  -49.4862 H         1 UNK         0.0600 
    189 H189       -1.5124  -15.0053  -48.2525 H         1 UNK         0.3000 
    190 H190       -1.9565  -21.9531  -43.6105 H         1 UNK         0.3000 
    191 H191       -4.3795  -23.5096  -43.1850 H         1 UNK         0.0600 
    192 H192       -3.0172  -22.8102  -41.2778 H         1 UNK         0.0600 
    193 H193       -2.9907  -24.5625  -41.3874 H         1 UNK         0.0600 
    194 H194       -1.5948  -23.6256  -41.9105 H         1 UNK         0.0600 
    195 H195       -1.0482  -24.7649  -43.5802 H         1 UNK         0.3000 
    196 H196       -1.9594  -27.3439  -44.2334 H         1 UNK         0.0600 
    197 H197        0.4586  -27.8578  -44.5072 H         1 UNK         0.0600 
    198 H198        0.1737  -26.9035  -43.0610 H         1 UNK         0.0600 
    199 H199        0.8465  -26.1440  -44.5029 H         1 UNK         0.0600 
    200 H200       -0.5485  -24.8212  -46.3683 H         1 UNK         0.3000 
    201 H201       -0.8496  -26.4644  -48.7696 H         1 UNK         0.0600 
    202 H202        0.0479  -24.5459  -49.9349 H         1 UNK         0.0600 
    203 H203        0.9615  -24.7066  -48.4424 H         1 UNK         0.0600 
    204 H204       -0.2900  -23.4730  -48.5931 H         1 UNK         0.0600 
    205 H205       -3.0086  -24.6410  -46.9002 H         1 UNK         0.3000 
    206 H206       -5.0869  -23.9422  -47.0541 H         1 UNK         0.0600 
    207 H207       -5.5142  -26.2891  -47.5193 H         1 UNK         0.0600 
    208 H208       -6.6540  -25.3190  -48.4338 H         1 UNK         0.0600 
    209 H209       -5.2795  -26.0603  -49.2451 H         1 UNK         0.0600 
    210 H210       -3.2801  -22.2388  -48.3665 H         1 UNK         0.3000 
    211 H211       -3.2692  -20.3046  -49.4343 H         1 UNK         0.0600 
    212 H212       -6.2941  -20.5135  -48.9302 H         1 UNK         0.0600 
    213 H213       -5.4583  -19.0328  -49.3652 H         1 UNK         0.0600 
    214 H214       -5.0873  -19.8362  -47.8535 H         1 UNK         0.0600 
    215 H215       -6.3181  -20.3843  -50.9450 H         1 UNK         0.3000 
    216 H216       -5.3095  -20.0139  -53.5640 H         1 UNK         0.0600 
    217 H217       -7.7340  -20.0132  -54.1733 H         1 UNK         0.0600 
    218 H218       -8.1452  -20.6265  -52.5759 H         1 UNK         0.0600 
    219 H219       -7.4308  -19.0230  -52.7552 H         1 UNK         0.0600 
    220 H220       -6.0385  -22.9836  -51.8523 H         1 UNK         0.3000 
    221 H221       -6.5970  -24.6750  -54.0920 H         1 UNK         0.0600 
    222 H222       -5.3488  -25.3694  -51.3893 H         1 UNK         0.0600 
    223 H223       -7.0826  -25.2745  -51.7006 H         1 UNK         0.0600 
    224 H224       -6.1076  -26.5030  -52.4984 H         1 UNK         0.0600 
    225 H225       -3.5623  -23.6303  -52.5424 H         1 UNK         0.3000 
    226 H226       -1.8822  -25.1295  -54.4832 H         1 UNK         0.0600 
    227 H227       -0.0289  -24.2504  -53.0169 H         1 UNK         0.0600 
    228 H228       -1.2256  -23.4448  -52.0069 H         1 UNK         0.0600 
    229 H229       -1.1964  -25.2046  -52.1233 H         1 UNK         0.0600 
    230 H230       -3.5283  -22.2395  -54.3667 H         1 UNK         0.3000 
    231 H231       -3.4966  -20.2302  -55.2811 H         1 UNK         0.0600 
    232 H232       -1.4022  -21.2630  -57.2636 H         1 UNK         0.0600 
    233 H233       -2.4349  -19.8554  -57.4625 H         1 UNK         0.0600 
    234 H234       -3.1460  -21.4605  -57.4383 H         1 UNK         0.0600 
    235 H235       -1.8838  -20.7286  -52.9912 H         1 UNK         0.3000 
    236 H236        0.7347  -19.6355  -53.1833 H         1 UNK         0.0600 
    237 H237       -1.0588  -19.9876  -50.7190 H         1 UNK         0.0600 
    238 H238       -0.0306  -21.2398  -51.4133 H         1 UNK         0.0600 
    239 H239        0.6923  -19.7994  -50.7207 H         1 UNK         0.0600 
    240 H240       -2.3759  -18.1204  -52.7358 H         1 UNK         0.3000 
    241 H241       -1.4589  -15.6213  -51.6574 H         1 UNK         0.0600 
    242 H242       -1.0424  -16.7758  -54.8843 H         1 UNK         0.3800 
    243 H243       -0.9083  -15.2025  -55.6275 H         1 UNK         0.3800 
    244 H244       -4.1311  -16.1009  -53.0451 H         1 UNK         0.0800 
    245 H245       -3.7288  -14.8422  -51.9008 H         1 UNK         0.0800 
    246 H246       -5.7889  -15.2297  -50.7594 H         1 UNK         0.0800 
    247 H247       -6.3243  -16.6871  -49.9719 H         1 UNK         0.0800 
@<TRIPOS>BOND
     1    1    2 1    
     2    1  127 1    
     3    1  128 1    
     4    1  129 1    
     5    2    3 2    
     6    2    4 am   BACKBONE|DICT|INTERRES
     7    4    5 1    
     8    4  130 1    
     9    5    6 1    
    10    5   65 1    
    11    5  131 1    
    12    6    7 1    
    13    6  132 1    
    14    6  133 1    
    15    7    8 1    
    16    8    9 1    
    17    8  134 1    
    18    8  135 1    
    19    9   10 ar   
    20    9   14 ar   
    21   10   11 ar   
    22   10  136 1    
    23   11   12 ar   
    24   11  126 1    
    25   12   13 ar   
    26   12  137 1    
    27   13   14 ar   
    28   13   15 1    
    29   14  138 1    
    30   15   16 1    
    31   15  139 1    
    32   15  140 1    
    33   16   17 1    
    34   17   18 1    
    35   17  141 1    
    36   17  142 1    
    37   18   19 1    
    38   18   67 1    
    39   18  143 1    
    40   19   20 am   BACKBONE|DICT|INTERRES
    41   19  144 1    
    42   20   21 2    
    43   20   22 1    
    44   22   23 1    
    45   22   24 1    
    46   22  145 1    
    47   23  146 1    
    48   23  147 1    
    49   23  148 1    
    50   24   25 am   BACKBONE|DICT|INTERRES
    51   24  149 1    
    52   25   26 2    
    53   25   27 1    
    54   27   28 1    
    55   27   29 1    
    56   27  150 1    
    57   28  151 1    
    58   28  152 1    
    59   28  153 1    
    60   29   30 am   BACKBONE|DICT|INTERRES
    61   29  154 1    
    62   30   31 2    
    63   30   32 1    
    64   32   33 1    
    65   32   34 1    
    66   32  155 1    
    67   33  156 1    
    68   33  157 1    
    69   33  158 1    
    70   34   35 am   BACKBONE|DICT|INTERRES
    71   34  159 1    
    72   35   36 2    
    73   35   37 1    
    74   37   38 1    
    75   37   39 1    
    76   37  160 1    
    77   38  161 1    
    78   38  162 1    
    79   38  163 1    
    80   39   40 am   BACKBONE|DICT|INTERRES
    81   39  164 1    
    82   40   41 2    
    83   40   42 1    
    84   42   43 1    
    85   42   44 1    
    86   42  165 1    
    87   43  166 1    
    88   43  167 1    
    89   43  168 1    
    90   44   45 am   BACKBONE|DICT|INTERRES
    91   44  169 1    
    92   45   46 2    
    93   45   47 1    
    94   47   48 1    
    95   47   49 1    
    96   47  170 1    
    97   48  171 1    
    98   48  172 1    
    99   48  173 1    
   100   49   50 am   BACKBONE|DICT|INTERRES
   101   49  174 1    
   102   50   51 2    
   103   50   52 1    
   104   52   53 1    
   105   52   54 1    
   106   52  175 1    
   107   53  176 1    
   108   53  177 1    
   109   53  178 1    
   110   54   55 am   BACKBONE|DICT|INTERRES
   111   54  179 1    
   112   55   56 2    
   113   55   57 1    
   114   57   58 1    
   115   57   59 1    
   116   57  180 1    
   117   58  181 1    
   118   58  182 1    
   119   58  183 1    
   120   59   60 am   BACKBONE|DICT|INTERRES
   121   59  184 1    
   122   60   61 2    
   123   60   62 1    
   124   62   63 1    
   125   62   64 1    
   126   62  185 1    
   127   63  186 1    
   128   63  187 1    
   129   63  188 1    
   130   64   65 am   BACKBONE|DICT|INTERRES
   131   64  189 1    
   132   65   66 2    
   133   67   68 2    
   134   67   69 am   BACKBONE|DICT|INTERRES
   135   69   70 1    
   136   69  190 1    
   137   70   71 1    
   138   70   72 1    
   139   70  191 1    
   140   71  192 1    
   141   71  193 1    
   142   71  194 1    
   143   72   73 2    
   144   72   74 am   BACKBONE|DICT|INTERRES
   145   74   75 1    
   146   74  195 1    
   147   75   76 1    
   148   75   77 1    
   149   75  196 1    
   150   76  197 1    
   151   76  198 1    
   152   76  199 1    
   153   77   78 2    
   154   77   79 am   BACKBONE|DICT|INTERRES
   155   79   80 1    
   156   79  200 1    
   157   80   81 1    
   158   80   82 1    
   159   80  201 1    
   160   81  202 1    
   161   81  203 1    
   162   81  204 1    
   163   82   83 2    
   164   82   84 am   BACKBONE|DICT|INTERRES
   165   84   85 1    
   166   84  205 1    
   167   85   86 1    
   168   85   87 1    
   169   85  206 1    
   170   86  207 1    
   171   86  208 1    
   172   86  209 1    
   173   87   88 2    
   174   87   89 am   BACKBONE|DICT|INTERRES
   175   89   90 1    
   176   89  210 1    
   177   90   91 1    
   178   90   92 1    
   179   90  211 1    
   180   91  212 1    
   181   91  213 1    
   182   91  214 1    
   183   92   93 2    
   184   92   94 am   BACKBONE|DICT|INTERRES
   185   94   95 1    
   186   94  215 1    
   187   95   96 1    
   188   95   97 1    
   189   95  216 1    
   190   96  217 1    
   191   96  218 1    
   192   96  219 1    
   193   97   98 2    
   194   97   99 am   BACKBONE|DICT|INTERRES
   195   99  100 1    
   196   99  220 1    
   197  100  101 1    
   198  100  102 1    
   199  100  221 1    
   200  101  222 1    
   201  101  223 1    
   202  101  224 1    
   203  102  103 2    
   204  102  104 am   BACKBONE|DICT|INTERRES
   205  104  105 1    
   206  104  225 1    
   207  105  106 1    
   208  105  107 1    
   209  105  226 1    
   210  106  227 1    
   211  106  228 1    
   212  106  229 1    
   213  107  108 2    
   214  107  109 am   BACKBONE|DICT|INTERRES
   215  109  110 1    
   216  109  230 1    
   217  110  111 1    
   218  110  112 1    
   219  110  231 1    
   220  111  232 1    
   221  111  233 1    
   222  111  234 1    
   223  112  113 2    
   224  112  114 am   BACKBONE|DICT|INTERRES
   225  114  115 1    
   226  114  235 1    
   227  115  116 1    
   228  115  117 1    
   229  115  236 1    
   230  116  237 1    
   231  116  238 1    
   232  116  239 1    
   233  117  118 2    
   234  117  119 am   BACKBONE|DICT|INTERRES
   235  119  120 1    
   236  119  240 1    
   237  120  121 1    
   238  120  124 1    
   239  120  241 1    
   240  121  122 am   BACKBONE|DICT|INTERRES
   241  121  123 2    
   242  122  242 1    
   243  122  243 1    
   244  124  125 1    
   245  124  244 1    
   246  124  245 1    
   247  125  126 1    
   248  126  246 1    
   249  126  247 1    
@<TRIPOS>SUBSTRUCTURE
     1 UNK         1 GROUP             0       ****    0 ROOT    
