@<TRIPOS>MOLECULE
3R540
247   249    1
SMALL
USER_CHARGES


@<TRIPOS>ATOM
      1 CA         -2.1677  -11.4199  -50.2880 C.3       0 UNK        -0.1800 
      2 C          -0.6504  -11.3079  -50.3496 C.2       0 UNK         0.5000 
      3 O          -0.1281  -10.3885  -50.9807 O.2       0 UNK        -0.5000 
      4 N           0.0553  -12.2435  -49.7046 N.am      1 UNK        -0.5000 
      5 CA          1.5182  -12.2720  -49.6044 C.3       1 UNK         0.1400 
      6 C6          2.0341  -13.6529  -49.1287 C.3       23 UNK        -0.0398 
      7 S7          1.5589  -15.0187  -50.2382 S.3       23 UNK        -0.2404 
      8 C8          0.7047  -16.1092  -49.0639 C.3       23 UNK        -0.0205 
      9 C9          0.4115  -17.4638  -49.6815 C.ar      23 UNK        -0.0193 
     10 C10        -0.8487  -17.7390  -50.2156 C.ar      23 UNK        -0.1150 
     11 C11        -1.1351  -18.9975  -50.7502 C.ar      23 UNK        -0.0193 
     12 C12        -0.1427  -19.9808  -50.7623 C.ar      23 UNK        -0.1150 
     13 C13         1.1182  -19.7222  -50.2137 C.ar      23 UNK        -0.0193 
     14 C14         1.3914  -18.4596  -49.6817 C.ar      23 UNK        -0.1150 
     15 C15         2.1761  -20.8150  -50.1626 C.3       23 UNK        -0.0205 
     16 S16         2.2043  -21.6499  -48.5418 S.3       23 UNK        -0.2404 
     17 C17         0.5282  -22.3606  -48.5153 C.3       23 UNK        -0.0398 
     18 CA          0.2949  -23.3658  -47.3695 C.3       11 UNK         0.1400 
     19 N           0.3443  -22.7337  -46.0466 N.am      11 UNK        -0.5000 
     20 C           0.3412  -23.4083  -44.8886 C.2       10 UNK         0.5000 
     21 O           0.3094  -24.6360  -44.8161 O.2       10 UNK        -0.5000 
     22 CA          0.3124  -22.5814  -43.5916 C.3       10 UNK         0.1400 
     23 CB          1.6873  -21.9650  -43.2939 C.3       10 UNK        -0.1800 
     24 N          -0.7144  -21.5400  -43.6156 N.am      10 UNK        -0.5000 
     25 C          -2.0307  -21.7827  -43.7036 C.2       9 UNK         0.5000 
     26 O          -2.5178  -22.9126  -43.7302 O.2       9 UNK        -0.5000 
     27 CA         -2.9609  -20.5630  -43.8228 C.3       9 UNK         0.1400 
     28 CB         -3.2383  -19.9536  -42.4406 C.3       9 UNK        -0.1800 
     29 N          -2.4372  -19.5315  -44.7165 N.am      9 UNK        -0.5000 
     30 C          -2.1768  -19.7044  -46.0200 C.2       8 UNK         0.5000 
     31 O          -2.3719  -20.7575  -46.6243 O.2       8 UNK        -0.5000 
     32 CA         -1.5221  -18.5205  -46.7511 C.3       8 UNK         0.1400 
     33 CB         -2.5459  -17.4119  -47.0420 C.3       8 UNK        -0.1800 
     34 N          -0.3902  -17.9681  -46.0050 N.am      8 UNK        -0.5000 
     35 C           0.7167  -18.6596  -45.6965 C.2       7 UNK         0.5000 
     36 O           0.9141  -19.8257  -46.0340 O.2       7 UNK        -0.5000 
     37 CA          1.7504  -17.9477  -44.8092 C.3       7 UNK         0.1400 
     38 CB          2.6694  -17.0430  -45.6396 C.3       7 UNK        -0.1800 
     39 N           1.1188  -17.1649  -43.7482 N.am      7 UNK        -0.5000 
     40 C           0.4836  -17.7048  -42.6981 C.2       6 UNK         0.5000 
     41 O           0.4034  -18.9164  -42.4946 O.2       6 UNK        -0.5000 
     42 CA         -0.2243  -16.7245  -41.7447 C.3       6 UNK         0.1400 
     43 CB          0.7763  -16.1097  -40.7548 C.3       6 UNK        -0.1800 
     44 N          -0.9216  -15.6525  -42.4569 N.am      6 UNK        -0.5000 
     45 C          -1.9340  -15.8418  -43.3148 C.2       5 UNK         0.5000 
     46 O          -2.4234  -16.9444  -43.5522 O.2       5 UNK        -0.5000 
     47 CA         -2.4827  -14.6084  -44.0551 C.3       5 UNK         0.1400 
     48 CB         -3.8019  -14.1462  -43.4188 C.3       5 UNK        -0.1800 
     49 N          -1.5567  -13.4761  -44.1065 N.am      5 UNK        -0.5000 
     50 C          -0.3810  -13.4549  -44.7489 C.2       4 UNK         0.5000 
     51 O           0.0791  -14.4237  -45.3606 O.2       4 UNK        -0.5000 
     52 CA          0.3700  -12.1074  -44.7155 C.3       4 UNK         0.1400 
     53 CB          0.2695  -11.3884  -43.3505 C.3       4 UNK        -0.1800 
     54 N           1.7664  -12.1999  -45.1450 N.am      4 UNK        -0.5000 
     55 C           2.7807  -12.8325  -44.5349 C.2       3 UNK         0.5000 
     56 O           2.6510  -13.4919  -43.5021 O.2       3 UNK        -0.5000 
     57 CA          4.1849  -12.7029  -45.1726 C.3       3 UNK         0.1400 
     58 CB          4.7740  -14.0821  -45.5057 C.3       3 UNK        -0.1800 
     59 N           4.2050  -11.8910  -46.3919 N.am      3 UNK        -0.5000 
     60 C           4.1986  -10.5514  -46.4484 C.2       2 UNK         0.5000 
     61 O           4.2758   -9.8233  -45.4590 O.2       2 UNK        -0.5000 
     62 CA          4.0273   -9.9265  -47.8511 C.3       2 UNK         0.1400 
     63 CB          5.3945   -9.5637  -48.4502 C.3       2 UNK        -0.1800 
     64 N           3.3065  -10.7997  -48.7886 N.am      2 UNK        -0.5000 
     65 C           2.0302  -11.1832  -48.6388 C.2       1 UNK         0.5000 
     66 O           1.3078  -10.7808  -47.7237 O.2       1 UNK        -0.5000 
     67 C          -1.0260  -24.1283  -47.6039 C.2       11 UNK         0.5000 
     68 O          -0.9970  -25.2352  -48.1440 O.2       11 UNK        -0.5000 
     69 N          -2.1580  -23.5463  -47.1859 N.am      12 UNK        -0.5000 
     70 CA         -3.4812  -24.1656  -47.2745 C.3       12 UNK         0.1400 
     71 CB         -4.5589  -23.1364  -46.9053 C.3       12 UNK        -0.1800 
     72 C          -3.6130  -25.4304  -46.4050 C.2       12 UNK         0.5000 
     73 O          -4.3081  -26.3642  -46.8028 O.2       12 UNK        -0.5000 
     74 N          -2.9360  -25.4516  -45.2503 N.am      13 UNK        -0.5000 
     75 CA         -2.8791  -26.6027  -44.3550 C.3       13 UNK         0.1400 
     76 CB         -2.5052  -26.1344  -42.9394 C.3       13 UNK        -0.1800 
     77 C          -1.8997  -27.6805  -44.8523 C.2       13 UNK         0.5000 
     78 O          -2.2822  -28.8470  -44.9510 O.2       13 UNK        -0.5000 
     79 N          -0.6487  -27.2832  -45.1210 N.am      14 UNK        -0.5000 
     80 CA          0.4599  -28.2036  -45.3735 C.3       14 UNK         0.1400 
     81 CB          1.7866  -27.5111  -45.0235 C.3       14 UNK        -0.1800 
     82 C           0.5050  -28.7389  -46.8127 C.2       14 UNK         0.5000 
     83 O           0.7589  -29.9295  -47.0019 O.2       14 UNK        -0.5000 
     84 N           0.2928  -27.8567  -47.7969 N.am      15 UNK        -0.5000 
     85 CA          0.4540  -28.1610  -49.2215 C.3       15 UNK         0.1400 
     86 CB          1.3053  -27.0529  -49.8666 C.3       15 UNK        -0.1800 
     87 C          -0.8893  -28.3047  -49.9571 C.2       15 UNK         0.5000 
     88 O          -0.8875  -28.7136  -51.1190 O.2       15 UNK        -0.5000 
     89 N          -1.9992  -27.9497  -49.2901 N.am      16 UNK        -0.5000 
     90 CA         -3.3611  -27.8567  -49.8328 C.3       16 UNK         0.1400 
     91 CB         -3.8979  -29.2470  -50.2341 C.3       16 UNK        -0.1800 
     92 C          -3.4712  -26.8082  -50.9618 C.2       16 UNK         0.5000 
     93 O          -4.2038  -27.0130  -51.9320 O.2       16 UNK        -0.5000 
     94 N          -2.7082  -25.7147  -50.8248 N.am      17 UNK        -0.5000 
     95 CA         -2.6066  -24.6370  -51.8063 C.3       17 UNK         0.1400 
     96 CB         -1.4274  -23.7347  -51.4207 C.3       17 UNK        -0.1800 
     97 C          -3.8901  -23.7946  -51.9162 C.2       17 UNK         0.5000 
     98 O          -4.6576  -23.6958  -50.9556 O.2       17 UNK        -0.5000 
     99 N          -4.0557  -23.1569  -53.0777 N.am      18 UNK        -0.5000 
    100 CA        -5.0906  -22.1756  -53.3704 C.3       18 UNK         0.1400 
    101 CB        -6.3670  -22.8784  -53.8620 C.3       18 UNK        -0.1800 
    102 C         -4.5368  -21.2118  -54.4287 C.2       18 UNK         0.5000 
    103 O         -3.7817  -21.6402  -55.3053 O.2       18 UNK        -0.5000 
    104 N         -4.9251  -19.9394  -54.3235 N.am      19 UNK        -0.5000 
    105 CA        -4.5454  -18.8067  -55.1650 C.3       19 UNK         0.1400 
    106 CB        -3.0235  -18.5468  -55.1083 C.3       19 UNK        -0.1800 
    107 C         -5.3214  -17.5838  -54.6483 C.2       19 UNK         0.5000 
    108 O         -5.9953  -17.6793  -53.6168 O.2       19 UNK        -0.5000 
    109 N         -5.1846  -16.4391  -55.3296 N.am      20 UNK        -0.5000 
    110 CA        -5.8202  -15.1653  -54.9648 C.3       20 UNK         0.1400 
    111 CB        -5.5090  -14.1218  -56.0486 C.3       20 UNK        -0.1800 
    112 C         -5.4209  -14.6308  -53.5718 C.2       20 UNK         0.5000 
    113 O         -6.2135  -13.9316  -52.9406 O.2       20 UNK        -0.5000 
    114 N         -4.2149  -14.9899  -53.1100 N.am      21 UNK        -0.5000 
    115 CA        -3.7055  -14.6817  -51.7724 C.3       21 UNK         0.1400 
    116 CB        -2.1705  -14.7548  -51.8033 C.3       21 UNK        -0.1800 
    117 C         -4.2857  -15.5910  -50.6661 C.2       21 UNK         0.5000 
    118 O         -4.2080  -15.2233  -49.4939 O.2       21 UNK        -0.5000 
    119 N         -4.8490  -16.7451  -51.0474 N.am      22 UNK        -0.5000 
    120 CA        -5.5725  -17.6714  -50.1609 C.3       22 UNK         0.1400 
    121 C         -7.1033  -17.4184  -50.2145 C.2       22 UNK         0.5000 
    122 N         -7.6839  -17.1801  -51.3844 N.am      22 UNK        -0.7600 
    123 O         -7.7709  -17.4348  -49.1844 O.2       22 UNK        -0.5000 
    124 C124       -5.2606  -19.1556  -50.4959 C.3       23 UNK        -0.0398 
    125 S125       -3.6346  -19.6980  -49.8800 S.3       23 UNK        -0.2404 
    126 C126       -2.5318  -19.2962  -51.2667 C.3       23 UNK        -0.0205 
    127 H127       -2.5907  -10.5281  -49.8256 H         1 UNK         0.0600 
    128 H128       -2.4883  -12.2868  -49.7095 H         1 UNK         0.0600 
    129 H129       -2.5776  -11.5106  -51.2938 H         1 UNK         0.0600 
    130 H130       -0.4298  -12.9607  -49.1874 H         1 UNK         0.3000 
    131 H131        1.9315  -12.0692  -50.5950 H         1 UNK         0.0600 
    132 H132        3.1241  -13.6591  -49.0754 H         1 UNK         0.0800 
    133 H133        1.6824  -13.8610  -48.1155 H         1 UNK         0.0800 
    134 H134        1.3227  -16.2483  -48.1774 H         1 UNK         0.0800 
    135 H135       -0.2156  -15.6301  -48.7278 H         1 UNK         0.0800 
    136 H136       -1.6224  -16.9874  -50.1794 H         1 UNK         0.1150 
    137 H137       -0.3632  -20.9584  -51.1645 H         1 UNK         0.1150 
    138 H138        2.3615  -18.2583  -49.2494 H         1 UNK         0.1150 
    139 H139        2.0057  -21.5507  -50.9502 H         1 UNK         0.0800 
    140 H140        3.1592  -20.3835  -50.3560 H         1 UNK         0.0800 
    141 H141       -0.2013  -21.5504  -48.4561 H         1 UNK         0.0800 
    142 H142        0.3871  -22.8486  -49.4788 H         1 UNK         0.0800 
    143 H143        1.0961  -24.1074  -47.4056 H         1 UNK         0.0600 
    144 H144        0.4001  -21.7183  -46.0305 H         1 UNK         0.3000 
    145 H145        0.0691  -23.2628  -42.7736 H         1 UNK         0.0600 
    146 H146        2.4565  -22.7365  -43.2429 H         1 UNK         0.0600 
    147 H147        1.9888  -21.2530  -44.0615 H         1 UNK         0.0600 
    148 H148        1.6859  -21.4436  -42.3366 H         1 UNK         0.0600 
    149 H149       -0.3933  -20.5799  -43.5648 H         1 UNK         0.3000 
    150 H150       -3.9091  -20.9086  -44.2389 H         1 UNK         0.0600 
    151 H151       -3.6414  -20.7015  -41.7566 H         1 UNK         0.0600 
    152 H152       -3.9671  -19.1456  -42.5060 H         1 UNK         0.0600 
    153 H153       -2.3313  -19.5489  -41.9901 H         1 UNK         0.0600 
    154 H154       -2.2756  -18.6159  -44.3022 H         1 UNK         0.3000 
    155 H155       -1.1407  -18.8984  -47.7005 H         1 UNK         0.0600 
    156 H156       -2.0918  -16.5729  -47.5676 H         1 UNK         0.0600 
    157 H157       -3.3526  -17.7862  -47.6704 H         1 UNK         0.0600 
    158 H158       -3.0039  -17.0300  -46.1313 H         1 UNK         0.0600 
    159 H159       -0.4781  -17.0205  -45.6673 H         1 UNK         0.3000 
    160 H160        2.3699  -18.7189  -44.3462 H         1 UNK         0.0600 
    161 H161        2.1485  -16.1539  -45.9947 H         1 UNK         0.0600 
    162 H162        3.0642  -17.5700  -46.5095 H         1 UNK         0.0600 
    163 H163        3.5211  -16.7164  -45.0445 H         1 UNK         0.0600 
    164 H164        1.1078  -16.1602  -43.8646 H         1 UNK         0.3000 
    165 H165       -0.9666  -17.2899  -41.1773 H         1 UNK         0.0600 
    166 H166        0.2703  -15.4800  -40.0228 H         1 UNK         0.0600 
    167 H167        1.3065  -16.8869  -40.2027 H         1 UNK         0.0600 
    168 H168        1.5238  -15.4992  -41.2635 H         1 UNK         0.0600 
    169 H169       -0.5761  -14.7140  -42.3225 H         1 UNK         0.3000 
    170 H170       -2.6886  -14.9109  -45.0833 H         1 UNK         0.0600 
    171 H171       -4.5295  -14.9588  -43.3933 H         1 UNK         0.0600 
    172 H172       -3.6561  -13.8041  -42.3934 H         1 UNK         0.0600 
    173 H173       -4.2501  -13.3302  -43.9860 H         1 UNK         0.0600 
    174 H174       -1.8586  -12.6368  -43.6334 H         1 UNK         0.3000 
    175 H175       -0.1214  -11.4749  -45.4558 H         1 UNK         0.0600 
    176 H176        0.6097  -12.0217  -42.5304 H         1 UNK         0.0600 
    177 H177        0.8738  -10.4810  -43.3410 H         1 UNK         0.0600 
    178 H178       -0.7543  -11.0850  -43.1303 H         1 UNK         0.0600 
    179 H179        1.9632  -11.7057  -46.0068 H         1 UNK         0.3000 
    180 H180        4.8295  -12.2310  -44.4282 H         1 UNK         0.0600 
    181 H181        4.1797  -14.6001  -46.2587 H         1 UNK         0.0600 
    182 H182        4.8169  -14.7155  -44.6190 H         1 UNK         0.0600 
    183 H183        5.7921  -13.9939  -45.8856 H         1 UNK         0.0600 
    184 H184        4.1676  -12.3976  -47.2626 H         1 UNK         0.3000 
    185 H185        3.4494   -9.0074  -47.7332 H         1 UNK         0.0600 
    186 H186        5.9453   -8.8938  -47.7884 H         1 UNK         0.0600 
    187 H187        6.0125  -10.4482  -48.6099 H         1 UNK         0.0600 
    188 H188        5.2834   -9.0532  -49.4070 H         1 UNK         0.0600 
    189 H189        3.8435  -11.1596  -49.5652 H         1 UNK         0.3000 
    190 H190       -2.1246  -22.6021  -46.8064 H         1 UNK         0.3000 
    191 H191       -3.6423  -24.4611  -48.3131 H         1 UNK         0.0600 
    192 H192       -4.5285  -22.2787  -47.5782 H         1 UNK         0.0600 
    193 H193       -4.4313  -22.7695  -45.8866 H         1 UNK         0.0600 
    194 H194       -5.5566  -23.5709  -46.9784 H         1 UNK         0.0600 
    195 H195       -2.4364  -24.6189  -44.9583 H         1 UNK         0.3000 
    196 H196       -3.8724  -27.0536  -44.3008 H         1 UNK         0.0600 
    197 H197       -2.4467  -26.9777  -42.2502 H         1 UNK         0.0600 
    198 H198       -3.2511  -25.4437  -42.5459 H         1 UNK         0.0600 
    199 H199       -1.5406  -25.6258  -42.9210 H         1 UNK         0.0600 
    200 H200       -0.4042  -26.2995  -45.0182 H         1 UNK         0.3000 
    201 H201        0.3537  -29.0617  -44.7058 H         1 UNK         0.0600 
    202 H202        1.7926  -27.1706  -43.9879 H         1 UNK         0.0600 
    203 H203        1.9707  -26.6452  -45.6609 H         1 UNK         0.0600 
    204 H204        2.6284  -28.1936  -45.1469 H         1 UNK         0.0600 
    205 H205        0.0391  -26.9010  -47.5712 H         1 UNK         0.3000 
    206 H206        0.9891  -29.1037  -49.3522 H         1 UNK         0.0600 
    207 H207        2.2690  -26.9554  -49.3666 H         1 UNK         0.0600 
    208 H208        1.5063  -27.2752  -50.9153 H         1 UNK         0.0600 
    209 H209        0.8099  -26.0829  -49.8300 H         1 UNK         0.0600 
    210 H210       -1.8791  -27.6061  -48.3475 H         1 UNK         0.3000 
    211 H211       -3.9944  -27.4925  -49.0268 H         1 UNK         0.0600 
    212 H212       -3.3716  -29.6553  -51.0971 H         1 UNK         0.0600 
    213 H213       -4.9559  -29.1953  -50.4935 H         1 UNK         0.0600 
    214 H214       -3.8008  -29.9580  -49.4137 H         1 UNK         0.0600 
    215 H215       -2.1443  -25.6226  -49.9890 H         1 UNK         0.3000 
    216 H216       -2.3984  -25.0894  -52.7783 H         1 UNK         0.0600 
    217 H217       -1.6397  -23.1892  -50.5007 H         1 UNK         0.0600 
    218 H218       -1.2288  -22.9980  -52.1999 H         1 UNK         0.0600 
    219 H219       -0.5130  -24.3109  -51.2773 H         1 UNK         0.0600 
    220 H220       -3.3662  -23.2527  -53.8132 H         1 UNK         0.3000 
    221 H221       -5.3154  -21.6106  -52.4635 H         1 UNK         0.0600 
    222 H222       -6.1808  -23.4634  -54.7636 H         1 UNK         0.0600 
    223 H223       -6.7644  -23.5517  -53.1023 H         1 UNK         0.0600 
    224 H224       -7.1475  -22.1530  -54.0942 H         1 UNK         0.0600 
    225 H225       -5.5914  -19.6729  -53.6088 H         1 UNK         0.3000 
    226 H226       -4.8540  -19.0094  -56.1920 H         1 UNK         0.0600 
    227 H227       -2.4510  -19.4013  -55.4669 H         1 UNK         0.0600 
    228 H228       -2.7425  -17.7020  -55.7378 H         1 UNK         0.0600 
    229 H229       -2.6869  -18.3236  -54.0971 H         1 UNK         0.0600 
    230 H230       -4.6140  -16.4306  -56.1629 H         1 UNK         0.3000 
    231 H231       -6.8998  -15.3291  -54.9495 H         1 UNK         0.0600 
    232 H232       -5.9888  -13.1684  -55.8231 H         1 UNK         0.0600 
    233 H233       -5.8742  -14.4441  -57.0239 H         1 UNK         0.0600 
    234 H234       -4.4373  -13.9379  -56.1339 H         1 UNK         0.0600 
    235 H235       -3.6202  -15.5448  -53.7070 H         1 UNK         0.3000 
    236 H236       -3.9871  -13.6573  -51.5202 H         1 UNK         0.0600 
    237 H237       -1.7553  -13.9911  -52.4611 H         1 UNK         0.0600 
    238 H238       -1.7449  -14.5901  -50.8128 H         1 UNK         0.0600 
    239 H239       -1.8191  -15.7239  -52.1583 H         1 UNK         0.0600 
    240 H240       -4.9420  -16.9305  -52.0372 H         1 UNK         0.3000 
    241 H241       -5.2698  -17.4948  -49.1272 H         1 UNK         0.0600 
    242 H242       -7.1504  -17.2322  -52.2477 H         1 UNK         0.3800 
    243 H243       -8.6760  -17.0091  -51.4202 H         1 UNK         0.3800 
    244 H244       -5.9934  -19.8174  -50.0299 H         1 UNK         0.0800 
    245 H245       -5.3316  -19.3391  -51.5664 H         1 UNK         0.0800 
    246 H246       -2.5199  -20.1242  -51.9771 H         1 UNK         0.0800 
    247 H247       -2.9058  -18.4267  -51.8042 H         1 UNK         0.0800 
@<TRIPOS>BOND
     1    1    2 1    
     2    1  127 1    
     3    1  128 1    
     4    1  129 1    
     5    2    3 2    
     6    2    4 am   BACKBONE|DICT|INTERRES
     7    4    5 1    
     8    4  130 1    
     9    5    6 1    
    10    5   65 1    
    11    5  131 1    
    12    6    7 1    
    13    6  132 1    
    14    6  133 1    
    15    7    8 1    
    16    8    9 1    
    17    8  134 1    
    18    8  135 1    
    19    9   10 ar   
    20    9   14 ar   
    21   10   11 ar   
    22   10  136 1    
    23   11   12 ar   
    24   11  126 1    
    25   12   13 ar   
    26   12  137 1    
    27   13   14 ar   
    28   13   15 1    
    29   14  138 1    
    30   15   16 1    
    31   15  139 1    
    32   15  140 1    
    33   16   17 1    
    34   17   18 1    
    35   17  141 1    
    36   17  142 1    
    37   18   19 1    
    38   18   67 1    
    39   18  143 1    
    40   19   20 am   BACKBONE|DICT|INTERRES
    41   19  144 1    
    42   20   21 2    
    43   20   22 1    
    44   22   23 1    
    45   22   24 1    
    46   22  145 1    
    47   23  146 1    
    48   23  147 1    
    49   23  148 1    
    50   24   25 am   BACKBONE|DICT|INTERRES
    51   24  149 1    
    52   25   26 2    
    53   25   27 1    
    54   27   28 1    
    55   27   29 1    
    56   27  150 1    
    57   28  151 1    
    58   28  152 1    
    59   28  153 1    
    60   29   30 am   BACKBONE|DICT|INTERRES
    61   29  154 1    
    62   30   31 2    
    63   30   32 1    
    64   32   33 1    
    65   32   34 1    
    66   32  155 1    
    67   33  156 1    
    68   33  157 1    
    69   33  158 1    
    70   34   35 am   BACKBONE|DICT|INTERRES
    71   34  159 1    
    72   35   36 2    
    73   35   37 1    
    74   37   38 1    
    75   37   39 1    
    76   37  160 1    
    77   38  161 1    
    78   38  162 1    
    79   38  163 1    
    80   39   40 am   BACKBONE|DICT|INTERRES
    81   39  164 1    
    82   40   41 2    
    83   40   42 1    
    84   42   43 1    
    85   42   44 1    
    86   42  165 1    
    87   43  166 1    
    88   43  167 1    
    89   43  168 1    
    90   44   45 am   BACKBONE|DICT|INTERRES
    91   44  169 1    
    92   45   46 2    
    93   45   47 1    
    94   47   48 1    
    95   47   49 1    
    96   47  170 1    
    97   48  171 1    
    98   48  172 1    
    99   48  173 1    
   100   49   50 am   BACKBONE|DICT|INTERRES
   101   49  174 1    
   102   50   51 2    
   103   50   52 1    
   104   52   53 1    
   105   52   54 1    
   106   52  175 1    
   107   53  176 1    
   108   53  177 1    
   109   53  178 1    
   110   54   55 am   BACKBONE|DICT|INTERRES
   111   54  179 1    
   112   55   56 2    
   113   55   57 1    
   114   57   58 1    
   115   57   59 1    
   116   57  180 1    
   117   58  181 1    
   118   58  182 1    
   119   58  183 1    
   120   59   60 am   BACKBONE|DICT|INTERRES
   121   59  184 1    
   122   60   61 2    
   123   60   62 1    
   124   62   63 1    
   125   62   64 1    
   126   62  185 1    
   127   63  186 1    
   128   63  187 1    
   129   63  188 1    
   130   64   65 am   BACKBONE|DICT|INTERRES
   131   64  189 1    
   132   65   66 2    
   133   67   68 2    
   134   67   69 am   BACKBONE|DICT|INTERRES
   135   69   70 1    
   136   69  190 1    
   137   70   71 1    
   138   70   72 1    
   139   70  191 1    
   140   71  192 1    
   141   71  193 1    
   142   71  194 1    
   143   72   73 2    
   144   72   74 am   BACKBONE|DICT|INTERRES
   145   74   75 1    
   146   74  195 1    
   147   75   76 1    
   148   75   77 1    
   149   75  196 1    
   150   76  197 1    
   151   76  198 1    
   152   76  199 1    
   153   77   78 2    
   154   77   79 am   BACKBONE|DICT|INTERRES
   155   79   80 1    
   156   79  200 1    
   157   80   81 1    
   158   80   82 1    
   159   80  201 1    
   160   81  202 1    
   161   81  203 1    
   162   81  204 1    
   163   82   83 2    
   164   82   84 am   BACKBONE|DICT|INTERRES
   165   84   85 1    
   166   84  205 1    
   167   85   86 1    
   168   85   87 1    
   169   85  206 1    
   170   86  207 1    
   171   86  208 1    
   172   86  209 1    
   173   87   88 2    
   174   87   89 am   BACKBONE|DICT|INTERRES
   175   89   90 1    
   176   89  210 1    
   177   90   91 1    
   178   90   92 1    
   179   90  211 1    
   180   91  212 1    
   181   91  213 1    
   182   91  214 1    
   183   92   93 2    
   184   92   94 am   BACKBONE|DICT|INTERRES
   185   94   95 1    
   186   94  215 1    
   187   95   96 1    
   188   95   97 1    
   189   95  216 1    
   190   96  217 1    
   191   96  218 1    
   192   96  219 1    
   193   97   98 2    
   194   97   99 am   BACKBONE|DICT|INTERRES
   195   99  100 1    
   196   99  220 1    
   197  100  101 1    
   198  100  102 1    
   199  100  221 1    
   200  101  222 1    
   201  101  223 1    
   202  101  224 1    
   203  102  103 2    
   204  102  104 am   BACKBONE|DICT|INTERRES
   205  104  105 1    
   206  104  225 1    
   207  105  106 1    
   208  105  107 1    
   209  105  226 1    
   210  106  227 1    
   211  106  228 1    
   212  106  229 1    
   213  107  108 2    
   214  107  109 am   BACKBONE|DICT|INTERRES
   215  109  110 1    
   216  109  230 1    
   217  110  111 1    
   218  110  112 1    
   219  110  231 1    
   220  111  232 1    
   221  111  233 1    
   222  111  234 1    
   223  112  113 2    
   224  112  114 am   BACKBONE|DICT|INTERRES
   225  114  115 1    
   226  114  235 1    
   227  115  116 1    
   228  115  117 1    
   229  115  236 1    
   230  116  237 1    
   231  116  238 1    
   232  116  239 1    
   233  117  118 2    
   234  117  119 am   BACKBONE|DICT|INTERRES
   235  119  120 1    
   236  119  240 1    
   237  120  121 1    
   238  120  124 1    
   239  120  241 1    
   240  121  122 am   BACKBONE|DICT|INTERRES
   241  121  123 2    
   242  122  242 1    
   243  122  243 1    
   244  124  125 1    
   245  124  244 1    
   246  124  245 1    
   247  125  126 1    
   248  126  246 1    
   249  126  247 1    
@<TRIPOS>SUBSTRUCTURE
     1 UNK         1 GROUP             0       ****    0 ROOT    
