@<TRIPOS>MOLECULE
3R540
247   249    1
SMALL
USER_CHARGES


@<TRIPOS>ATOM
      1 CA         -2.6695  -12.8942  -47.9763 C.3       0 UNK        -0.1800 
      2 C          -1.9503  -11.8324  -47.1500 C.2       0 UNK         0.5000 
      3 O          -2.4355  -10.7064  -47.0611 O.2       0 UNK        -0.5000 
      4 N          -0.7935  -12.1242  -46.5433 N.am      1 UNK        -0.5000 
      5 CA         -0.0764  -13.4041  -46.5478 C.3       1 UNK         0.1400 
      6 C6         -0.1033  -14.0973  -45.1611 C.3       23 UNK        -0.0398 
      7 S7         -1.7428  -14.8133  -44.8192 S.3       23 UNK        -0.2404 
      8 C8         -1.4963  -16.4964  -45.4666 C.3       23 UNK        -0.0205 
      9 C9         -2.7636  -17.0365  -46.1089 C.ar      23 UNK        -0.0193 
     10 C10        -2.8906  -17.0621  -47.5024 C.ar      23 UNK        -0.1150 
     11 C11        -4.0478  -17.5676  -48.1013 C.ar      23 UNK        -0.0193 
     12 C12        -5.0889  -18.0283  -47.2930 C.ar      23 UNK        -0.1150 
     13 C13        -4.9669  -18.0292  -45.8998 C.ar      23 UNK        -0.0193 
     14 C14        -3.8011  -17.5300  -45.3130 C.ar      23 UNK        -0.1150 
     15 C15        -6.0946  -18.5674  -45.0300 C.3       23 UNK        -0.0205 
     16 S16        -5.8085  -20.2914  -44.5058 S.3       23 UNK        -0.2404 
     17 C17        -5.8468  -21.1848  -46.1041 C.3       23 UNK        -0.0398 
     18 CA         -4.5339  -21.9332  -46.4585 C.3       11 UNK         0.1400 
     19 N          -3.3270  -21.1768  -46.1026 N.am      11 UNK        -0.5000 
     20 C          -2.0670  -21.5594  -46.3441 C.2       10 UNK         0.5000 
     21 O          -1.7797  -22.5359  -47.0336 O.2       10 UNK        -0.5000 
     22 CA         -0.9343  -20.7665  -45.6686 C.3       10 UNK         0.1400 
     23 CB         -0.2891  -19.7729  -46.6423 C.3       10 UNK        -0.1800 
     24 N          -1.3298  -20.0571  -44.4515 N.am      10 UNK        -0.5000 
     25 C          -1.8419  -20.6151  -43.3482 C.2       9 UNK         0.5000 
     26 O          -2.1268  -21.8111  -43.2533 O.2       9 UNK        -0.5000 
     27 CA         -2.0045  -19.6818  -42.1360 C.3       9 UNK         0.1400 
     28 CB         -3.2131  -20.0754  -41.2704 C.3       9 UNK        -0.1800 
     29 N          -0.7950  -19.7175  -41.3166 N.am      9 UNK        -0.5000 
     30 C           0.3936  -19.2178  -41.6781 C.2       8 UNK         0.5000 
     31 O           0.5779  -18.5496  -42.6998 O.2       8 UNK        -0.5000 
     32 CA          1.5731  -19.5482  -40.7538 C.3       8 UNK         0.1400 
     33 CB          1.8883  -21.0572  -40.7711 C.3       8 UNK        -0.1800 
     34 N           2.7469  -18.8035  -41.1933 N.am      8 UNK        -0.5000 
     35 C           3.7874  -18.4647  -40.4263 C.2       7 UNK         0.5000 
     36 O           3.8605  -18.7301  -39.2254 O.2       7 UNK        -0.5000 
     37 CA          4.9582  -17.7272  -41.1047 C.3       7 UNK         0.1400 
     38 CB          6.1736  -18.6603  -41.2309 C.3       7 UNK        -0.1800 
     39 N           4.6420  -17.1984  -42.4343 N.am      7 UNK        -0.5000 
     40 C           3.9731  -16.0603  -42.6681 C.2       6 UNK         0.5000 
     41 O           3.4737  -15.3720  -41.7776 O.2       6 UNK        -0.5000 
     42 CA          3.8679  -15.5932  -44.1323 C.3       6 UNK         0.1400 
     43 CB          4.8659  -14.4512  -44.3866 C.3       6 UNK        -0.1800 
     44 N           4.1449  -16.6732  -45.0845 N.am      6 UNK        -0.5000 
     45 C           3.2138  -17.3089  -45.8041 C.2       5 UNK         0.5000 
     46 O           2.0090  -17.0512  -45.7718 O.2       5 UNK        -0.5000 
     47 CA          3.7138  -18.4443  -46.7051 C.3       5 UNK         0.1400 
     48 CB          3.6929  -19.7890  -45.9556 C.3       5 UNK        -0.1800 
     49 N           2.8535  -18.5191  -47.8799 N.am      5 UNK        -0.5000 
     50 C           3.2298  -18.9474  -49.0902 C.2       4 UNK         0.5000 
     51 O           4.3612  -19.3590  -49.3454 O.2       4 UNK        -0.5000 
     52 CA          2.1789  -18.8977  -50.2183 C.3       4 UNK         0.1400 
     53 CB          1.6773  -20.3161  -50.5307 C.3       4 UNK        -0.1800 
     54 N           1.0259  -18.0447  -49.9010 N.am      4 UNK        -0.5000 
     55 C           0.9522  -16.7071  -49.9729 C.2       3 UNK         0.5000 
     56 O          -0.0634  -16.1061  -49.6171 O.2       3 UNK        -0.5000 
     57 CA          2.1410  -15.8894  -50.5196 C.3       3 UNK         0.1400 
     58 CB          2.1070  -15.8007  -52.0552 C.3       3 UNK        -0.1800 
     59 N           2.0382  -14.5495  -49.9619 N.am      3 UNK        -0.5000 
     60 C           3.0382  -13.6902  -49.7359 C.2       2 UNK         0.5000 
     61 O           4.2105  -13.9058  -50.0444 O.2       2 UNK        -0.5000 
     62 CA          2.6610  -12.3686  -49.0322 C.3       2 UNK         0.1400 
     63 CB          2.4816  -11.2424  -50.0616 C.3       2 UNK        -0.1800 
     64 N           1.4330  -12.4907  -48.2400 N.am      2 UNK        -0.5000 
     65 C           1.3456  -13.1742  -47.0899 C.2       1 UNK         0.5000 
     66 O           2.3256  -13.6184  -46.4940 O.2       1 UNK        -0.5000 
     67 C          -4.5476  -23.3636  -45.8786 C.2       11 UNK         0.5000 
     68 O          -5.0103  -24.2788  -46.5596 O.2       11 UNK        -0.5000 
     69 N          -4.0223  -23.5316  -44.6594 N.am      12 UNK        -0.5000 
     70 CA         -3.8733  -24.8228  -43.9964 C.3       12 UNK         0.1400 
     71 CB         -4.2009  -24.6606  -42.5033 C.3       12 UNK        -0.1800 
     72 C          -2.4511  -25.3744  -44.1797 C.2       12 UNK         0.5000 
     73 O          -2.2931  -26.5637  -44.4554 O.2       12 UNK        -0.5000 
     74 N          -1.4425  -24.5081  -44.0091 N.am      13 UNK        -0.5000 
     75 CA         -0.0322  -24.8948  -43.9535 C.3       13 UNK         0.1400 
     76 CB          0.7673  -23.7795  -43.2605 C.3       13 UNK        -0.1800 
     77 C           0.5922  -25.2478  -45.3173 C.2       13 UNK         0.5000 
     78 O           1.5333  -26.0421  -45.3470 O.2       13 UNK        -0.5000 
     79 N           0.0897  -24.6530  -46.4076 N.am      14 UNK        -0.5000 
     80 CA          0.6604  -24.7748  -47.7539 C.3       14 UNK         0.1400 
     81 CB          1.4336  -23.4811  -48.0700 C.3       14 UNK        -0.1800 
     82 C          -0.3944  -25.0630  -48.8401 C.2       14 UNK         0.5000 
     83 O          -0.0236  -25.1782  -50.0088 O.2       14 UNK        -0.5000 
     84 N          -1.6782  -25.1523  -48.4555 N.am      15 UNK        -0.5000 
     85 CA         -2.8582  -25.2577  -49.3265 C.3       15 UNK         0.1400 
     86 CB         -2.8790  -26.6039  -50.0793 C.3       15 UNK        -0.1800 
     87 C          -3.0199  -24.0411  -50.2665 C.2       15 UNK         0.5000 
     88 O          -3.4948  -24.1800  -51.3960 O.2       15 UNK        -0.5000 
     89 N          -2.6279  -22.8546  -49.7795 N.am      16 UNK        -0.5000 
     90 CA         -2.5472  -21.6104  -50.5487 C.3       16 UNK         0.1400 
     91 CB         -1.9235  -20.5193  -49.6750 C.3       16 UNK        -0.1800 
     92 C          -3.8882  -21.1161  -51.1117 C.2       16 UNK         0.5000 
     93 O          -3.8880  -20.4197  -52.1249 O.2       16 UNK        -0.5000 
     94 N          -4.9983  -21.4815  -50.4577 N.am      17 UNK        -0.5000 
     95 CA         -6.3574  -21.1699  -50.9004 C.3       17 UNK         0.1400 
     96 CB         -7.3297  -21.3473  -49.7255 C.3       17 UNK        -0.1800 
     97 C          -6.7986  -22.0187  -52.1069 C.2       17 UNK         0.5000 
     98 O          -7.5705  -21.5312  -52.9320 O.2       17 UNK        -0.5000 
     99 N          -6.2850  -23.2540  -52.2086 N.am      18 UNK        -0.5000 
    100 CA        -6.5096  -24.1434  -53.3502 C.3       18 UNK         0.1400 
    101 CB        -6.2377  -25.5985  -52.9377 C.3       18 UNK        -0.1800 
    102 C         -5.6371  -23.7373  -54.5503 C.2       18 UNK         0.5000 
    103 O         -6.0978  -23.8033  -55.6903 O.2       18 UNK        -0.5000 
    104 N         -4.4071  -23.2856  -54.2654 N.am      19 UNK        -0.5000 
    105 CA        -3.4859  -22.7043  -55.2447 C.3       19 UNK         0.1400 
    106 CB        -2.0806  -22.6469  -54.6257 C.3       19 UNK        -0.1800 
    107 C         -3.9136  -21.2993  -55.7201 C.2       19 UNK         0.5000 
    108 O         -3.4995  -20.8771  -56.8000 O.2       19 UNK        -0.5000 
    109 N         -4.7089  -20.6043  -54.8922 N.am      20 UNK        -0.5000 
    110 CA        -5.1500  -19.2104  -55.0115 C.3       20 UNK         0.1400 
    111 CB        -6.0589  -19.0179  -56.2425 C.3       20 UNK        -0.1800 
    112 C         -3.9717  -18.2140  -54.9602 C.2       20 UNK         0.5000 
    113 O         -4.0043  -17.1761  -55.6243 O.2       20 UNK        -0.5000 
    114 N         -2.9462  -18.5481  -54.1630 N.am      21 UNK        -0.5000 
    115 CA        -1.6752  -17.8242  -54.0703 C.3       21 UNK         0.1400 
    116 CB        -0.6848  -18.6519  -53.2387 C.3       21 UNK        -0.1800 
    117 C         -1.8159  -16.4042  -53.4925 C.2       21 UNK         0.5000 
    118 O         -1.0677  -15.5105  -53.8881 O.2       21 UNK        -0.5000 
    119 N         -2.7902  -16.2229  -52.5946 N.am      22 UNK        -0.5000 
    120 CA        -3.1927  -14.9253  -52.0325 C.3       22 UNK         0.1400 
    121 C         -4.1680  -14.1084  -52.9348 C.2       22 UNK         0.5000 
    122 N         -4.5683  -14.5878  -54.1080 N.am      22 UNK        -0.7600 
    123 O         -4.5561  -13.0009  -52.5732 O.2       22 UNK        -0.5000 
    124 C124       -3.6999  -15.0645  -50.5718 C.3       23 UNK        -0.0398 
    125 S125       -5.0545  -16.2710  -50.3551 S.3       23 UNK        -0.2404 
    126 C126       -4.1653  -17.6735  -49.6155 C.3       23 UNK        -0.0205 
    127 H127       -2.8919  -13.7780  -47.3786 H         1 UNK         0.0600 
    128 H128       -2.0610  -13.1888  -48.8310 H         1 UNK         0.0600 
    129 H129       -3.6148  -12.5054  -48.3551 H         1 UNK         0.0600 
    130 H130       -0.3302  -11.3886  -46.0279 H         1 UNK         0.3000 
    131 H131       -0.5174  -14.0974  -47.2652 H         1 UNK         0.0600 
    132 H132        0.1507  -13.3907  -44.3698 H         1 UNK         0.0800 
    133 H133        0.6321  -14.8993  -45.0936 H         1 UNK         0.0800 
    134 H134       -1.1741  -17.1444  -44.6514 H         1 UNK         0.0800 
    135 H135       -0.6868  -16.5056  -46.1986 H         1 UNK         0.0800 
    136 H136       -2.0814  -16.7018  -48.1202 H         1 UNK         0.1150 
    137 H137       -5.9906  -18.4016  -47.7570 H         1 UNK         0.1150 
    138 H138       -3.7046  -17.5179  -44.2365 H         1 UNK         0.1150 
    139 H139       -7.0481  -18.5026  -45.5565 H         1 UNK         0.0800 
    140 H140       -6.1977  -17.9427  -44.1415 H         1 UNK         0.0800 
    141 H141       -6.0711  -20.4802  -46.8986 H         1 UNK         0.0800 
    142 H142       -6.7041  -21.8611  -46.0989 H         1 UNK         0.0800 
    143 H143       -4.5118  -22.0512  -47.5429 H         1 UNK         0.0600 
    144 H144       -3.4798  -20.3589  -45.5298 H         1 UNK         0.3000 
    145 H145       -0.1681  -21.4868  -45.3823 H         1 UNK         0.0600 
    146 H146        0.4236  -19.1289  -46.1297 H         1 UNK         0.0600 
    147 H147       -1.0288  -19.1356  -47.1243 H         1 UNK         0.0600 
    148 H148        0.2626  -20.2968  -47.4212 H         1 UNK         0.0600 
    149 H149       -1.0353  -19.0929  -44.3895 H         1 UNK         0.3000 
    150 H150       -2.1616  -18.6620  -42.4940 H         1 UNK         0.0600 
    151 H151       -3.1034  -21.0751  -40.8477 H         1 UNK         0.0600 
    152 H152       -4.1317  -20.0677  -41.8583 H         1 UNK         0.0600 
    153 H153       -3.3507  -19.3765  -40.4454 H         1 UNK         0.0600 
    154 H154       -0.8520  -20.2684  -40.4724 H         1 UNK         0.3000 
    155 H155        1.3022  -19.2386  -39.7422 H         1 UNK         0.0600 
    156 H156        2.1503  -21.3986  -41.7734 H         1 UNK         0.0600 
    157 H157        1.0357  -21.6479  -40.4350 H         1 UNK         0.0600 
    158 H158        2.7218  -21.2956  -40.1101 H         1 UNK         0.0600 
    159 H159        2.7071  -18.4866  -42.1537 H         1 UNK         0.3000 
    160 H160        5.2368  -16.8948  -40.4548 H         1 UNK         0.0600 
    161 H161        5.9593  -19.5155  -41.8732 H         1 UNK         0.0600 
    162 H162        6.4726  -19.0490  -40.2565 H         1 UNK         0.0600 
    163 H163        7.0340  -18.1345  -41.6454 H         1 UNK         0.0600 
    164 H164        5.0027  -17.7177  -43.2193 H         1 UNK         0.3000 
    165 H165        2.8598  -15.2022  -44.2782 H         1 UNK         0.0600 
    166 H166        4.6634  -13.6025  -43.7321 H         1 UNK         0.0600 
    167 H167        5.8951  -14.7659  -44.2097 H         1 UNK         0.0600 
    168 H168        4.7984  -14.0902  -45.4129 H         1 UNK         0.0600 
    169 H169        5.1153  -16.9249  -45.2058 H         1 UNK         0.3000 
    170 H170        4.7357  -18.2158  -47.0157 H         1 UNK         0.0600 
    171 H171        2.6881  -20.0472  -45.6189 H         1 UNK         0.0600 
    172 H172        4.3357  -19.7579  -45.0753 H         1 UNK         0.0600 
    173 H173        4.0503  -20.6006  -46.5896 H         1 UNK         0.0600 
    174 H174        1.9254  -18.1411  -47.7406 H         1 UNK         0.3000 
    175 H175        2.6734  -18.5243  -51.1153 H         1 UNK         0.0600 
    176 H176        2.4915  -20.9435  -50.8957 H         1 UNK         0.0600 
    177 H177        1.2711  -20.8026  -49.6454 H         1 UNK         0.0600 
    178 H178        0.9058  -20.3098  -51.3004 H         1 UNK         0.0600 
    179 H179        0.2165  -18.5322  -49.5522 H         1 UNK         0.3000 
    180 H180        3.0817  -16.3315  -50.1908 H         1 UNK         0.0600 
    181 H181        1.1907  -15.3244  -52.4048 H         1 UNK         0.0600 
    182 H182        2.1615  -16.7847  -52.5190 H         1 UNK         0.0600 
    183 H183        2.9475  -15.2196  -52.4348 H         1 UNK         0.0600 
    184 H184        1.1054  -14.3188  -49.6457 H         1 UNK         0.3000 
    185 H185        3.4833  -12.0982  -48.3661 H         1 UNK         0.0600 
    186 H186        3.3885  -11.1060  -50.6523 H         1 UNK         0.0600 
    187 H187        1.6673  -11.4559  -50.7553 H         1 UNK         0.0600 
    188 H188        2.2673  -10.2917  -49.5731 H         1 UNK         0.0600 
    189 H189        0.5915  -12.1078  -48.6456 H         1 UNK         0.3000 
    190 H190       -3.6176  -22.7325  -44.1825 H         1 UNK         0.3000 
    191 H191       -4.5738  -25.5486  -44.4151 H         1 UNK         0.0600 
    192 H192       -5.2265  -24.3194  -42.3622 H         1 UNK         0.0600 
    193 H193       -4.0978  -25.6094  -41.9753 H         1 UNK         0.0600 
    194 H194       -3.5409  -23.9401  -42.0182 H         1 UNK         0.0600 
    195 H195       -1.6622  -23.5480  -43.7566 H         1 UNK         0.3000 
    196 H196        0.0437  -25.7871  -43.3280 H         1 UNK         0.0600 
    197 H197        1.8137  -24.0640  -43.1428 H         1 UNK         0.0600 
    198 H198        0.3740  -23.5733  -42.2649 H         1 UNK         0.0600 
    199 H199        0.7449  -22.8493  -43.8258 H         1 UNK         0.0600 
    200 H200       -0.6726  -23.9913  -46.3114 H         1 UNK         0.3000 
    201 H201        1.3625  -25.6097  -47.7957 H         1 UNK         0.0600 
    202 H202        1.9116  -23.5328  -49.0490 H         1 UNK         0.0600 
    203 H203        2.2189  -23.2999  -47.3361 H         1 UNK         0.0600 
    204 H204        0.7725  -22.6149  -48.0730 H         1 UNK         0.0600 
    205 H205       -1.8755  -25.0381  -47.4724 H         1 UNK         0.3000 
    206 H206       -3.7256  -25.2436  -48.6671 H         1 UNK         0.0600 
    207 H207       -2.7610  -27.4417  -49.3923 H         1 UNK         0.0600 
    208 H208       -3.8266  -26.7442  -50.6007 H         1 UNK         0.0600 
    209 H209       -2.0862  -26.6658  -50.8251 H         1 UNK         0.0600 
    210 H210       -2.2549  -22.8261  -48.8341 H         1 UNK         0.3000 
    211 H211       -1.8799  -21.7935  -51.3925 H         1 UNK         0.0600 
    212 H212       -1.7092  -19.6233  -50.2536 H         1 UNK         0.0600 
    213 H213       -0.9857  -20.8641  -49.2477 H         1 UNK         0.0600 
    214 H214       -2.5863  -20.2294  -48.8596 H         1 UNK         0.0600 
    215 H215       -4.9020  -22.0682  -49.6442 H         1 UNK         0.3000 
    216 H216       -6.3903  -20.1225  -51.2095 H         1 UNK         0.0600 
    217 H217       -7.1255  -20.6223  -48.9394 H         1 UNK         0.0600 
    218 H218       -7.2682  -22.3469  -49.2937 H         1 UNK         0.0600 
    219 H219       -8.3613  -21.1892  -50.0433 H         1 UNK         0.0600 
    220 H220       -5.6062  -23.5646  -51.5263 H         1 UNK         0.3000 
    221 H221       -7.5564  -24.0700  -53.6534 H         1 UNK         0.0600 
    222 H222       -5.1954  -25.7567  -52.6609 H         1 UNK         0.0600 
    223 H223       -6.8582  -25.8912  -52.0907 H         1 UNK         0.0600 
    224 H224       -6.4634  -26.2815  -53.7575 H         1 UNK         0.0600 
    225 H225       -4.0875  -23.3351  -53.3051 H         1 UNK         0.3000 
    226 H226       -3.4520  -23.3582  -56.1187 H         1 UNK         0.0600 
    227 H227       -1.7524  -23.6322  -54.2939 H         1 UNK         0.0600 
    228 H228       -1.3495  -22.2867  -55.3506 H         1 UNK         0.0600 
    229 H229       -2.0472  -21.9751  -53.7682 H         1 UNK         0.0600 
    230 H230       -4.9246  -21.0373  -54.0047 H         1 UNK         0.3000 
    231 H231       -5.7521  -19.0094  -54.1242 H         1 UNK         0.0600 
    232 H232       -5.5086  -19.1326  -57.1766 H         1 UNK         0.0600 
    233 H233       -6.5043  -18.0225  -56.2467 H         1 UNK         0.0600 
    234 H234       -6.8768  -19.7386  -56.2433 H         1 UNK         0.0600 
    235 H235       -3.0515  -19.3754  -53.5844 H         1 UNK         0.3000 
    236 H236       -1.2753  -17.7302  -55.0820 H         1 UNK         0.0600 
    237 H237       -1.0173  -18.7494  -52.2069 H         1 UNK         0.0600 
    238 H238       -0.5592  -19.6538  -53.6497 H         1 UNK         0.0600 
    239 H239        0.2986  -18.1821  -53.2218 H         1 UNK         0.0600 
    240 H240       -3.3790  -17.0071  -52.3564 H         1 UNK         0.3000 
    241 H241       -2.2964  -14.3046  -51.9761 H         1 UNK         0.0600 
    242 H242       -4.2418  -15.4801  -54.4588 H         1 UNK         0.3800 
    243 H243       -5.1919  -14.0346  -54.6740 H         1 UNK         0.3800 
    244 H244       -2.8641  -15.3439  -49.9304 H         1 UNK         0.0800 
    245 H245       -4.0445  -14.1023  -50.1922 H         1 UNK         0.0800 
    246 H246       -4.7055  -18.5859  -49.8670 H         1 UNK         0.0800 
    247 H247       -3.1794  -17.7692  -50.0712 H         1 UNK         0.0800 
@<TRIPOS>BOND
     1    1    2 1    
     2    1  127 1    
     3    1  128 1    
     4    1  129 1    
     5    2    3 2    
     6    2    4 am   BACKBONE|DICT|INTERRES
     7    4    5 1    
     8    4  130 1    
     9    5    6 1    
    10    5   65 1    
    11    5  131 1    
    12    6    7 1    
    13    6  132 1    
    14    6  133 1    
    15    7    8 1    
    16    8    9 1    
    17    8  134 1    
    18    8  135 1    
    19    9   10 ar   
    20    9   14 ar   
    21   10   11 ar   
    22   10  136 1    
    23   11   12 ar   
    24   11  126 1    
    25   12   13 ar   
    26   12  137 1    
    27   13   14 ar   
    28   13   15 1    
    29   14  138 1    
    30   15   16 1    
    31   15  139 1    
    32   15  140 1    
    33   16   17 1    
    34   17   18 1    
    35   17  141 1    
    36   17  142 1    
    37   18   19 1    
    38   18   67 1    
    39   18  143 1    
    40   19   20 am   BACKBONE|DICT|INTERRES
    41   19  144 1    
    42   20   21 2    
    43   20   22 1    
    44   22   23 1    
    45   22   24 1    
    46   22  145 1    
    47   23  146 1    
    48   23  147 1    
    49   23  148 1    
    50   24   25 am   BACKBONE|DICT|INTERRES
    51   24  149 1    
    52   25   26 2    
    53   25   27 1    
    54   27   28 1    
    55   27   29 1    
    56   27  150 1    
    57   28  151 1    
    58   28  152 1    
    59   28  153 1    
    60   29   30 am   BACKBONE|DICT|INTERRES
    61   29  154 1    
    62   30   31 2    
    63   30   32 1    
    64   32   33 1    
    65   32   34 1    
    66   32  155 1    
    67   33  156 1    
    68   33  157 1    
    69   33  158 1    
    70   34   35 am   BACKBONE|DICT|INTERRES
    71   34  159 1    
    72   35   36 2    
    73   35   37 1    
    74   37   38 1    
    75   37   39 1    
    76   37  160 1    
    77   38  161 1    
    78   38  162 1    
    79   38  163 1    
    80   39   40 am   BACKBONE|DICT|INTERRES
    81   39  164 1    
    82   40   41 2    
    83   40   42 1    
    84   42   43 1    
    85   42   44 1    
    86   42  165 1    
    87   43  166 1    
    88   43  167 1    
    89   43  168 1    
    90   44   45 am   BACKBONE|DICT|INTERRES
    91   44  169 1    
    92   45   46 2    
    93   45   47 1    
    94   47   48 1    
    95   47   49 1    
    96   47  170 1    
    97   48  171 1    
    98   48  172 1    
    99   48  173 1    
   100   49   50 am   BACKBONE|DICT|INTERRES
   101   49  174 1    
   102   50   51 2    
   103   50   52 1    
   104   52   53 1    
   105   52   54 1    
   106   52  175 1    
   107   53  176 1    
   108   53  177 1    
   109   53  178 1    
   110   54   55 am   BACKBONE|DICT|INTERRES
   111   54  179 1    
   112   55   56 2    
   113   55   57 1    
   114   57   58 1    
   115   57   59 1    
   116   57  180 1    
   117   58  181 1    
   118   58  182 1    
   119   58  183 1    
   120   59   60 am   BACKBONE|DICT|INTERRES
   121   59  184 1    
   122   60   61 2    
   123   60   62 1    
   124   62   63 1    
   125   62   64 1    
   126   62  185 1    
   127   63  186 1    
   128   63  187 1    
   129   63  188 1    
   130   64   65 am   BACKBONE|DICT|INTERRES
   131   64  189 1    
   132   65   66 2    
   133   67   68 2    
   134   67   69 am   BACKBONE|DICT|INTERRES
   135   69   70 1    
   136   69  190 1    
   137   70   71 1    
   138   70   72 1    
   139   70  191 1    
   140   71  192 1    
   141   71  193 1    
   142   71  194 1    
   143   72   73 2    
   144   72   74 am   BACKBONE|DICT|INTERRES
   145   74   75 1    
   146   74  195 1    
   147   75   76 1    
   148   75   77 1    
   149   75  196 1    
   150   76  197 1    
   151   76  198 1    
   152   76  199 1    
   153   77   78 2    
   154   77   79 am   BACKBONE|DICT|INTERRES
   155   79   80 1    
   156   79  200 1    
   157   80   81 1    
   158   80   82 1    
   159   80  201 1    
   160   81  202 1    
   161   81  203 1    
   162   81  204 1    
   163   82   83 2    
   164   82   84 am   BACKBONE|DICT|INTERRES
   165   84   85 1    
   166   84  205 1    
   167   85   86 1    
   168   85   87 1    
   169   85  206 1    
   170   86  207 1    
   171   86  208 1    
   172   86  209 1    
   173   87   88 2    
   174   87   89 am   BACKBONE|DICT|INTERRES
   175   89   90 1    
   176   89  210 1    
   177   90   91 1    
   178   90   92 1    
   179   90  211 1    
   180   91  212 1    
   181   91  213 1    
   182   91  214 1    
   183   92   93 2    
   184   92   94 am   BACKBONE|DICT|INTERRES
   185   94   95 1    
   186   94  215 1    
   187   95   96 1    
   188   95   97 1    
   189   95  216 1    
   190   96  217 1    
   191   96  218 1    
   192   96  219 1    
   193   97   98 2    
   194   97   99 am   BACKBONE|DICT|INTERRES
   195   99  100 1    
   196   99  220 1    
   197  100  101 1    
   198  100  102 1    
   199  100  221 1    
   200  101  222 1    
   201  101  223 1    
   202  101  224 1    
   203  102  103 2    
   204  102  104 am   BACKBONE|DICT|INTERRES
   205  104  105 1    
   206  104  225 1    
   207  105  106 1    
   208  105  107 1    
   209  105  226 1    
   210  106  227 1    
   211  106  228 1    
   212  106  229 1    
   213  107  108 2    
   214  107  109 am   BACKBONE|DICT|INTERRES
   215  109  110 1    
   216  109  230 1    
   217  110  111 1    
   218  110  112 1    
   219  110  231 1    
   220  111  232 1    
   221  111  233 1    
   222  111  234 1    
   223  112  113 2    
   224  112  114 am   BACKBONE|DICT|INTERRES
   225  114  115 1    
   226  114  235 1    
   227  115  116 1    
   228  115  117 1    
   229  115  236 1    
   230  116  237 1    
   231  116  238 1    
   232  116  239 1    
   233  117  118 2    
   234  117  119 am   BACKBONE|DICT|INTERRES
   235  119  120 1    
   236  119  240 1    
   237  120  121 1    
   238  120  124 1    
   239  120  241 1    
   240  121  122 am   BACKBONE|DICT|INTERRES
   241  121  123 2    
   242  122  242 1    
   243  122  243 1    
   244  124  125 1    
   245  124  244 1    
   246  124  245 1    
   247  125  126 1    
   248  126  246 1    
   249  126  247 1    
@<TRIPOS>SUBSTRUCTURE
     1 UNK         1 GROUP             0       ****    0 ROOT    
