@<TRIPOS>MOLECULE
3R540
247   249    1
SMALL
USER_CHARGES


@<TRIPOS>ATOM
      1 CA         -1.8398  -15.2958  -52.1931 C.3       0 UNK        -0.1800 
      2 C          -1.6240  -14.8592  -50.7511 C.2       0 UNK         0.5000 
      3 O          -2.4812  -14.1876  -50.1763 O.2       0 UNK        -0.5000 
      4 N          -0.4857  -15.2404  -50.1571 N.am      1 UNK        -0.5000 
      5 CA         -0.0389  -14.8164  -48.8241 C.3       1 UNK         0.1400 
      6 C6          1.5092  -14.7799  -48.6803 C.3       23 UNK        -0.0398 
      7 S7          2.3615  -14.0673  -50.1377 S.3       23 UNK        -0.2404 
      8 C8          3.5068  -15.3928  -50.6600 C.3       23 UNK        -0.0205 
      9 C9          2.8659  -16.7748  -50.6894 C.ar      23 UNK        -0.0193 
     10 C10         1.9317  -17.1128  -51.6733 C.ar      23 UNK        -0.1150 
     11 C11         1.3247  -18.3735  -51.6688 C.ar      23 UNK        -0.0193 
     12 C12         1.6589  -19.2964  -50.6730 C.ar      23 UNK        -0.1150 
     13 C13         2.6000  -18.9728  -49.6913 C.ar      23 UNK        -0.0193 
     14 C14         3.2066  -17.7159  -49.7134 C.ar      23 UNK        -0.1150 
     15 C15         2.9790  -19.9802  -48.6148 C.3       23 UNK        -0.0205 
     16 S16         2.4450  -19.4709  -46.9447 S.3       23 UNK        -0.2404 
     17 C17         0.6281  -19.4763  -47.0987 C.3       23 UNK        -0.0398 
     18 CA          0.0360  -20.9031  -47.0705 C.3       11 UNK         0.1400 
     19 N           0.2352  -21.5987  -45.7998 N.am      11 UNK        -0.5000 
     20 C          -0.0087  -22.9054  -45.6319 C.2       10 UNK         0.5000 
     21 O          -0.3426  -23.6580  -46.5465 O.2       10 UNK        -0.5000 
     22 CA          0.0714  -23.4515  -44.1982 C.3       10 UNK         0.1400 
     23 CB          1.5218  -23.7686  -43.8047 C.3       10 UNK        -0.1800 
     24 N          -0.5200  -22.5252  -43.2332 N.am      10 UNK        -0.5000 
     25 C          -1.8285  -22.2398  -43.1666 C.2       9 UNK         0.5000 
     26 O          -2.6821  -22.7596  -43.8868 O.2       9 UNK        -0.5000 
     27 CA         -2.2468  -21.1645  -42.1476 C.3       9 UNK         0.1400 
     28 CB         -2.4251  -21.7818  -40.7527 C.3       9 UNK        -0.1800 
     29 N          -1.2980  -20.0523  -42.0691 N.am      9 UNK        -0.5000 
     30 C          -1.0511  -19.1936  -43.0686 C.2       8 UNK         0.5000 
     31 O          -1.5846  -19.2516  -44.1740 O.2       8 UNK        -0.5000 
     32 CA          0.0125  -18.1174  -42.8036 C.3       8 UNK         0.1400 
     33 CB         -0.5803  -16.9763  -41.9655 C.3       8 UNK        -0.1800 
     34 N           1.2129  -18.6274  -42.1386 N.am      8 UNK        -0.5000 
     35 C           2.0013  -19.6145  -42.5902 C.2       7 UNK         0.5000 
     36 O           1.7438  -20.2783  -43.5950 O.2       7 UNK        -0.5000 
     37 CA          3.2644  -19.9381  -41.7591 C.3       7 UNK         0.1400 
     38 CB          4.4341  -20.4306  -42.6368 C.3       7 UNK        -0.1800 
     39 N           3.6911  -18.8491  -40.8647 N.am      7 UNK        -0.5000 
     40 C           4.1240  -17.6295  -41.2195 C.2       6 UNK         0.5000 
     41 O           4.2570  -17.2626  -42.3882 O.2       6 UNK        -0.5000 
     42 CA          4.4147  -16.6642  -40.0522 C.3       6 UNK         0.1400 
     43 CB          5.7695  -16.9641  -39.3791 C.3       6 UNK        -0.1800 
     44 N           4.2804  -15.2581  -40.4509 N.am      6 UNK        -0.5000 
     45 C           5.1122  -14.5019  -41.1808 C.2       5 UNK         0.5000 
     46 O           6.2474  -14.8340  -41.5277 O.2       5 UNK        -0.5000 
     47 CA          4.5316  -13.1500  -41.6442 C.3       5 UNK         0.1400 
     48 CB          5.6261  -12.1113  -41.9479 C.3       5 UNK        -0.1800 
     49 N           3.7129  -13.3383  -42.8420 N.am      5 UNK        -0.5000 
     50 C           2.4954  -13.8957  -42.8641 C.2       4 UNK         0.5000 
     51 O           1.8775  -14.2234  -41.8474 O.2       4 UNK        -0.5000 
     52 CA          1.9095  -14.1748  -44.2639 C.3       4 UNK         0.1400 
     53 CB          2.5378  -15.4574  -44.8361 C.3       4 UNK        -0.1800 
     54 N           0.4496  -14.3142  -44.2795 N.am      4 UNK        -0.5000 
     55 C          -0.4299  -13.3674  -43.9177 C.2       3 UNK         0.5000 
     56 O          -0.1032  -12.2236  -43.5958 O.2       3 UNK        -0.5000 
     57 CA         -1.9203  -13.7621  -43.9646 C.3       3 UNK         0.1400 
     58 CB         -2.8706  -12.5535  -43.8805 C.3       3 UNK        -0.1800 
     59 N          -2.1949  -14.5030  -45.1930 N.am      3 UNK        -0.5000 
     60 C          -2.8232  -15.6813  -45.2895 C.2       2 UNK         0.5000 
     61 O          -3.3378  -16.2576  -44.3322 O.2       2 UNK        -0.5000 
     62 CA         -2.8863  -16.3320  -46.6916 C.3       2 UNK         0.1400 
     63 CB         -4.3320  -16.3922  -47.2094 C.3       2 UNK        -0.1800 
     64 N          -2.0562  -15.6598  -47.6984 N.am      2 UNK        -0.5000 
     65 C          -0.7177  -15.6478  -47.7108 C.2       1 UNK         0.5000 
     66 O          -0.0431  -16.2458  -46.8739 O.2       1 UNK        -0.5000 
     67 C          -1.4488  -20.9021  -47.4794 C.2       11 UNK         0.5000 
     68 O          -1.7641  -21.2938  -48.6025 O.2       11 UNK        -0.5000 
     69 N          -2.3319  -20.4937  -46.5582 N.am      12 UNK        -0.5000 
     70 CA         -3.7779  -20.4104  -46.7496 C.3       12 UNK         0.1400 
     71 CB         -4.4450  -19.8903  -45.4665 C.3       12 UNK        -0.1800 
     72 C          -4.4161  -21.7358  -47.1933 C.2       12 UNK         0.5000 
     73 O          -5.0744  -21.7606  -48.2343 O.2       12 UNK        -0.5000 
     74 N          -4.2082  -22.7929  -46.3978 N.am      13 UNK        -0.5000 
     75 CA         -4.8440  -24.0920  -46.5871 C.3       13 UNK         0.1400 
     76 CB         -5.0728  -24.7557  -45.2183 C.3       13 UNK        -0.1800 
     77 C          -4.0415  -25.0068  -47.5241 C.2       13 UNK         0.5000 
     78 O          -4.5472  -25.3757  -48.5838 O.2       13 UNK        -0.5000 
     79 N          -2.8263  -25.3906  -47.1074 N.am      14 UNK        -0.5000 
     80 CA         -2.0399  -26.4463  -47.7524 C.3       14 UNK         0.1400 
     81 CB         -0.9470  -26.9557  -46.7988 C.3       14 UNK        -0.1800 
     82 C          -1.4533  -26.0285  -49.1107 C.2       14 UNK         0.5000 
     83 O          -1.5159  -26.8140  -50.0575 O.2       14 UNK        -0.5000 
     84 N          -0.9274  -24.7986  -49.1987 N.am      15 UNK        -0.5000 
     85 CA         -0.4472  -24.2148  -50.4577 C.3       15 UNK         0.1400 
     86 CB          0.6629  -23.1921  -50.1771 C.3       15 UNK        -0.1800 
     87 C          -1.5811  -23.5821  -51.2910 C.2       15 UNK         0.5000 
     88 O          -1.3322  -23.2018  -52.4348 O.2       15 UNK        -0.5000 
     89 N          -2.7886  -23.4955  -50.7119 N.am      16 UNK        -0.5000 
     90 CA         -4.0448  -23.0245  -51.3005 C.3       16 UNK         0.1400 
     91 CB         -4.4936  -23.9561  -52.4429 C.3       16 UNK        -0.1800 
     92 C          -4.0377  -21.5325  -51.6941 C.2       16 UNK         0.5000 
     93 O          -4.6980  -21.1428  -52.6619 O.2       16 UNK        -0.5000 
     94 N          -3.3286  -20.7040  -50.9129 N.am      17 UNK        -0.5000 
     95 CA         -3.2694  -19.2516  -51.0857 C.3       17 UNK         0.1400 
     96 CB         -2.2153  -18.6541  -50.1415 C.3       17 UNK        -0.1800 
     97 C          -4.6259  -18.5640  -50.8537 C.2       17 UNK         0.5000 
     98 O          -4.9314  -17.5947  -51.5463 O.2       17 UNK        -0.5000 
     99 N          -5.4297  -19.0894  -49.9156 N.am      18 UNK        -0.5000 
    100 CA        -6.7573  -18.5579  -49.5880 C.3       18 UNK         0.1400 
    101 CB        -7.2118  -19.1093  -48.2299 C.3       18 UNK        -0.1800 
    102 C         -7.8063  -18.8547  -50.6757 C.2       18 UNK         0.5000 
    103 O         -8.7685  -18.0997  -50.8153 O.2       18 UNK        -0.5000 
    104 N         -7.5842  -19.9291  -51.4438 N.am      19 UNK        -0.5000 
    105 CA        -8.3743  -20.2952  -52.6195 C.3       19 UNK         0.1400 
    106 CB        -8.2845  -21.8178  -52.8104 C.3       19 UNK        -0.1800 
    107 C         -7.9051  -19.5656  -53.8953 C.2       19 UNK         0.5000 
    108 O         -8.5609  -19.6933  -54.9298 O.2       19 UNK        -0.5000 
    109 N         -6.7738  -18.8454  -53.8086 N.am      20 UNK        -0.5000 
    110 CA        -6.0436  -18.1901  -54.8982 C.3       20 UNK         0.1400 
    111 CB        -6.8628  -17.0259  -55.4928 C.3       20 UNK        -0.1800 
    112 C         -5.5488  -19.1954  -55.9607 C.2       20 UNK         0.5000 
    113 O         -5.5326  -18.8831  -57.1525 O.2       20 UNK        -0.5000 
    114 N         -5.1537  -20.3890  -55.5011 N.am      21 UNK        -0.5000 
    115 CA        -4.7113  -21.5164  -56.3180 C.3       21 UNK         0.1400 
    116 CB        -5.7567  -22.6420  -56.2084 C.3       21 UNK        -0.1800 
    117 C         -3.3068  -21.9515  -55.8662 C.2       21 UNK         0.5000 
    118 O         -3.0662  -23.1428  -55.6730 O.2       21 UNK        -0.5000 
    119 N         -2.4295  -20.9534  -55.6836 N.am      22 UNK        -0.5000 
    120 CA        -1.0631  -21.0352  -55.1437 C.3       22 UNK         0.1400 
    121 C         -0.2046  -22.1945  -55.7287 C.2       22 UNK         0.5000 
    122 N          0.1138  -23.1984  -54.9237 N.am      22 UNK        -0.7600 
    123 O          0.1860  -22.1731  -56.8940 O.2       22 UNK        -0.5000 
    124 C124       -0.3528  -19.6633  -55.2881 C.3       23 UNK        -0.0398 
    125 S125        1.0925  -19.4759  -54.1896 S.3       23 UNK        -0.2404 
    126 C126        0.3019  -18.7373  -52.7327 C.3       23 UNK        -0.0205 
    127 H127       -2.5655  -16.1073  -52.2418 H         1 UNK         0.0600 
    128 H128       -0.9104  -15.6293  -52.6532 H         1 UNK         0.0600 
    129 H129       -2.2226  -14.4627  -52.7826 H         1 UNK         0.0600 
    130 H130        0.1786  -15.8072  -50.6647 H         1 UNK         0.3000 
    131 H131       -0.3771  -13.7878  -48.6797 H         1 UNK         0.0600 
    132 H132        1.9045  -15.7705  -48.4650 H         1 UNK         0.0800 
    133 H133        1.7780  -14.1736  -47.8141 H         1 UNK         0.0800 
    134 H134        3.8929  -15.1545  -51.6520 H         1 UNK         0.0800 
    135 H135        4.3696  -15.3879  -49.9920 H         1 UNK         0.0800 
    136 H136        1.6771  -16.3937  -52.4396 H         1 UNK         0.1150 
    137 H137        1.1898  -20.2691  -50.6706 H         1 UNK         0.1150 
    138 H138        3.9306  -17.4643  -48.9508 H         1 UNK         0.1150 
    139 H139        2.5773  -20.9671  -48.8459 H         1 UNK         0.0800 
    140 H140        4.0638  -20.0943  -48.6097 H         1 UNK         0.0800 
    141 H141        0.3561  -18.9522  -48.0164 H         1 UNK         0.0800 
    142 H142        0.2188  -18.8805  -46.2815 H         1 UNK         0.0800 
    143 H143        0.5651  -21.4859  -47.8214 H         1 UNK         0.0600 
    144 H144        0.5649  -21.0468  -45.0134 H         1 UNK         0.3000 
    145 H145       -0.4978  -24.3830  -44.1653 H         1 UNK         0.0600 
    146 H146        1.5755  -24.1906  -42.8012 H         1 UNK         0.0600 
    147 H147        1.9567  -24.4990  -44.4882 H         1 UNK         0.0600 
    148 H148        2.1547  -22.8817  -43.8309 H         1 UNK         0.0600 
    149 H149        0.1197  -22.0061  -42.6506 H         1 UNK         0.3000 
    150 H150       -3.2104  -20.7616  -42.4647 H         1 UNK         0.0600 
    151 H151       -3.1425  -22.6032  -40.7788 H         1 UNK         0.0600 
    152 H152       -2.8014  -21.0464  -40.0413 H         1 UNK         0.0600 
    153 H153       -1.4866  -22.1777  -40.3626 H         1 UNK         0.0600 
    154 H154       -0.8006  -19.9354  -41.1988 H         1 UNK         0.3000 
    155 H155        0.3148  -17.7140  -43.7720 H         1 UNK         0.0600 
    156 H156        0.1124  -16.1401  -41.8914 H         1 UNK         0.0600 
    157 H157       -0.8221  -17.3011  -40.9530 H         1 UNK         0.0600 
    158 H158       -1.4992  -16.5991  -42.4128 H         1 UNK         0.0600 
    159 H159        1.4979  -18.1470  -41.2989 H         1 UNK         0.3000 
    160 H160        2.9809  -20.7652  -41.1070 H         1 UNK         0.0600 
    161 H161        4.7175  -19.6920  -43.3871 H         1 UNK         0.0600 
    162 H162        4.1669  -21.3444  -43.1686 H         1 UNK         0.0600 
    163 H163        5.3144  -20.6534  -42.0340 H         1 UNK         0.0600 
    164 H164        3.6154  -19.0559  -39.8779 H         1 UNK         0.3000 
    165 H165        3.6357  -16.8207  -39.3044 H         1 UNK         0.0600 
    166 H166        6.5929  -16.9588  -40.0936 H         1 UNK         0.0600 
    167 H167        5.9942  -16.2373  -38.5984 H         1 UNK         0.0600 
    168 H168        5.7601  -17.9492  -38.9118 H         1 UNK         0.0600 
    169 H169        3.3449  -14.8855  -40.3372 H         1 UNK         0.3000 
    170 H170        3.9067  -12.7499  -40.8427 H         1 UNK         0.0600 
    171 H171        6.2660  -11.9552  -41.0784 H         1 UNK         0.0600 
    172 H172        6.2653  -12.4232  -42.7748 H         1 UNK         0.0600 
    173 H173        5.1909  -11.1461  -42.2075 H         1 UNK         0.0600 
    174 H174        4.1676  -13.1333  -43.7198 H         1 UNK         0.3000 
    175 H175        2.1688  -13.3370  -44.9142 H         1 UNK         0.0600 
    176 H176        2.2522  -16.3373  -44.2588 H         1 UNK         0.0600 
    177 H177        2.2430  -15.6246  -45.8698 H         1 UNK         0.0600 
    178 H178        3.6272  -15.4063  -44.8239 H         1 UNK         0.0600 
    179 H179        0.0943  -15.2121  -44.5755 H         1 UNK         0.3000 
    180 H180       -2.0994  -14.3932  -43.0926 H         1 UNK         0.0600 
    181 H181       -2.7167  -11.8628  -44.7104 H         1 UNK         0.0600 
    182 H182       -2.7192  -11.9979  -42.9543 H         1 UNK         0.0600 
    183 H183       -3.9130  -12.8721  -43.8992 H         1 UNK         0.0600 
    184 H184       -1.8057  -14.1098  -46.0373 H         1 UNK         0.3000 
    185 H185       -2.5207  -17.3555  -46.5825 H         1 UNK         0.0600 
    186 H186       -4.9825  -16.9132  -46.5060 H         1 UNK         0.0600 
    187 H187       -4.7450  -15.3944  -47.3610 H         1 UNK         0.0600 
    188 H188       -4.3877  -16.9254  -48.1579 H         1 UNK         0.0600 
    189 H189       -2.5372  -15.1446  -48.4299 H         1 UNK         0.3000 
    190 H190       -1.9858  -20.1702  -45.6557 H         1 UNK         0.3000 
    191 H191       -3.9597  -19.6773  -47.5354 H         1 UNK         0.0600 
    192 H192       -4.2329  -20.5343  -44.6140 H         1 UNK         0.0600 
    193 H193       -5.5288  -19.8426  -45.5726 H         1 UNK         0.0600 
    194 H194       -4.0985  -18.8878  -45.2174 H         1 UNK         0.0600 
    195 H195       -3.6274  -22.6863  -45.5699 H         1 UNK         0.3000 
    196 H196       -5.8276  -23.9428  -47.0387 H         1 UNK         0.0600 
    197 H197       -5.5594  -25.7253  -45.3312 H         1 UNK         0.0600 
    198 H198       -5.7161  -24.1411  -44.5884 H         1 UNK         0.0600 
    199 H199       -4.1395  -24.9181  -44.6784 H         1 UNK         0.0600 
    200 H200       -2.4395  -24.9842  -46.2677 H         1 UNK         0.3000 
    201 H201       -2.7150  -27.2845  -47.9399 H         1 UNK         0.0600 
    202 H202       -1.3720  -27.2855  -45.8508 H         1 UNK         0.0600 
    203 H203       -0.1977  -26.1953  -46.5844 H         1 UNK         0.0600 
    204 H204       -0.4242  -27.8086  -47.2332 H         1 UNK         0.0600 
    205 H205       -0.8681  -24.2281  -48.3589 H         1 UNK         0.3000 
    206 H206       -0.0056  -25.0090  -51.0634 H         1 UNK         0.0600 
    207 H207        1.3616  -23.5462  -49.4189 H         1 UNK         0.0600 
    208 H208        1.2356  -22.9913  -51.0833 H         1 UNK         0.0600 
    209 H209        0.2511  -22.2415  -49.8508 H         1 UNK         0.0600 
    210 H210       -2.8591  -23.8237  -49.7593 H         1 UNK         0.3000 
    211 H211       -4.7911  -23.1137  -50.5109 H         1 UNK         0.0600 
    212 H212       -3.8125  -23.9102  -53.2912 H         1 UNK         0.0600 
    213 H213       -5.4868  -23.6911  -52.8036 H         1 UNK         0.0600 
    214 H214       -4.5395  -24.9922  -52.1075 H         1 UNK         0.0600 
    215 H215       -2.8072  -21.0898  -50.1276 H         1 UNK         0.3000 
    216 H216       -2.9617  -19.0546  -52.1147 H         1 UNK         0.0600 
    217 H217       -1.2702  -19.1912  -50.1961 H         1 UNK         0.0600 
    218 H218       -2.5430  -18.6644  -49.1030 H         1 UNK         0.0600 
    219 H219       -2.0122  -17.6187  -50.3979 H         1 UNK         0.0600 
    220 H220       -5.1400  -19.9301  -49.4298 H         1 UNK         0.3000 
    221 H221       -6.6789  -17.4720  -49.4991 H         1 UNK         0.0600 
    222 H222       -7.2868  -20.1971  -48.2385 H         1 UNK         0.0600 
    223 H223       -6.5192  -18.8207  -47.4411 H         1 UNK         0.0600 
    224 H224       -8.1919  -18.7160  -47.9569 H         1 UNK         0.0600 
    225 H225       -6.7594  -20.4845  -51.2682 H         1 UNK         0.3000 
    226 H226       -9.4206  -20.0320  -52.4514 H         1 UNK         0.0600 
    227 H227       -8.6149  -22.3500  -51.9183 H         1 UNK         0.0600 
    228 H228       -8.9157  -22.1467  -53.6368 H         1 UNK         0.0600 
    229 H229       -7.2656  -22.1333  -53.0337 H         1 UNK         0.0600 
    230 H230       -6.3241  -18.7916  -52.9046 H         1 UNK         0.3000 
    231 H231       -5.1471  -17.7626  -54.4470 H         1 UNK         0.0600 
    232 H232       -6.2654  -16.4497  -56.2001 H         1 UNK         0.0600 
    233 H233       -7.1925  -16.3390  -54.7133 H         1 UNK         0.0600 
    234 H234       -7.7463  -17.3795  -56.0248 H         1 UNK         0.0600 
    235 H235       -5.1442  -20.5533  -54.4972 H         1 UNK         0.3000 
    236 H236       -4.6290  -21.2288  -57.3678 H         1 UNK         0.0600 
    237 H237       -6.7384  -22.2988  -56.5352 H         1 UNK         0.0600 
    238 H238       -5.4853  -23.4939  -56.8328 H         1 UNK         0.0600 
    239 H239       -5.8535  -22.9995  -55.1828 H         1 UNK         0.0600 
    240 H240       -2.7549  -20.0235  -55.8990 H         1 UNK         0.3000 
    241 H241       -1.1972  -21.2164  -54.0768 H         1 UNK         0.0600 
    242 H242       -0.2957  -23.2463  -53.9927 H         1 UNK         0.3800 
    243 H243        0.6692  -23.9632  -55.2711 H         1 UNK         0.3800 
    244 H244       -0.0312  -19.5007  -56.3183 H         1 UNK         0.0800 
    245 H245       -1.0481  -18.8513  -55.0709 H         1 UNK         0.0800 
    246 H246       -0.4215  -19.4493  -52.3352 H         1 UNK         0.0800 
    247 H247       -0.2602  -17.8518  -53.0282 H         1 UNK         0.0800 
@<TRIPOS>BOND
     1    1    2 1    
     2    1  127 1    
     3    1  128 1    
     4    1  129 1    
     5    2    3 2    
     6    2    4 am   BACKBONE|DICT|INTERRES
     7    4    5 1    
     8    4  130 1    
     9    5    6 1    
    10    5   65 1    
    11    5  131 1    
    12    6    7 1    
    13    6  132 1    
    14    6  133 1    
    15    7    8 1    
    16    8    9 1    
    17    8  134 1    
    18    8  135 1    
    19    9   10 ar   
    20    9   14 ar   
    21   10   11 ar   
    22   10  136 1    
    23   11   12 ar   
    24   11  126 1    
    25   12   13 ar   
    26   12  137 1    
    27   13   14 ar   
    28   13   15 1    
    29   14  138 1    
    30   15   16 1    
    31   15  139 1    
    32   15  140 1    
    33   16   17 1    
    34   17   18 1    
    35   17  141 1    
    36   17  142 1    
    37   18   19 1    
    38   18   67 1    
    39   18  143 1    
    40   19   20 am   BACKBONE|DICT|INTERRES
    41   19  144 1    
    42   20   21 2    
    43   20   22 1    
    44   22   23 1    
    45   22   24 1    
    46   22  145 1    
    47   23  146 1    
    48   23  147 1    
    49   23  148 1    
    50   24   25 am   BACKBONE|DICT|INTERRES
    51   24  149 1    
    52   25   26 2    
    53   25   27 1    
    54   27   28 1    
    55   27   29 1    
    56   27  150 1    
    57   28  151 1    
    58   28  152 1    
    59   28  153 1    
    60   29   30 am   BACKBONE|DICT|INTERRES
    61   29  154 1    
    62   30   31 2    
    63   30   32 1    
    64   32   33 1    
    65   32   34 1    
    66   32  155 1    
    67   33  156 1    
    68   33  157 1    
    69   33  158 1    
    70   34   35 am   BACKBONE|DICT|INTERRES
    71   34  159 1    
    72   35   36 2    
    73   35   37 1    
    74   37   38 1    
    75   37   39 1    
    76   37  160 1    
    77   38  161 1    
    78   38  162 1    
    79   38  163 1    
    80   39   40 am   BACKBONE|DICT|INTERRES
    81   39  164 1    
    82   40   41 2    
    83   40   42 1    
    84   42   43 1    
    85   42   44 1    
    86   42  165 1    
    87   43  166 1    
    88   43  167 1    
    89   43  168 1    
    90   44   45 am   BACKBONE|DICT|INTERRES
    91   44  169 1    
    92   45   46 2    
    93   45   47 1    
    94   47   48 1    
    95   47   49 1    
    96   47  170 1    
    97   48  171 1    
    98   48  172 1    
    99   48  173 1    
   100   49   50 am   BACKBONE|DICT|INTERRES
   101   49  174 1    
   102   50   51 2    
   103   50   52 1    
   104   52   53 1    
   105   52   54 1    
   106   52  175 1    
   107   53  176 1    
   108   53  177 1    
   109   53  178 1    
   110   54   55 am   BACKBONE|DICT|INTERRES
   111   54  179 1    
   112   55   56 2    
   113   55   57 1    
   114   57   58 1    
   115   57   59 1    
   116   57  180 1    
   117   58  181 1    
   118   58  182 1    
   119   58  183 1    
   120   59   60 am   BACKBONE|DICT|INTERRES
   121   59  184 1    
   122   60   61 2    
   123   60   62 1    
   124   62   63 1    
   125   62   64 1    
   126   62  185 1    
   127   63  186 1    
   128   63  187 1    
   129   63  188 1    
   130   64   65 am   BACKBONE|DICT|INTERRES
   131   64  189 1    
   132   65   66 2    
   133   67   68 2    
   134   67   69 am   BACKBONE|DICT|INTERRES
   135   69   70 1    
   136   69  190 1    
   137   70   71 1    
   138   70   72 1    
   139   70  191 1    
   140   71  192 1    
   141   71  193 1    
   142   71  194 1    
   143   72   73 2    
   144   72   74 am   BACKBONE|DICT|INTERRES
   145   74   75 1    
   146   74  195 1    
   147   75   76 1    
   148   75   77 1    
   149   75  196 1    
   150   76  197 1    
   151   76  198 1    
   152   76  199 1    
   153   77   78 2    
   154   77   79 am   BACKBONE|DICT|INTERRES
   155   79   80 1    
   156   79  200 1    
   157   80   81 1    
   158   80   82 1    
   159   80  201 1    
   160   81  202 1    
   161   81  203 1    
   162   81  204 1    
   163   82   83 2    
   164   82   84 am   BACKBONE|DICT|INTERRES
   165   84   85 1    
   166   84  205 1    
   167   85   86 1    
   168   85   87 1    
   169   85  206 1    
   170   86  207 1    
   171   86  208 1    
   172   86  209 1    
   173   87   88 2    
   174   87   89 am   BACKBONE|DICT|INTERRES
   175   89   90 1    
   176   89  210 1    
   177   90   91 1    
   178   90   92 1    
   179   90  211 1    
   180   91  212 1    
   181   91  213 1    
   182   91  214 1    
   183   92   93 2    
   184   92   94 am   BACKBONE|DICT|INTERRES
   185   94   95 1    
   186   94  215 1    
   187   95   96 1    
   188   95   97 1    
   189   95  216 1    
   190   96  217 1    
   191   96  218 1    
   192   96  219 1    
   193   97   98 2    
   194   97   99 am   BACKBONE|DICT|INTERRES
   195   99  100 1    
   196   99  220 1    
   197  100  101 1    
   198  100  102 1    
   199  100  221 1    
   200  101  222 1    
   201  101  223 1    
   202  101  224 1    
   203  102  103 2    
   204  102  104 am   BACKBONE|DICT|INTERRES
   205  104  105 1    
   206  104  225 1    
   207  105  106 1    
   208  105  107 1    
   209  105  226 1    
   210  106  227 1    
   211  106  228 1    
   212  106  229 1    
   213  107  108 2    
   214  107  109 am   BACKBONE|DICT|INTERRES
   215  109  110 1    
   216  109  230 1    
   217  110  111 1    
   218  110  112 1    
   219  110  231 1    
   220  111  232 1    
   221  111  233 1    
   222  111  234 1    
   223  112  113 2    
   224  112  114 am   BACKBONE|DICT|INTERRES
   225  114  115 1    
   226  114  235 1    
   227  115  116 1    
   228  115  117 1    
   229  115  236 1    
   230  116  237 1    
   231  116  238 1    
   232  116  239 1    
   233  117  118 2    
   234  117  119 am   BACKBONE|DICT|INTERRES
   235  119  120 1    
   236  119  240 1    
   237  120  121 1    
   238  120  124 1    
   239  120  241 1    
   240  121  122 am   BACKBONE|DICT|INTERRES
   241  121  123 2    
   242  122  242 1    
   243  122  243 1    
   244  124  125 1    
   245  124  244 1    
   246  124  245 1    
   247  125  126 1    
   248  126  246 1    
   249  126  247 1    
@<TRIPOS>SUBSTRUCTURE
     1 UNK         1 GROUP             0       ****    0 ROOT    
