@<TRIPOS>MOLECULE
3R540
247   249    1
SMALL
USER_CHARGES


@<TRIPOS>ATOM
      1 CA          5.8713  -14.9792  -43.9105 C.3       0 UNK        -0.1800 
      2 C           4.7759  -14.4839  -44.8430 C.2       0 UNK         0.5000 
      3 O           3.6034  -14.4970  -44.4667 O.2       0 UNK        -0.5000 
      4 N           5.1437  -14.0841  -46.0661 N.am      1 UNK        -0.5000 
      5 CA          4.2454  -13.4359  -47.0253 C.3       1 UNK         0.1400 
      6 C6          4.7211  -13.6042  -48.4914 C.3       23 UNK        -0.0398 
      7 S7          4.6300  -15.3228  -49.1064 S.3       23 UNK        -0.2404 
      8 C8          2.8270  -15.5837  -49.0952 C.3       23 UNK        -0.0205 
      9 C9          2.3528  -16.6748  -50.0474 C.ar      23 UNK        -0.0193 
     10 C10         1.3608  -16.3745  -50.9836 C.ar      23 UNK        -0.1150 
     11 C11         0.8550  -17.3599  -51.8332 C.ar      23 UNK        -0.0193 
     12 C12         1.3558  -18.6613  -51.7521 C.ar      23 UNK        -0.1150 
     13 C13         2.3655  -18.9758  -50.8362 C.ar      23 UNK        -0.0193 
     14 C14         2.8526  -17.9809  -49.9782 C.ar      23 UNK        -0.1150 
     15 C15         2.9645  -20.3768  -50.8179 C.3       23 UNK        -0.0205 
     16 S16         2.5766  -21.3056  -49.3026 S.3       23 UNK        -0.2404 
     17 C17         0.7740  -21.5414  -49.4496 C.3       23 UNK        -0.0398 
     18 CA          0.2470  -22.5690  -48.4179 C.3       11 UNK         0.1400 
     19 N           0.3512  -22.0961  -47.0331 N.am      11 UNK        -0.5000 
     20 C           0.1340  -22.8517  -45.9474 C.2       10 UNK         0.5000 
     21 O          -0.1394  -24.0499  -45.9965 O.2       10 UNK        -0.5000 
     22 CA          0.1815  -22.1511  -44.5768 C.3       10 UNK         0.1400 
     23 CB          1.6295  -21.9664  -44.1002 C.3       10 UNK        -0.1800 
     24 N          -0.5177  -20.8652  -44.5745 N.am      10 UNK        -0.5000 
     25 C          -1.8372  -20.7242  -44.7701 C.2       9 UNK         0.5000 
     26 O          -2.6083  -21.6711  -44.9256 O.2       9 UNK        -0.5000 
     27 CA         -2.3822  -19.2858  -44.8573 C.3       9 UNK         0.1400 
     28 CB         -2.5750  -18.6798  -43.4593 C.3       9 UNK        -0.1800 
     29 N          -1.5247  -18.4116  -45.6559 N.am      9 UNK        -0.5000 
     30 C          -1.2656  -18.5865  -46.9603 C.2       8 UNK         0.5000 
     31 O          -1.7814  -19.4623  -47.6543 O.2       8 UNK        -0.5000 
     32 CA         -0.1926  -17.6687  -47.5677 C.3       8 UNK         0.1400 
     33 CB         -0.7902  -16.3067  -47.9512 C.3       8 UNK        -0.1800 
     34 N           0.9390  -17.4908  -46.6526 N.am      8 UNK        -0.5000 
     35 C           1.7795  -18.4818  -46.3190 C.2       7 UNK         0.5000 
     36 O           1.6765  -19.6256  -46.7481 O.2       7 UNK        -0.5000 
     37 CA          2.8856  -18.1750  -45.2979 C.3       7 UNK         0.1400 
     38 CB          4.1483  -17.6647  -46.0020 C.3       7 UNK        -0.1800 
     39 N           2.4471  -17.2362  -44.2649 N.am      7 UNK        -0.5000 
     40 C           1.5522  -17.5603  -43.3197 C.2       6 UNK         0.5000 
     41 O           1.0478  -18.6788  -43.2151 O.2       6 UNK        -0.5000 
     42 CA          1.1108  -16.4424  -42.3593 C.3       6 UNK         0.1400 
     43 CB          2.0818  -16.3326  -41.1746 C.3       6 UNK        -0.1800 
     44 N           0.9913  -15.1349  -43.0028 N.am      6 UNK        -0.5000 
     45 C           0.1716  -14.8378  -44.0197 C.2       5 UNK         0.5000 
     46 O          -0.5687  -15.6620  -44.5611 O.2       5 UNK        -0.5000 
     47 CA          0.2084  -13.3727  -44.5047 C.3       5 UNK         0.1400 
     48 CB         -0.9679  -13.0066  -45.4311 C.3       5 UNK        -0.1800 
     49 N           0.3192  -12.4056  -43.4064 N.am      5 UNK        -0.5000 
     50 C          -0.5274  -12.2354  -42.3768 C.2       4 UNK         0.5000 
     51 O          -1.5528  -12.8966  -42.2103 O.2       4 UNK        -0.5000 
     52 CA         -0.1690  -11.1437  -41.3467 C.3       4 UNK         0.1400 
     53 CB          0.5310  -11.7704  -40.1305 C.3       4 UNK        -0.1800 
     54 N           0.6863  -10.0880  -41.8922 N.am      4 UNK        -0.5000 
     55 C           0.2931   -9.1658  -42.7807 C.2       3 UNK         0.5000 
     56 O          -0.8671   -9.0505  -43.1787 O.2       3 UNK        -0.5000 
     57 CA          1.3804   -8.2359  -43.3593 C.3       3 UNK         0.1400 
     58 CB          2.6314   -8.0937  -42.4625 C.3       3 UNK        -0.1800 
     59 N           1.7551   -8.6427  -44.7190 N.am      3 UNK        -0.5000 
     60 C           2.2475   -9.8321  -45.0966 C.2       2 UNK         0.5000 
     61 O           2.4914  -10.7482  -44.3065 O.2       2 UNK        -0.5000 
     62 CA          2.4442  -10.0359  -46.6152 C.3       2 UNK         0.1400 
     63 CB          3.3535   -8.9558  -47.2407 C.3       2 UNK        -0.1800 
     64 N           2.9084  -11.3886  -46.9551 N.am      2 UNK        -0.5000 
     65 C           4.0963  -11.9431  -46.6674 C.2       1 UNK         0.5000 
     66 O           5.0481  -11.3368  -46.1674 O.2       1 UNK        -0.5000 
     67 C          -1.1859  -23.0215  -48.7612 C.2       11 UNK         0.5000 
     68 O          -1.3464  -24.0784  -49.3700 O.2       11 UNK        -0.5000 
     69 N          -2.1991  -22.2573  -48.3269 N.am      12 UNK        -0.5000 
     70 CA         -3.6131  -22.6143  -48.4585 C.3       12 UNK         0.1400 
     71 CB         -4.4936  -21.4365  -48.0177 C.3       12 UNK        -0.1800 
     72 C          -3.9726  -23.8955  -47.6848 C.2       12 UNK         0.5000 
     73 O          -4.6444  -24.7670  -48.2355 O.2       12 UNK        -0.5000 
     74 N          -3.4854  -24.0144  -46.4411 N.am      13 UNK        -0.5000 
     75 CA         -3.6489  -25.2004  -45.5981 C.3       13 UNK         0.1400 
     76 CB         -3.1255  -24.9120  -44.1834 C.3       13 UNK        -0.1800 
     77 C          -2.9761  -26.4515  -46.1932 C.2       13 UNK         0.5000 
     78 O          -3.6007  -27.5120  -46.2330 O.2       13 UNK        -0.5000 
     79 N          -1.7429  -26.2970  -46.6968 N.am      14 UNK        -0.5000 
     80 CA         -0.9830  -27.3390  -47.3946 C.3       14 UNK         0.1400 
     81 CB          0.4436  -26.8386  -47.6651 C.3       14 UNK        -0.1800 
     82 C          -1.6519  -27.8026  -48.7033 C.2       14 UNK         0.5000 
     83 O          -1.5658  -28.9818  -49.0465 O.2       14 UNK        -0.5000 
     84 N          -2.3466  -26.8796  -49.3805 N.am      15 UNK        -0.5000 
     85 CA         -3.1660  -27.1277  -50.5667 C.3       15 UNK         0.1400 
     86 CB         -3.2345  -25.8353  -51.3978 C.3       15 UNK        -0.1800 
     87 C          -4.5774  -27.6679  -50.2379 C.2       15 UNK         0.5000 
     88 O          -5.4099  -27.7433  -51.1410 O.2       15 UNK        -0.5000 
     89 N          -4.8306  -28.0339  -48.9713 N.am      16 UNK        -0.5000 
     90 CA         -6.0689  -28.6105  -48.4368 C.3       16 UNK         0.1400 
     91 CB         -6.3709  -29.9800  -49.0819 C.3       16 UNK        -0.1800 
     92 C          -7.2585  -27.6310  -48.4884 C.2       16 UNK         0.5000 
     93 O          -8.3669  -28.0160  -48.8647 O.2       16 UNK        -0.5000 
     94 N          -6.9918  -26.3776  -48.0960 N.am      17 UNK        -0.5000 
     95 CA         -7.9130  -25.2379  -48.0245 C.3       17 UNK         0.1400 
     96 CB         -9.1163  -25.5284  -47.1025 C.3       17 UNK        -0.1800 
     97 C          -8.3229  -24.6843  -49.4044 C.2       17 UNK         0.5000 
     98 O          -9.3257  -23.9744  -49.5053 O.2       17 UNK        -0.5000 
     99 N          -7.5252  -24.9827  -50.4378 N.am      18 UNK        -0.5000 
    100 CA        -7.6113  -24.3602  -51.7571 C.3       18 UNK         0.1400 
    101 CB        -6.9367  -25.2789  -52.7867 C.3       18 UNK        -0.1800 
    102 C         -6.9611  -22.9620  -51.7524 C.2       18 UNK         0.5000 
    103 O         -6.3056  -22.5792  -50.7805 O.2       18 UNK        -0.5000 
    104 N         -7.1491  -22.2256  -52.8546 N.am      19 UNK        -0.5000 
    105 CA        -6.6696  -20.8532  -53.0394 C.3       19 UNK         0.1400 
    106 CB        -7.2463  -20.3046  -54.3540 C.3       19 UNK        -0.1800 
    107 C         -5.1356  -20.7017  -53.0299 C.2       19 UNK         0.5000 
    108 O         -4.6436  -19.6363  -52.6629 O.2       19 UNK        -0.5000 
    109 N         -4.4119  -21.7473  -53.4627 N.am      20 UNK        -0.5000 
    110 CA        -2.9444  -21.8240  -53.5469 C.3       20 UNK         0.1400 
    111 CB        -2.3282  -21.9241  -52.1367 C.3       20 UNK        -0.1800 
    112 C         -2.3144  -20.6974  -54.3992 C.2       20 UNK         0.5000 
    113 O         -1.2229  -20.2208  -54.0882 O.2       20 UNK        -0.5000 
    114 N         -3.0359  -20.2990  -55.4582 N.am      21 UNK        -0.5000 
    115 CA        -2.7365  -19.2140  -56.3998 C.3       21 UNK         0.1400 
    116 CB        -1.3872  -19.4401  -57.1155 C.3       21 UNK        -0.1800 
    117 C         -2.8664  -17.7927  -55.8058 C.2       21 UNK         0.5000 
    118 O         -2.3800  -16.8410  -56.4197 O.2       21 UNK        -0.5000 
    119 N         -3.5482  -17.6475  -54.6630 N.am      22 UNK        -0.5000 
    120 CA        -3.8636  -16.3586  -54.0347 C.3       22 UNK         0.1400 
    121 C         -5.1707  -16.4465  -53.1991 C.2       22 UNK         0.5000 
    122 N         -5.1728  -16.0647  -51.9286 N.am      22 UNK        -0.7600 
    123 O         -6.2192  -16.8089  -53.7267 O.2       22 UNK        -0.5000 
    124 C124       -2.6457  -15.6814  -53.3439 C.3       23 UNK        -0.0398 
    125 S125       -1.8190  -16.6927  -52.0641 S.3       23 UNK        -0.2404 
    126 C126       -0.2072  -16.9920  -52.8551 C.3       23 UNK        -0.0205 
    127 H127        6.0102  -14.2735  -43.0917 H         1 UNK         0.0600 
    128 H128        6.8230  -15.0945  -44.4296 H         1 UNK         0.0600 
    129 H129        5.5966  -15.9444  -43.4852 H         1 UNK         0.0600 
    130 H130        6.1220  -14.0843  -46.3157 H         1 UNK         0.3000 
    131 H131        3.2573  -13.8892  -46.9302 H         1 UNK         0.0600 
    132 H132        4.1280  -12.9841  -49.1664 H         1 UNK         0.0800 
    133 H133        5.7501  -13.2569  -48.5988 H         1 UNK         0.0800 
    134 H134        2.3340  -14.6412  -49.3379 H         1 UNK         0.0800 
    135 H135        2.5115  -15.8379  -48.0859 H         1 UNK         0.0800 
    136 H136        0.9639  -15.3710  -51.0471 H         1 UNK         0.1150 
    137 H137        0.9731  -19.4223  -52.4185 H         1 UNK         0.1150 
    138 H138        3.6226  -18.2236  -49.2595 H         1 UNK         0.1150 
    139 H139        2.6353  -20.9527  -51.6842 H         1 UNK         0.0800 
    140 H140        4.0486  -20.2942  -50.9053 H         1 UNK         0.0800 
    141 H141        0.5647  -21.8755  -50.4673 H         1 UNK         0.0800 
    142 H142        0.2754  -20.5782  -49.3285 H         1 UNK         0.0800 
    143 H143        0.8741  -23.4600  -48.4936 H         1 UNK         0.0600 
    144 H144        0.6547  -21.1318  -46.9099 H         1 UNK         0.3000 
    145 H145       -0.3243  -22.7990  -43.8580 H         1 UNK         0.0600 
    146 H146        1.6655  -21.4991  -43.1160 H         1 UNK         0.0600 
    147 H147        2.1375  -22.9283  -44.0234 H         1 UNK         0.0600 
    148 H148        2.2065  -21.3481  -44.7866 H         1 UNK         0.0600 
    149 H149        0.0455  -20.0385  -44.4082 H         1 UNK         0.3000 
    150 H150       -3.3578  -19.3296  -45.3458 H         1 UNK         0.0600 
    151 H151       -3.2439  -19.2957  -42.8570 H         1 UNK         0.0600 
    152 H152       -3.0139  -17.6835  -43.5190 H         1 UNK         0.0600 
    153 H153       -1.6315  -18.5962  -42.9200 H         1 UNK         0.0600 
    154 H154       -1.0717  -17.6434  -45.1731 H         1 UNK         0.3000 
    155 H155        0.1809  -18.1422  -48.4783 H         1 UNK         0.0600 
    156 H156       -1.2839  -15.8284  -47.1062 H         1 UNK         0.0600 
    157 H157       -0.0301  -15.6245  -48.3290 H         1 UNK         0.0600 
    158 H158       -1.5367  -16.4253  -48.7376 H         1 UNK         0.0600 
    159 H159        1.0192  -16.5998  -46.1864 H         1 UNK         0.3000 
    160 H160        3.1472  -19.1146  -44.8071 H         1 UNK         0.0600 
    161 H161        3.9769  -16.7068  -46.4880 H         1 UNK         0.0600 
    162 H162        4.4751  -18.3652  -46.7717 H         1 UNK         0.0600 
    163 H163        4.9735  -17.5501  -45.3002 H         1 UNK         0.0600 
    164 H164        2.8070  -16.2866  -44.3001 H         1 UNK         0.3000 
    165 H165        0.1254  -16.7105  -41.9729 H         1 UNK         0.0600 
    166 H166        1.7303  -15.6051  -40.4426 H         1 UNK         0.0600 
    167 H167        2.1803  -17.2893  -40.6600 H         1 UNK         0.0600 
    168 H168        3.0782  -16.0288  -41.4989 H         1 UNK         0.0600 
    169 H169        1.6019  -14.4062  -42.6625 H         1 UNK         0.3000 
    170 H170        1.1258  -13.2722  -45.0862 H         1 UNK         0.0600 
    171 H171       -0.9551  -13.6112  -46.3375 H         1 UNK         0.0600 
    172 H172       -1.9304  -13.1646  -44.9437 H         1 UNK         0.0600 
    173 H173       -0.9154  -11.9624  -45.7396 H         1 UNK         0.0600 
    174 H174        1.1324  -11.7969  -43.4609 H         1 UNK         0.3000 
    175 H175       -1.1025  -10.6890  -41.0085 H         1 UNK         0.0600 
    176 H176        1.4812  -12.2302  -40.4053 H         1 UNK         0.0600 
    177 H177        0.7281  -11.0243  -39.3605 H         1 UNK         0.0600 
    178 H178       -0.0897  -12.5456  -39.6788 H         1 UNK         0.0600 
    179 H179        1.6658  -10.1280  -41.6501 H         1 UNK         0.3000 
    180 H180        0.9253   -7.2478  -43.4424 H         1 UNK         0.0600 
    181 H181        3.1941   -9.0233  -42.3742 H         1 UNK         0.0600 
    182 H182        2.3571   -7.7748  -41.4561 H         1 UNK         0.0600 
    183 H183        3.3093   -7.3400  -42.8632 H         1 UNK         0.0600 
    184 H184        1.5466   -7.9647  -45.4383 H         1 UNK         0.3000 
    185 H185        1.4564   -9.9417  -47.0687 H         1 UNK         0.0600 
    186 H186        2.8898   -7.9704  -47.1891 H         1 UNK         0.0600 
    187 H187        4.3153   -8.8858  -46.7320 H         1 UNK         0.0600 
    188 H188        3.5455   -9.1630  -48.2935 H         1 UNK         0.0600 
    189 H189        2.1999  -11.9780  -47.3675 H         1 UNK         0.3000 
    190 H190       -1.9930  -21.3706  -47.8746 H         1 UNK         0.3000 
    191 H191       -3.8149  -22.8040  -49.5136 H         1 UNK         0.0600 
    192 H192       -4.3194  -21.1659  -46.9765 H         1 UNK         0.0600 
    193 H193       -5.5513  -21.6815  -48.1237 H         1 UNK         0.0600 
    194 H194       -4.3025  -20.5550  -48.6302 H         1 UNK         0.0600 
    195 H195       -2.9759  -23.2340  -46.0362 H         1 UNK         0.3000 
    196 H196       -4.7188  -25.4060  -45.5241 H         1 UNK         0.0600 
    197 H197       -3.2632  -25.7761  -43.5324 H         1 UNK         0.0600 
    198 H198       -3.6572  -24.0751  -43.7304 H         1 UNK         0.0600 
    199 H199       -2.0630  -24.6691  -44.1866 H         1 UNK         0.0600 
    200 H200       -1.2772  -25.3992  -46.5813 H         1 UNK         0.3000 
    201 H201       -0.9209  -28.2042  -46.7315 H         1 UNK         0.0600 
    202 H202        0.9531  -26.5791  -46.7370 H         1 UNK         0.0600 
    203 H203        0.4443  -25.9559  -48.3052 H         1 UNK         0.0600 
    204 H204        1.0402  -27.6052  -48.1608 H         1 UNK         0.0600 
    205 H205       -2.3150  -25.9190  -49.0560 H         1 UNK         0.3000 
    206 H206       -2.6707  -27.8861  -51.1760 H         1 UNK         0.0600 
    207 H207       -2.2391  -25.4338  -51.5879 H         1 UNK         0.0600 
    208 H208       -3.6895  -26.0217  -52.3701 H         1 UNK         0.0600 
    209 H209       -3.8177  -25.0624  -50.8956 H         1 UNK         0.0600 
    210 H210       -4.1004  -27.8891  -48.2843 H         1 UNK         0.3000 
    211 H211       -5.8796  -28.7906  -47.3777 H         1 UNK         0.0600 
    212 H212       -6.6351  -29.8861  -50.1354 H         1 UNK         0.0600 
    213 H213       -7.2058  -30.4705  -48.5802 H         1 UNK         0.0600 
    214 H214       -5.5124  -30.6476  -49.0089 H         1 UNK         0.0600 
    215 H215       -6.0224  -26.1342  -47.9130 H         1 UNK         0.3000 
    216 H216       -7.3412  -24.4367  -47.5542 H         1 UNK         0.0600 
    217 H217       -9.6834  -24.6183  -46.9041 H         1 UNK         0.0600 
    218 H218       -8.7905  -25.9214  -46.1395 H         1 UNK         0.0600 
    219 H219       -9.8054  -26.2477  -47.5452 H         1 UNK         0.0600 
    220 H220       -6.7086  -25.5493  -50.2584 H         1 UNK         0.3000 
    221 H221       -8.6630  -24.2492  -52.0293 H         1 UNK         0.0600 
    222 H222       -5.8658  -25.3573  -52.6091 H         1 UNK         0.0600 
    223 H223       -7.3554  -26.2850  -52.7526 H         1 UNK         0.0600 
    224 H224       -7.0742  -24.9070  -53.8024 H         1 UNK         0.0600 
    225 H225       -7.6966  -22.6114  -53.6103 H         1 UNK         0.3000 
    226 H226       -7.0588  -20.2498  -52.2166 H         1 UNK         0.0600 
    227 H227       -8.3361  -20.2917  -54.3321 H         1 UNK         0.0600 
    228 H228       -6.9161  -19.2807  -54.5313 H         1 UNK         0.0600 
    229 H229       -6.9336  -20.9012  -55.2118 H         1 UNK         0.0600 
    230 H230       -4.9140  -22.5726  -53.7566 H         1 UNK         0.3000 
    231 H231       -2.7156  -22.7545  -54.0683 H         1 UNK         0.0600 
    232 H232       -1.2504  -22.0801  -52.1875 H         1 UNK         0.0600 
    233 H233       -2.7469  -22.7680  -51.5906 H         1 UNK         0.0600 
    234 H234       -2.5030  -21.0216  -51.5498 H         1 UNK         0.0600 
    235 H235       -3.9195  -20.7643  -55.6095 H         1 UNK         0.3000 
    236 H236       -3.5133  -19.2759  -57.1631 H         1 UNK         0.0600 
    237 H237       -1.3178  -20.4498  -57.5200 H         1 UNK         0.0600 
    238 H238       -1.2679  -18.7496  -57.9512 H         1 UNK         0.0600 
    239 H239       -0.5406  -19.2855  -56.4464 H         1 UNK         0.0600 
    240 H240       -3.9117  -18.4601  -54.1751 H         1 UNK         0.3000 
    241 H241       -4.1480  -15.6846  -54.8453 H         1 UNK         0.0600 
    242 H242       -4.3163  -15.8022  -51.4663 H         1 UNK         0.3800 
    243 H243       -6.0319  -16.1081  -51.4039 H         1 UNK         0.3800 
    244 H244       -1.9202  -15.4039  -54.1087 H         1 UNK         0.0800 
    245 H245       -2.9438  -14.7334  -52.8939 H         1 UNK         0.0800 
    246 H246        0.1236  -16.0965  -53.3828 H         1 UNK         0.0800 
    247 H247       -0.3153  -17.7718  -53.6098 H         1 UNK         0.0800 
@<TRIPOS>BOND
     1    1    2 1    
     2    1  127 1    
     3    1  128 1    
     4    1  129 1    
     5    2    3 2    
     6    2    4 am   BACKBONE|DICT|INTERRES
     7    4    5 1    
     8    4  130 1    
     9    5    6 1    
    10    5   65 1    
    11    5  131 1    
    12    6    7 1    
    13    6  132 1    
    14    6  133 1    
    15    7    8 1    
    16    8    9 1    
    17    8  134 1    
    18    8  135 1    
    19    9   10 ar   
    20    9   14 ar   
    21   10   11 ar   
    22   10  136 1    
    23   11   12 ar   
    24   11  126 1    
    25   12   13 ar   
    26   12  137 1    
    27   13   14 ar   
    28   13   15 1    
    29   14  138 1    
    30   15   16 1    
    31   15  139 1    
    32   15  140 1    
    33   16   17 1    
    34   17   18 1    
    35   17  141 1    
    36   17  142 1    
    37   18   19 1    
    38   18   67 1    
    39   18  143 1    
    40   19   20 am   BACKBONE|DICT|INTERRES
    41   19  144 1    
    42   20   21 2    
    43   20   22 1    
    44   22   23 1    
    45   22   24 1    
    46   22  145 1    
    47   23  146 1    
    48   23  147 1    
    49   23  148 1    
    50   24   25 am   BACKBONE|DICT|INTERRES
    51   24  149 1    
    52   25   26 2    
    53   25   27 1    
    54   27   28 1    
    55   27   29 1    
    56   27  150 1    
    57   28  151 1    
    58   28  152 1    
    59   28  153 1    
    60   29   30 am   BACKBONE|DICT|INTERRES
    61   29  154 1    
    62   30   31 2    
    63   30   32 1    
    64   32   33 1    
    65   32   34 1    
    66   32  155 1    
    67   33  156 1    
    68   33  157 1    
    69   33  158 1    
    70   34   35 am   BACKBONE|DICT|INTERRES
    71   34  159 1    
    72   35   36 2    
    73   35   37 1    
    74   37   38 1    
    75   37   39 1    
    76   37  160 1    
    77   38  161 1    
    78   38  162 1    
    79   38  163 1    
    80   39   40 am   BACKBONE|DICT|INTERRES
    81   39  164 1    
    82   40   41 2    
    83   40   42 1    
    84   42   43 1    
    85   42   44 1    
    86   42  165 1    
    87   43  166 1    
    88   43  167 1    
    89   43  168 1    
    90   44   45 am   BACKBONE|DICT|INTERRES
    91   44  169 1    
    92   45   46 2    
    93   45   47 1    
    94   47   48 1    
    95   47   49 1    
    96   47  170 1    
    97   48  171 1    
    98   48  172 1    
    99   48  173 1    
   100   49   50 am   BACKBONE|DICT|INTERRES
   101   49  174 1    
   102   50   51 2    
   103   50   52 1    
   104   52   53 1    
   105   52   54 1    
   106   52  175 1    
   107   53  176 1    
   108   53  177 1    
   109   53  178 1    
   110   54   55 am   BACKBONE|DICT|INTERRES
   111   54  179 1    
   112   55   56 2    
   113   55   57 1    
   114   57   58 1    
   115   57   59 1    
   116   57  180 1    
   117   58  181 1    
   118   58  182 1    
   119   58  183 1    
   120   59   60 am   BACKBONE|DICT|INTERRES
   121   59  184 1    
   122   60   61 2    
   123   60   62 1    
   124   62   63 1    
   125   62   64 1    
   126   62  185 1    
   127   63  186 1    
   128   63  187 1    
   129   63  188 1    
   130   64   65 am   BACKBONE|DICT|INTERRES
   131   64  189 1    
   132   65   66 2    
   133   67   68 2    
   134   67   69 am   BACKBONE|DICT|INTERRES
   135   69   70 1    
   136   69  190 1    
   137   70   71 1    
   138   70   72 1    
   139   70  191 1    
   140   71  192 1    
   141   71  193 1    
   142   71  194 1    
   143   72   73 2    
   144   72   74 am   BACKBONE|DICT|INTERRES
   145   74   75 1    
   146   74  195 1    
   147   75   76 1    
   148   75   77 1    
   149   75  196 1    
   150   76  197 1    
   151   76  198 1    
   152   76  199 1    
   153   77   78 2    
   154   77   79 am   BACKBONE|DICT|INTERRES
   155   79   80 1    
   156   79  200 1    
   157   80   81 1    
   158   80   82 1    
   159   80  201 1    
   160   81  202 1    
   161   81  203 1    
   162   81  204 1    
   163   82   83 2    
   164   82   84 am   BACKBONE|DICT|INTERRES
   165   84   85 1    
   166   84  205 1    
   167   85   86 1    
   168   85   87 1    
   169   85  206 1    
   170   86  207 1    
   171   86  208 1    
   172   86  209 1    
   173   87   88 2    
   174   87   89 am   BACKBONE|DICT|INTERRES
   175   89   90 1    
   176   89  210 1    
   177   90   91 1    
   178   90   92 1    
   179   90  211 1    
   180   91  212 1    
   181   91  213 1    
   182   91  214 1    
   183   92   93 2    
   184   92   94 am   BACKBONE|DICT|INTERRES
   185   94   95 1    
   186   94  215 1    
   187   95   96 1    
   188   95   97 1    
   189   95  216 1    
   190   96  217 1    
   191   96  218 1    
   192   96  219 1    
   193   97   98 2    
   194   97   99 am   BACKBONE|DICT|INTERRES
   195   99  100 1    
   196   99  220 1    
   197  100  101 1    
   198  100  102 1    
   199  100  221 1    
   200  101  222 1    
   201  101  223 1    
   202  101  224 1    
   203  102  103 2    
   204  102  104 am   BACKBONE|DICT|INTERRES
   205  104  105 1    
   206  104  225 1    
   207  105  106 1    
   208  105  107 1    
   209  105  226 1    
   210  106  227 1    
   211  106  228 1    
   212  106  229 1    
   213  107  108 2    
   214  107  109 am   BACKBONE|DICT|INTERRES
   215  109  110 1    
   216  109  230 1    
   217  110  111 1    
   218  110  112 1    
   219  110  231 1    
   220  111  232 1    
   221  111  233 1    
   222  111  234 1    
   223  112  113 2    
   224  112  114 am   BACKBONE|DICT|INTERRES
   225  114  115 1    
   226  114  235 1    
   227  115  116 1    
   228  115  117 1    
   229  115  236 1    
   230  116  237 1    
   231  116  238 1    
   232  116  239 1    
   233  117  118 2    
   234  117  119 am   BACKBONE|DICT|INTERRES
   235  119  120 1    
   236  119  240 1    
   237  120  121 1    
   238  120  124 1    
   239  120  241 1    
   240  121  122 am   BACKBONE|DICT|INTERRES
   241  121  123 2    
   242  122  242 1    
   243  122  243 1    
   244  124  125 1    
   245  124  244 1    
   246  124  245 1    
   247  125  126 1    
   248  126  246 1    
   249  126  247 1    
@<TRIPOS>SUBSTRUCTURE
     1 UNK         1 GROUP             0       ****    0 ROOT    
