@<TRIPOS>MOLECULE
3R540
247   249    1
SMALL
USER_CHARGES


@<TRIPOS>ATOM
      1 CA          4.9043  -14.3872  -46.7992 C.3       0 UNK        -0.1800 
      2 C           3.7028  -15.0897  -47.4136 C.2       0 UNK         0.5000 
      3 O           3.2900  -16.1359  -46.9214 O.2       0 UNK        -0.5000 
      4 N           3.1348  -14.5190  -48.4823 N.am      1 UNK        -0.5000 
      5 CA          1.9459  -15.0432  -49.1672 C.3       1 UNK         0.1400 
      6 C6          1.9088  -14.5731  -50.6448 C.3       23 UNK        -0.0398 
      7 S7          0.9953  -15.7000  -51.7594 S.3       23 UNK        -0.2404 
      8 C8          2.3324  -16.5279  -52.6856 C.3       23 UNK        -0.0205 
      9 C9          2.6666  -17.8951  -52.1055 C.ar      23 UNK        -0.0193 
     10 C10         2.2679  -19.0582  -52.7711 C.ar      23 UNK        -0.1150 
     11 C11         2.5659  -20.3221  -52.2486 C.ar      23 UNK        -0.0193 
     12 C12         3.2630  -20.4098  -51.0387 C.ar      23 UNK        -0.1150 
     13 C13         3.6655  -19.2548  -50.3611 C.ar      23 UNK        -0.0193 
     14 C14         3.3824  -18.0015  -50.9113 C.ar      23 UNK        -0.1150 
     15 C15         4.3895  -19.3508  -49.0236 C.3       23 UNK        -0.0205 
     16 S16         3.3864  -20.1474  -47.7227 S.3       23 UNK        -0.2404 
     17 C17         1.8447  -19.1708  -47.7571 C.3       23 UNK        -0.0398 
     18 CA          0.5941  -20.0788  -47.7030 C.3       11 UNK         0.1400 
     19 N           0.3347  -20.5939  -46.3521 N.am      11 UNK        -0.5000 
     20 C          -0.6082  -21.4964  -46.0444 C.2       10 UNK         0.5000 
     21 O          -1.3043  -22.0654  -46.8837 O.2       10 UNK        -0.5000 
     22 CA         -0.8684  -21.7619  -44.5485 C.3       10 UNK         0.1400 
     23 CB          0.1344  -22.7717  -43.9711 C.3       10 UNK        -0.1800 
     24 N          -0.8579  -20.5296  -43.7577 N.am      10 UNK        -0.5000 
     25 C          -1.7708  -19.5539  -43.8807 C.2       9 UNK         0.5000 
     26 O          -2.7604  -19.6380  -44.6078 O.2       9 UNK        -0.5000 
     27 CA         -1.5071  -18.2450  -43.1116 C.3       9 UNK         0.1400 
     28 CB         -2.0295  -18.3338  -41.6705 C.3       9 UNK        -0.1800 
     29 N          -0.0897  -17.8862  -43.1008 N.am      9 UNK        -0.5000 
     30 C           0.6202  -17.5638  -44.1896 C.2       8 UNK         0.5000 
     31 O           0.1240  -17.4395  -45.3068 O.2       8 UNK        -0.5000 
     32 CA          2.1427  -17.4225  -44.0188 C.3       8 UNK         0.1400 
     33 CB          2.5347  -15.9926  -43.6466 C.3       8 UNK        -0.1800 
     34 N           2.6850  -18.3547  -43.0351 N.am      8 UNK        -0.5000 
     35 C           2.8036  -19.6718  -43.2437 C.2       7 UNK         0.5000 
     36 O           2.4828  -20.2244  -44.2946 O.2       7 UNK        -0.5000 
     37 CA          3.3280  -20.5117  -42.0651 C.3       7 UNK         0.1400 
     38 CB          4.8635  -20.5414  -42.0630 C.3       7 UNK        -0.1800 
     39 N           2.8499  -20.0122  -40.7744 N.am      7 UNK        -0.5000 
     40 C           1.5733  -20.0775  -40.3714 C.2       6 UNK         0.5000 
     41 O           0.6804  -20.6212  -41.0222 O.2       6 UNK        -0.5000 
     42 CA          1.2333  -19.3682  -39.0457 C.3       6 UNK         0.1400 
     43 CB          1.5247  -20.2867  -37.8497 C.3       6 UNK        -0.1800 
     44 N           1.9404  -18.0931  -38.8672 N.am      6 UNK        -0.5000 
     45 C           1.7912  -17.0296  -39.6686 C.2       5 UNK         0.5000 
     46 O           1.0739  -17.0366  -40.6686 O.2       5 UNK        -0.5000 
     47 CA          2.6227  -15.7758  -39.3319 C.3       5 UNK         0.1400 
     48 CB          4.0370  -15.9025  -39.9205 C.3       5 UNK        -0.1800 
     49 N           2.0141  -14.5395  -39.8344 N.am      5 UNK        -0.5000 
     50 C           0.8514  -14.0285  -39.4056 C.2       4 UNK         0.5000 
     51 O           0.1833  -14.5326  -38.5008 O.2       4 UNK        -0.5000 
     52 CA          0.3552  -12.7187  -40.0550 C.3       4 UNK         0.1400 
     53 CB          0.4729  -11.5525  -39.0597 C.3       4 UNK        -0.1800 
     54 N           1.0421  -12.3386  -41.2946 N.am      4 UNK        -0.5000 
     55 C           0.8162  -12.8899  -42.4937 C.2       3 UNK         0.5000 
     56 O           0.0752  -13.8601  -42.6661 O.2       3 UNK        -0.5000 
     57 CA          1.5356  -12.2307  -43.6919 C.3       3 UNK         0.1400 
     58 CB          3.0640  -12.3890  -43.6062 C.3       3 UNK        -0.1800 
     59 N           1.0624  -12.7654  -44.9732 N.am      3 UNK        -0.5000 
     60 C          -0.0834  -12.3935  -45.5617 C.2       2 UNK         0.5000 
     61 O          -0.7942  -11.4816  -45.1344 O.2       2 UNK        -0.5000 
     62 CA         -0.4995  -13.1534  -46.8366 C.3       2 UNK         0.1400 
     63 CB         -1.4141  -12.3198  -47.7582 C.3       2 UNK        -0.1800 
     64 N           0.6594  -13.6404  -47.5892 N.am      2 UNK        -0.5000 
     65 C           0.6400  -14.6984  -48.4143 C.2       1 UNK         0.5000 
     66 O          -0.3583  -15.3923  -48.5973 O.2       1 UNK        -0.5000 
     67 C          -0.6347  -19.3574  -48.2953 C.2       11 UNK         0.5000 
     68 O          -0.9643  -19.5963  -49.4551 O.2       11 UNK        -0.5000 
     69 N          -1.3122  -18.5278  -47.4892 N.am      12 UNK        -0.5000 
     70 CA         -2.5400  -17.8269  -47.8676 C.3       12 UNK         0.1400 
     71 CB         -2.9367  -16.8303  -46.7676 C.3       12 UNK        -0.1800 
     72 C          -3.6960  -18.7935  -48.1749 C.2       12 UNK         0.5000 
     73 O          -4.3773  -18.6159  -49.1833 O.2       12 UNK        -0.5000 
     74 N          -3.8653  -19.8213  -47.3295 N.am      13 UNK        -0.5000 
     75 CA         -4.8207  -20.9136  -47.5210 C.3       13 UNK         0.1400 
     76 CB         -4.8116  -21.8287  -46.2868 C.3       13 UNK        -0.1800 
     77 C          -4.5500  -21.7183  -48.8055 C.2       13 UNK         0.5000 
     78 O          -5.4874  -21.9870  -49.5597 O.2       13 UNK        -0.5000 
     79 N          -3.2715  -22.0513  -49.0344 N.am      14 UNK        -0.5000 
     80 CA         -2.7749  -22.7750  -50.2050 C.3       14 UNK         0.1400 
     81 CB         -1.3270  -23.2210  -49.9512 C.3       14 UNK        -0.1800 
     82 C          -2.8659  -21.9860  -51.5243 C.2       14 UNK         0.5000 
     83 O          -2.8647  -22.6012  -52.5888 O.2       14 UNK        -0.5000 
     84 N          -2.9678  -20.6531  -51.4624 N.am      15 UNK        -0.5000 
     85 CA         -3.1160  -19.7710  -52.6210 C.3       15 UNK         0.1400 
     86 CB         -2.5586  -18.3799  -52.2695 C.3       15 UNK        -0.1800 
     87 C          -4.5716  -19.7314  -53.1389 C.2       15 UNK         0.5000 
     88 O          -5.1193  -18.6504  -53.3603 O.2       15 UNK        -0.5000 
     89 N          -5.1776  -20.9174  -53.3010 N.am      16 UNK        -0.5000 
     90 CA         -6.5292  -21.2065  -53.7949 C.3       16 UNK         0.1400 
     91 CB         -6.7326  -20.6292  -55.2129 C.3       16 UNK        -0.1800 
     92 C          -7.6758  -20.7761  -52.8555 C.2       16 UNK         0.5000 
     93 O          -8.8387  -20.9646  -53.2174 O.2       16 UNK        -0.5000 
     94 N          -7.3622  -20.2025  -51.6858 N.am      17 UNK        -0.5000 
     95 CA         -8.3486  -19.6598  -50.7513 C.3       17 UNK         0.1400 
     96 CB         -7.6608  -18.6868  -49.7852 C.3       17 UNK        -0.1800 
     97 C          -9.1030  -20.7519  -49.9755 C.2       17 UNK         0.5000 
     98 O         -10.2974  -20.5907  -49.7197 O.2       17 UNK        -0.5000 
     99 N          -8.4020  -21.8351  -49.6193 N.am      18 UNK        -0.5000 
    100 CA        -8.9587  -22.9679  -48.8788 C.3       18 UNK         0.1400 
    101 CB        -8.7483  -22.7457  -47.3719 C.3       18 UNK        -0.1800 
    102 C         -8.3793  -24.3212  -49.3236 C.2       18 UNK         0.5000 
    103 O         -9.0252  -25.3452  -49.0952 O.2       18 UNK        -0.5000 
    104 N         -7.1937  -24.3257  -49.9430 N.am      19 UNK        -0.5000 
    105 CA        -6.4986  -25.5188  -50.4131 C.3       19 UNK         0.1400 
    106 CB        -5.6114  -26.0583  -49.2749 C.3       19 UNK        -0.1800 
    107 C         -5.6591  -25.1752  -51.6517 C.2       19 UNK         0.5000 
    108 O         -5.4950  -23.9953  -51.9677 O.2       19 UNK        -0.5000 
    109 N         -5.1270  -26.2235  -52.2976 N.am      20 UNK        -0.5000 
    110 CA        -4.1582  -26.2100  -53.4001 C.3       20 UNK         0.1400 
    111 CB        -2.7312  -26.0404  -52.8348 C.3       20 UNK        -0.1800 
    112 C         -4.5240  -25.2400  -54.5472 C.2       20 UNK         0.5000 
    113 O         -5.6292  -25.3498  -55.0826 O.2       20 UNK        -0.5000 
    114 N         -3.6067  -24.3342  -54.9097 N.am      21 UNK        -0.5000 
    115 CA        -3.7809  -23.3046  -55.9324 C.3       21 UNK         0.1400 
    116 CB        -3.9505  -23.9174  -57.3386 C.3       21 UNK        -0.1800 
    117 C         -2.6030  -22.3185  -55.9335 C.2       21 UNK         0.5000 
    118 O         -2.8268  -21.1143  -56.0563 O.2       21 UNK        -0.5000 
    119 N         -1.3749  -22.8529  -55.8391 N.am      22 UNK        -0.5000 
    120 CA        -0.0968  -22.1304  -56.0176 C.3       22 UNK         0.1400 
    121 C          0.1444  -21.5991  -57.4682 C.2       22 UNK         0.5000 
    122 N         -0.5573  -22.0929  -58.4817 N.am      22 UNK        -0.7600 
    123 O          1.0053  -20.7527  -57.6940 O.2       22 UNK        -0.5000 
    124 C124        0.1755  -21.0476  -54.9318 C.3       23 UNK        -0.0398 
    125 S125        0.3776  -21.7561  -53.2602 S.3       23 UNK        -0.2404 
    126 C126        2.1752  -21.5958  -52.9940 C.3       23 UNK        -0.0205 
    127 H127        5.7837  -15.0279  -46.8618 H         1 UNK         0.0600 
    128 H128        4.7142  -14.1705  -45.7481 H         1 UNK         0.0600 
    129 H129        5.1288  -13.4482  -47.3055 H         1 UNK         0.0600 
    130 H130        3.5242  -13.6643  -48.8551 H         1 UNK         0.3000 
    131 H131        2.0179  -16.1320  -49.1636 H         1 UNK         0.0600 
    132 H132        1.4735  -13.5754  -50.7266 H         1 UNK         0.0800 
    133 H133        2.9249  -14.4693  -51.0262 H         1 UNK         0.0800 
    134 H134        3.2301  -15.9101  -52.7207 H         1 UNK         0.0800 
    135 H135        2.0084  -16.6330  -53.7221 H         1 UNK         0.0800 
    136 H136        1.7248  -18.9728  -53.6992 H         1 UNK         0.1150 
    137 H137        3.4920  -21.3780  -50.6159 H         1 UNK         0.1150 
    138 H138        3.7037  -17.1053  -50.4008 H         1 UNK         0.1150 
    139 H139        5.3117  -19.9176  -49.1570 H         1 UNK         0.0800 
    140 H140        4.6851  -18.3607  -48.6721 H         1 UNK         0.0800 
    141 H141        1.8294  -18.5494  -48.6516 H         1 UNK         0.0800 
    142 H142        1.8544  -18.4692  -46.9272 H         1 UNK         0.0800 
    143 H143        0.7758  -20.9431  -48.3456 H         1 UNK         0.0600 
    144 H144        0.9183  -20.2270  -45.6079 H         1 UNK         0.3000 
    145 H145       -1.8646  -22.2006  -44.4606 H         1 UNK         0.0600 
    146 H146       -0.0691  -22.9719  -42.9190 H         1 UNK         0.0600 
    147 H147        0.0736  -23.7225  -44.5019 H         1 UNK         0.0600 
    148 H148        1.1621  -22.4210  -44.0514 H         1 UNK         0.0600 
    149 H149       -0.0938  -20.4046  -43.1052 H         1 UNK         0.3000 
    150 H150       -2.0486  -17.4442  -43.6188 H         1 UNK         0.0600 
    151 H151       -3.0993  -18.5453  -41.6571 H         1 UNK         0.0600 
    152 H152       -1.8750  -17.3952  -41.1376 H         1 UNK         0.0600 
    153 H153       -1.5322  -19.1230  -41.1073 H         1 UNK         0.0600 
    154 H154        0.3730  -17.8578  -42.1959 H         1 UNK         0.3000 
    155 H155        2.6084  -17.6525  -44.9763 H         1 UNK         0.0600 
    156 H156        2.1250  -15.6956  -42.6824 H         1 UNK         0.0600 
    157 H157        2.1581  -15.2972  -44.3954 H         1 UNK         0.0600 
    158 H158        3.6181  -15.8790  -43.6094 H         1 UNK         0.0600 
    159 H159        2.9084  -17.9812  -42.1258 H         1 UNK         0.3000 
    160 H160        2.9654  -21.5337  -42.1956 H         1 UNK         0.0600 
    161 H161        5.2871  -19.5470  -41.9164 H         1 UNK         0.0600 
    162 H162        5.2464  -20.9251  -43.0097 H         1 UNK         0.0600 
    163 H163        5.2442  -21.1891  -41.2732 H         1 UNK         0.0600 
    164 H164        3.5240  -19.5547  -40.1787 H         1 UNK         0.3000 
    165 H165        0.1624  -19.1543  -39.0558 H         1 UNK         0.0600 
    166 H166        1.1985  -19.8317  -36.9143 H         1 UNK         0.0600 
    167 H167        0.9963  -21.2359  -37.9490 H         1 UNK         0.0600 
    168 H168        2.5885  -20.5107  -37.7619 H         1 UNK         0.0600 
    169 H169        2.5554  -18.0264  -38.0688 H         1 UNK         0.3000 
    170 H170        2.7005  -15.6966  -38.2456 H         1 UNK         0.0600 
    171 H171        4.5408  -16.7954  -39.5483 H         1 UNK         0.0600 
    172 H172        4.0191  -15.9658  -41.0087 H         1 UNK         0.0600 
    173 H173        4.6552  -15.0474  -39.6462 H         1 UNK         0.0600 
    174 H174        2.4871  -14.0722  -40.5921 H         1 UNK         0.3000 
    175 H175       -0.7039  -12.8596  -40.2817 H         1 UNK         0.0600 
    176 H176        1.5124  -11.3514  -38.7974 H         1 UNK         0.0600 
    177 H177        0.0460  -10.6374  -39.4707 H         1 UNK         0.0600 
    178 H178       -0.0625  -11.7694  -38.1343 H         1 UNK         0.0600 
    179 H179        1.6721  -11.5520  -41.2289 H         1 UNK         0.3000 
    180 H180        1.3133  -11.1618  -43.6585 H         1 UNK         0.0600 
    181 H181        3.3729  -13.4307  -43.5622 H         1 UNK         0.0600 
    182 H182        3.4615  -11.8974  -42.7178 H         1 UNK         0.0600 
    183 H183        3.5540  -11.9336  -44.4670 H         1 UNK         0.0600 
    184 H184        1.5499  -13.5698  -45.3360 H         1 UNK         0.3000 
    185 H185       -1.0698  -14.0139  -46.4828 H         1 UNK         0.0600 
    186 H186       -1.7491  -12.9004  -48.6178 H         1 UNK         0.0600 
    187 H187       -2.3096  -11.9871  -47.2322 H         1 UNK         0.0600 
    188 H188       -0.9009  -11.4334  -48.1322 H         1 UNK         0.0600 
    189 H189        1.5123  -13.1074  -47.4951 H         1 UNK         0.3000 
    190 H190       -0.9251  -18.3090  -46.5746 H         1 UNK         0.3000 
    191 H191       -2.3278  -17.2622  -48.7777 H         1 UNK         0.0600 
    192 H192       -3.7880  -16.2256  -47.0818 H         1 UNK         0.0600 
    193 H193       -2.1180  -16.1485  -46.5410 H         1 UNK         0.0600 
    194 H194       -3.2161  -17.3337  -45.8429 H         1 UNK         0.0600 
    195 H195       -3.2895  -19.8611  -46.4934 H         1 UNK         0.3000 
    196 H196       -5.8170  -20.4777  -47.6043 H         1 UNK         0.0600 
    197 H197       -3.8200  -22.2347  -46.0909 H         1 UNK         0.0600 
    198 H198       -5.1311  -21.2887  -45.3954 H         1 UNK         0.0600 
    199 H199       -5.4854  -22.6755  -46.4161 H         1 UNK         0.0600 
    200 H200       -2.5769  -21.8164  -48.3305 H         1 UNK         0.3000 
    201 H201       -3.3854  -23.6712  -50.3196 H         1 UNK         0.0600 
    202 H202       -1.2569  -23.8554  -49.0676 H         1 UNK         0.0600 
    203 H203       -0.6657  -22.3664  -49.8068 H         1 UNK         0.0600 
    204 H204       -0.9397  -23.7933  -50.7951 H         1 UNK         0.0600 
    205 H205       -2.9250  -20.2072  -50.5550 H         1 UNK         0.3000 
    206 H206       -2.5061  -20.1638  -53.4356 H         1 UNK         0.0600 
    207 H207       -1.5162  -18.4419  -51.9550 H         1 UNK         0.0600 
    208 H208       -2.5949  -17.7130  -53.1315 H         1 UNK         0.0600 
    209 H209       -3.1237  -17.9104  -51.4644 H         1 UNK         0.0600 
    210 H210       -4.6353  -21.7395  -53.0494 H         1 UNK         0.3000 
    211 H211       -6.5861  -22.2935  -53.8680 H         1 UNK         0.0600 
    212 H212       -7.6236  -21.0504  -55.6796 H         1 UNK         0.0600 
    213 H213       -5.8902  -20.8456  -55.8681 H         1 UNK         0.0600 
    214 H214       -6.8609  -19.5466  -55.1918 H         1 UNK         0.0600 
    215 H215       -6.3873  -20.0961  -51.4441 H         1 UNK         0.3000 
    216 H216       -9.0843  -19.0919  -51.3251 H         1 UNK         0.0600 
    217 H217       -6.9408  -19.1998  -49.1507 H         1 UNK         0.0600 
    218 H218       -8.3888  -18.2057  -49.1311 H         1 UNK         0.0600 
    219 H219       -7.1325  -17.8990  -50.3229 H         1 UNK         0.0600 
    220 H220       -7.4102  -21.8655  -49.8340 H         1 UNK         0.3000 
    221 H221      -10.0327  -23.0306  -49.0671 H         1 UNK         0.0600 
    222 H222       -9.2584  -21.8449  -47.0307 H         1 UNK         0.0600 
    223 H223       -7.6915  -22.6438  -47.1298 H         1 UNK         0.0600 
    224 H224       -9.1416  -23.5814  -46.7916 H         1 UNK         0.0600 
    225 H225       -6.6873  -23.4624  -50.1150 H         1 UNK         0.3000 
    226 H226       -7.2243  -26.2804  -50.7063 H         1 UNK         0.0600 
    227 H227       -4.8706  -25.3207  -48.9631 H         1 UNK         0.0600 
    228 H228       -6.2076  -26.3209  -48.4009 H         1 UNK         0.0600 
    229 H229       -5.0739  -26.9570  -49.5788 H         1 UNK         0.0600 
    230 H230       -5.3762  -27.1461  -51.9710 H         1 UNK         0.3000 
    231 H231       -4.2032  -27.2038  -53.8477 H         1 UNK         0.0600 
    232 H232       -2.6168  -25.1078  -52.2869 H         1 UNK         0.0600 
    233 H233       -1.9779  -26.0669  -53.6230 H         1 UNK         0.0600 
    234 H234       -2.4924  -26.8496  -52.1448 H         1 UNK         0.0600 
    235 H235       -2.8026  -24.2110  -54.3065 H         1 UNK         0.3000 
    236 H236       -4.6812  -22.7442  -55.6840 H         1 UNK         0.0600 
    237 H237       -4.8827  -24.4740  -57.4282 H         1 UNK         0.0600 
    238 H238       -3.9753  -23.1400  -58.1036 H         1 UNK         0.0600 
    239 H239       -3.1324  -24.5954  -57.5834 H         1 UNK         0.0600 
    240 H240       -1.2924  -23.8561  -55.7678 H         1 UNK         0.3000 
    241 H241        0.6752  -22.8911  -55.8972 H         1 UNK         0.0600 
    242 H242       -0.3836  -21.7514  -59.4143 H         1 UNK         0.3800 
    243 H243       -1.2527  -22.8047  -58.3312 H         1 UNK         0.3800 
    244 H244       -0.6237  -20.3076  -54.9082 H         1 UNK         0.0800 
    245 H245        1.0792  -20.4901  -55.1749 H         1 UNK         0.0800 
    246 H246        2.5022  -22.4719  -52.4323 H         1 UNK         0.0800 
    247 H247        2.7066  -21.6393  -53.9454 H         1 UNK         0.0800 
@<TRIPOS>BOND
     1    1    2 1    
     2    1  127 1    
     3    1  128 1    
     4    1  129 1    
     5    2    3 2    
     6    2    4 am   BACKBONE|DICT|INTERRES
     7    4    5 1    
     8    4  130 1    
     9    5    6 1    
    10    5   65 1    
    11    5  131 1    
    12    6    7 1    
    13    6  132 1    
    14    6  133 1    
    15    7    8 1    
    16    8    9 1    
    17    8  134 1    
    18    8  135 1    
    19    9   10 ar   
    20    9   14 ar   
    21   10   11 ar   
    22   10  136 1    
    23   11   12 ar   
    24   11  126 1    
    25   12   13 ar   
    26   12  137 1    
    27   13   14 ar   
    28   13   15 1    
    29   14  138 1    
    30   15   16 1    
    31   15  139 1    
    32   15  140 1    
    33   16   17 1    
    34   17   18 1    
    35   17  141 1    
    36   17  142 1    
    37   18   19 1    
    38   18   67 1    
    39   18  143 1    
    40   19   20 am   BACKBONE|DICT|INTERRES
    41   19  144 1    
    42   20   21 2    
    43   20   22 1    
    44   22   23 1    
    45   22   24 1    
    46   22  145 1    
    47   23  146 1    
    48   23  147 1    
    49   23  148 1    
    50   24   25 am   BACKBONE|DICT|INTERRES
    51   24  149 1    
    52   25   26 2    
    53   25   27 1    
    54   27   28 1    
    55   27   29 1    
    56   27  150 1    
    57   28  151 1    
    58   28  152 1    
    59   28  153 1    
    60   29   30 am   BACKBONE|DICT|INTERRES
    61   29  154 1    
    62   30   31 2    
    63   30   32 1    
    64   32   33 1    
    65   32   34 1    
    66   32  155 1    
    67   33  156 1    
    68   33  157 1    
    69   33  158 1    
    70   34   35 am   BACKBONE|DICT|INTERRES
    71   34  159 1    
    72   35   36 2    
    73   35   37 1    
    74   37   38 1    
    75   37   39 1    
    76   37  160 1    
    77   38  161 1    
    78   38  162 1    
    79   38  163 1    
    80   39   40 am   BACKBONE|DICT|INTERRES
    81   39  164 1    
    82   40   41 2    
    83   40   42 1    
    84   42   43 1    
    85   42   44 1    
    86   42  165 1    
    87   43  166 1    
    88   43  167 1    
    89   43  168 1    
    90   44   45 am   BACKBONE|DICT|INTERRES
    91   44  169 1    
    92   45   46 2    
    93   45   47 1    
    94   47   48 1    
    95   47   49 1    
    96   47  170 1    
    97   48  171 1    
    98   48  172 1    
    99   48  173 1    
   100   49   50 am   BACKBONE|DICT|INTERRES
   101   49  174 1    
   102   50   51 2    
   103   50   52 1    
   104   52   53 1    
   105   52   54 1    
   106   52  175 1    
   107   53  176 1    
   108   53  177 1    
   109   53  178 1    
   110   54   55 am   BACKBONE|DICT|INTERRES
   111   54  179 1    
   112   55   56 2    
   113   55   57 1    
   114   57   58 1    
   115   57   59 1    
   116   57  180 1    
   117   58  181 1    
   118   58  182 1    
   119   58  183 1    
   120   59   60 am   BACKBONE|DICT|INTERRES
   121   59  184 1    
   122   60   61 2    
   123   60   62 1    
   124   62   63 1    
   125   62   64 1    
   126   62  185 1    
   127   63  186 1    
   128   63  187 1    
   129   63  188 1    
   130   64   65 am   BACKBONE|DICT|INTERRES
   131   64  189 1    
   132   65   66 2    
   133   67   68 2    
   134   67   69 am   BACKBONE|DICT|INTERRES
   135   69   70 1    
   136   69  190 1    
   137   70   71 1    
   138   70   72 1    
   139   70  191 1    
   140   71  192 1    
   141   71  193 1    
   142   71  194 1    
   143   72   73 2    
   144   72   74 am   BACKBONE|DICT|INTERRES
   145   74   75 1    
   146   74  195 1    
   147   75   76 1    
   148   75   77 1    
   149   75  196 1    
   150   76  197 1    
   151   76  198 1    
   152   76  199 1    
   153   77   78 2    
   154   77   79 am   BACKBONE|DICT|INTERRES
   155   79   80 1    
   156   79  200 1    
   157   80   81 1    
   158   80   82 1    
   159   80  201 1    
   160   81  202 1    
   161   81  203 1    
   162   81  204 1    
   163   82   83 2    
   164   82   84 am   BACKBONE|DICT|INTERRES
   165   84   85 1    
   166   84  205 1    
   167   85   86 1    
   168   85   87 1    
   169   85  206 1    
   170   86  207 1    
   171   86  208 1    
   172   86  209 1    
   173   87   88 2    
   174   87   89 am   BACKBONE|DICT|INTERRES
   175   89   90 1    
   176   89  210 1    
   177   90   91 1    
   178   90   92 1    
   179   90  211 1    
   180   91  212 1    
   181   91  213 1    
   182   91  214 1    
   183   92   93 2    
   184   92   94 am   BACKBONE|DICT|INTERRES
   185   94   95 1    
   186   94  215 1    
   187   95   96 1    
   188   95   97 1    
   189   95  216 1    
   190   96  217 1    
   191   96  218 1    
   192   96  219 1    
   193   97   98 2    
   194   97   99 am   BACKBONE|DICT|INTERRES
   195   99  100 1    
   196   99  220 1    
   197  100  101 1    
   198  100  102 1    
   199  100  221 1    
   200  101  222 1    
   201  101  223 1    
   202  101  224 1    
   203  102  103 2    
   204  102  104 am   BACKBONE|DICT|INTERRES
   205  104  105 1    
   206  104  225 1    
   207  105  106 1    
   208  105  107 1    
   209  105  226 1    
   210  106  227 1    
   211  106  228 1    
   212  106  229 1    
   213  107  108 2    
   214  107  109 am   BACKBONE|DICT|INTERRES
   215  109  110 1    
   216  109  230 1    
   217  110  111 1    
   218  110  112 1    
   219  110  231 1    
   220  111  232 1    
   221  111  233 1    
   222  111  234 1    
   223  112  113 2    
   224  112  114 am   BACKBONE|DICT|INTERRES
   225  114  115 1    
   226  114  235 1    
   227  115  116 1    
   228  115  117 1    
   229  115  236 1    
   230  116  237 1    
   231  116  238 1    
   232  116  239 1    
   233  117  118 2    
   234  117  119 am   BACKBONE|DICT|INTERRES
   235  119  120 1    
   236  119  240 1    
   237  120  121 1    
   238  120  124 1    
   239  120  241 1    
   240  121  122 am   BACKBONE|DICT|INTERRES
   241  121  123 2    
   242  122  242 1    
   243  122  243 1    
   244  124  125 1    
   245  124  244 1    
   246  124  245 1    
   247  125  126 1    
   248  126  246 1    
   249  126  247 1    
@<TRIPOS>SUBSTRUCTURE
     1 UNK         1 GROUP             0       ****    0 ROOT    
