@<TRIPOS>MOLECULE
3R540
247   249    1
SMALL
USER_CHARGES


@<TRIPOS>ATOM
      1 CA          1.3472   -8.5650  -45.0834 C.3       0 UNK        -0.1800 
      2 C           1.8518   -9.7249  -45.9293 C.2       0 UNK         0.5000 
      3 O           2.8434   -9.5716  -46.6437 O.2       0 UNK        -0.5000 
      4 N           1.1865  -10.8852  -45.8527 N.am      1 UNK        -0.5000 
      5 CA          1.5600  -12.1097  -46.5673 C.3       1 UNK         0.1400 
      6 C6          0.3298  -12.9961  -46.8947 C.3       23 UNK        -0.0398 
      7 S7          0.6516  -14.0484  -48.3495 S.3       23 UNK        -0.2404 
      8 C8         -0.8907  -15.0005  -48.4684 C.3       23 UNK        -0.0205 
      9 C9         -0.7611  -16.1017  -49.5081 C.ar      23 UNK        -0.0193 
     10 C10        -1.2720  -15.9341  -50.7981 C.ar      23 UNK        -0.1150 
     11 C11        -1.1296  -16.9467  -51.7528 C.ar      23 UNK        -0.0193 
     12 C12        -0.4656  -18.1285  -51.4109 C.ar      23 UNK        -0.1150 
     13 C13         0.0515  -18.3055  -50.1247 C.ar      23 UNK        -0.0193 
     14 C14        -0.1075  -17.2910  -49.1793 C.ar      23 UNK        -0.1150 
     15 C15         0.8119  -19.5746  -49.7684 C.3       23 UNK        -0.0205 
     16 S16        -0.2695  -21.0350  -49.7372 S.3       23 UNK        -0.2404 
     17 C17        -1.2545  -20.7605  -48.2262 C.3       23 UNK        -0.0398 
     18 CA         -1.0715  -21.9275  -47.2164 C.3       11 UNK         0.1400 
     19 N          -0.0737  -21.6257  -46.1802 N.am      11 UNK        -0.5000 
     20 C           0.5114  -22.5379  -45.3893 C.2       10 UNK         0.5000 
     21 O           0.2595  -23.7413  -45.4350 O.2       10 UNK        -0.5000 
     22 CA          1.5012  -22.0135  -44.3338 C.3       10 UNK         0.1400 
     23 CB          2.8451  -21.6206  -44.9674 C.3       10 UNK        -0.1800 
     24 N           0.9434  -20.8824  -43.5928 N.am      10 UNK        -0.5000 
     25 C          -0.0128  -20.9968  -42.6597 C.2       9 UNK         0.5000 
     26 O          -0.4586  -22.0770  -42.2739 O.2       9 UNK        -0.5000 
     27 CA         -0.5898  -19.6937  -42.0729 C.3       9 UNK         0.1400 
     28 CB          0.1956  -19.2696  -40.8231 C.3       9 UNK        -0.1800 
     29 N          -0.6038  -18.5872  -43.0289 N.am      9 UNK        -0.5000 
     30 C          -1.3298  -18.5521  -44.1551 C.2       8 UNK         0.5000 
     31 O          -2.1239  -19.4300  -44.4871 O.2       8 UNK        -0.5000 
     32 CA         -1.0714  -17.3650  -45.1003 C.3       8 UNK         0.1400 
     33 CB         -1.8664  -16.1300  -44.6519 C.3       8 UNK        -0.1800 
     34 N           0.3549  -17.0401  -45.1935 N.am      8 UNK        -0.5000 
     35 C           1.2818  -17.8712  -45.6933 C.2       7 UNK         0.5000 
     36 O           1.0139  -18.9708  -46.1748 O.2       7 UNK        -0.5000 
     37 CA          2.7483  -17.4240  -45.6126 C.3       7 UNK         0.1400 
     38 CB          3.1470  -16.6260  -46.8607 C.3       7 UNK        -0.1800 
     39 N           2.9980  -16.6368  -44.4061 N.am      7 UNK        -0.5000 
     40 C           3.1757  -17.1832  -43.1946 C.2       6 UNK         0.5000 
     41 O           3.2082  -18.3980  -42.9951 O.2       6 UNK        -0.5000 
     42 CA          3.2873  -16.2195  -41.9986 C.3       6 UNK         0.1400 
     43 CB          4.7489  -15.8214  -41.7457 C.3       6 UNK        -0.1800 
     44 N           2.4540  -15.0220  -42.1496 N.am      6 UNK        -0.5000 
     45 C           1.1127  -15.0577  -42.1272 C.2       5 UNK         0.5000 
     46 O           0.4820  -16.1089  -42.0097 O.2       5 UNK        -0.5000 
     47 CA          0.3382  -13.7334  -42.2593 C.3       5 UNK         0.1400 
     48 CB         -0.9835  -13.7505  -41.4598 C.3       5 UNK        -0.1800 
     49 N           1.1359  -12.5801  -41.8470 N.am      5 UNK        -0.5000 
     50 C           0.8933  -11.3232  -42.2397 C.2       4 UNK         0.5000 
     51 O           0.0468  -11.0175  -43.0805 O.2       4 UNK        -0.5000 
     52 CA          1.7572  -10.2305  -41.6004 C.3       4 UNK         0.1400 
     53 CB          1.4051  -10.0322  -40.1142 C.3       4 UNK        -0.1800 
     54 N           3.1592  -10.5842  -41.7673 N.am      4 UNK        -0.5000 
     55 C           4.2112   -9.7717  -41.6577 C.2       3 UNK         0.5000 
     56 O           4.1350   -8.5886  -41.3250 O.2       3 UNK        -0.5000 
     57 CA          5.5824  -10.3783  -42.0181 C.3       3 UNK         0.1400 
     58 CB          6.1167  -11.2725  -40.8820 C.3       3 UNK        -0.1800 
     59 N           5.6005  -11.0767  -43.3136 N.am      3 UNK        -0.5000 
     60 C           4.9686  -12.2037  -43.6715 C.2       2 UNK         0.5000 
     61 O           4.2569  -12.8647  -42.9112 O.2       2 UNK        -0.5000 
     62 CA          5.1114  -12.6109  -45.1475 C.3       2 UNK         0.1400 
     63 CB          5.5369  -14.0796  -45.3185 C.3       2 UNK        -0.1800 
     64 N           3.8886  -12.2969  -45.8899 N.am      2 UNK        -0.5000 
     65 C           2.6666  -12.8393  -45.7762 C.2       1 UNK         0.5000 
     66 O           2.3889  -13.8114  -45.0690 O.2       1 UNK        -0.5000 
     67 C          -2.4280  -22.4079  -46.6560 C.2       11 UNK         0.5000 
     68 O          -3.2282  -22.9417  -47.4236 O.2       11 UNK        -0.5000 
     69 N          -2.6732  -22.2529  -45.3471 N.am      12 UNK        -0.5000 
     70 CA         -3.8329  -22.8188  -44.6544 C.3       12 UNK         0.1400 
     71 CB         -3.8556  -22.3305  -43.1990 C.3       12 UNK        -0.1800 
     72 C          -3.8647  -24.3596  -44.7152 C.2       12 UNK         0.5000 
     73 O          -4.9481  -24.9402  -44.7985 O.2       12 UNK        -0.5000 
     74 N          -2.6812  -24.9919  -44.7322 N.am      13 UNK        -0.5000 
     75 CA         -2.5164  -26.4115  -45.0285 C.3       13 UNK         0.1400 
     76 CB         -1.1046  -26.8638  -44.6258 C.3       13 UNK        -0.1800 
     77 C          -2.7771  -26.6585  -46.5250 C.2       13 UNK         0.5000 
     78 O          -2.1287  -26.0362  -47.3680 O.2       13 UNK        -0.5000 
     79 N          -3.7439  -27.5383  -46.8154 N.am      14 UNK        -0.5000 
     80 CA         -4.2460  -27.8980  -48.1481 C.3       14 UNK         0.1400 
     81 CB         -3.1343  -28.5159  -49.0238 C.3       14 UNK        -0.1800 
     82 C          -5.0033  -26.7642  -48.8755 C.2       14 UNK         0.5000 
     83 O          -5.2367  -26.8857  -50.0777 O.2       14 UNK        -0.5000 
     84 N          -5.4023  -25.7098  -48.1447 N.am      15 UNK        -0.5000 
     85 CA         -6.2484  -24.5895  -48.5783 C.3       15 UNK         0.1400 
     86 CB         -7.7133  -25.0599  -48.6858 C.3       15 UNK        -0.1800 
     87 C          -5.7543  -23.9069  -49.8720 C.2       15 UNK         0.5000 
     88 O          -6.4493  -23.9255  -50.8897 O.2       15 UNK        -0.5000 
     89 N          -4.5364  -23.3526  -49.8144 N.am      16 UNK        -0.5000 
     90 CA         -3.8199  -22.6764  -50.9023 C.3       16 UNK         0.1400 
     91 CB         -4.5046  -21.3375  -51.2468 C.3       16 UNK        -0.1800 
     92 C          -3.5967  -23.5902  -52.1265 C.2       16 UNK         0.5000 
     93 O          -3.7492  -23.1504  -53.2688 O.2       16 UNK        -0.5000 
     94 N          -3.2643  -24.8594  -51.8398 N.am      17 UNK        -0.5000 
     95 CA         -3.0882  -25.9737  -52.7762 C.3       17 UNK         0.1400 
     96 CB         -1.8651  -25.7319  -53.6866 C.3       17 UNK        -0.1800 
     97 C          -4.3814  -26.2663  -53.5628 C.2       17 UNK         0.5000 
     98 O          -4.3694  -26.2752  -54.7927 O.2       17 UNK        -0.5000 
     99 N          -5.4901  -26.4472  -52.8308 N.am      18 UNK        -0.5000 
    100 CA        -6.8645  -26.5855  -53.3287 C.3       18 UNK         0.1400 
    101 CB        -7.0510  -27.9373  -54.0478 C.3       18 UNK        -0.1800 
    102 C         -7.2932  -25.3742  -54.1859 C.2       18 UNK         0.5000 
    103 O         -7.8809  -25.5379  -55.2565 O.2       18 UNK        -0.5000 
    104 N         -6.9382  -24.1787  -53.6964 N.am      19 UNK        -0.5000 
    105 CA        -7.0974  -22.8565  -54.3041 C.3       19 UNK         0.1400 
    106 CB        -8.5897  -22.5092  -54.4800 C.3       19 UNK        -0.1800 
    107 C         -6.2881  -22.6263  -55.5999 C.2       19 UNK         0.5000 
    108 O         -6.4935  -21.6003  -56.2497 O.2       19 UNK        -0.5000 
    109 N         -5.3646  -23.5291  -55.9610 N.am      20 UNK        -0.5000 
    110 CA        -4.5492  -23.4113  -57.1728 C.3       20 UNK         0.1400 
    111 CB        -3.8495  -24.7456  -57.4673 C.3       20 UNK        -0.1800 
    112 C         -3.5167  -22.2698  -57.1194 C.2       20 UNK         0.5000 
    113 O         -3.1237  -21.7773  -58.1783 O.2       20 UNK        -0.5000 
    114 N         -3.0858  -21.8716  -55.9123 N.am      21 UNK        -0.5000 
    115 CA        -2.0952  -20.8114  -55.7211 C.3       21 UNK         0.1400 
    116 CB        -1.5467  -20.8586  -54.2873 C.3       21 UNK        -0.1800 
    117 C         -2.6365  -19.4079  -56.0548 C.2       21 UNK         0.5000 
    118 O         -1.9204  -18.6249  -56.6804 O.2       21 UNK        -0.5000 
    119 N         -3.8744  -19.1123  -55.6358 N.am      22 UNK        -0.5000 
    120 CA        -4.5124  -17.7895  -55.7728 C.3       22 UNK         0.1400 
    121 C         -6.0480  -17.7836  -55.5071 C.2       22 UNK         0.5000 
    122 N         -6.7490  -18.9090  -55.5322 N.am      22 UNK        -0.7600 
    123 O         -6.6398  -16.7286  -55.2936 O.2       22 UNK        -0.5000 
    124 C124       -3.7635  -16.6576  -55.0046 C.3       23 UNK        -0.0398 
    125 S125       -3.4637  -17.0156  -53.2367 S.3       23 UNK        -0.2404 
    126 C126       -1.6664  -16.7505  -53.1602 C.3       23 UNK        -0.0205 
    127 H127        1.1791   -7.6898  -45.7109 H         1 UNK         0.0600 
    128 H128        2.0869   -8.3046  -44.3265 H         1 UNK         0.0600 
    129 H129        0.4096   -8.8043  -44.5822 H         1 UNK         0.0600 
    130 H130        0.4426  -10.9772  -45.1692 H         1 UNK         0.3000 
    131 H131        1.9938  -11.8084  -47.5239 H         1 UNK         0.0600 
    132 H132        0.0229  -13.6059  -46.0439 H         1 UNK         0.0800 
    133 H133       -0.5271  -12.3669  -47.1397 H         1 UNK         0.0800 
    134 H134       -1.1223  -15.4452  -47.5019 H         1 UNK         0.0800 
    135 H135       -1.7172  -14.3317  -48.7135 H         1 UNK         0.0800 
    136 H136       -1.7755  -15.0149  -51.0632 H         1 UNK         0.1150 
    137 H137       -0.3431  -18.9115  -52.1452 H         1 UNK         0.1150 
    138 H138        0.2970  -17.4138  -48.1890 H         1 UNK         0.1150 
    139 H139        1.5956  -19.7354  -50.5097 H         1 UNK         0.0800 
    140 H140        1.3184  -19.4770  -48.8071 H         1 UNK         0.0800 
    141 H141       -2.2897  -20.6564  -48.5575 H         1 UNK         0.0800 
    142 H142       -1.0049  -19.8020  -47.7701 H         1 UNK         0.0800 
    143 H143       -0.6952  -22.7976  -47.7597 H         1 UNK         0.0600 
    144 H144        0.2149  -20.6535  -46.0978 H         1 UNK         0.3000 
    145 H145        1.6959  -22.8227  -43.6265 H         1 UNK         0.0600 
    146 H146        3.3136  -22.4829  -45.4431 H         1 UNK         0.0600 
    147 H147        2.7327  -20.8522  -45.7311 H         1 UNK         0.0600 
    148 H148        3.5404  -21.2454  -44.2161 H         1 UNK         0.0600 
    149 H149        1.2639  -19.9602  -43.8519 H         1 UNK         0.3000 
    150 H150       -1.6220  -19.8936  -41.7778 H         1 UNK         0.0600 
    151 H151        0.2067  -20.0662  -40.0781 H         1 UNK         0.0600 
    152 H152       -0.2520  -18.3924  -40.3555 H         1 UNK         0.0600 
    153 H153        1.2316  -19.0276  -41.0630 H         1 UNK         0.0600 
    154 H154       -0.0288  -17.7818  -42.7959 H         1 UNK         0.3000 
    155 H155       -1.4147  -17.6486  -46.0975 H         1 UNK         0.0600 
    156 H156       -1.6652  -15.2637  -45.2797 H         1 UNK         0.0600 
    157 H157       -1.6337  -15.8564  -43.6252 H         1 UNK         0.0600 
    158 H158       -2.9386  -16.3242  -44.6991 H         1 UNK         0.0600 
    159 H159        0.6587  -16.1648  -44.7945 H         1 UNK         0.3000 
    160 H160        3.3673  -18.3234  -45.5858 H         1 UNK         0.0600 
    161 H161        2.5871  -15.6965  -46.9401 H         1 UNK         0.0600 
    162 H162        2.9581  -17.1999  -47.7690 H         1 UNK         0.0600 
    163 H163        4.2080  -16.3791  -46.8477 H         1 UNK         0.0600 
    164 H164        2.9383  -15.6254  -44.4938 H         1 UNK         0.3000 
    165 H165        2.9361  -16.7567  -41.1147 H         1 UNK         0.0600 
    166 H166        4.8330  -15.1401  -40.8989 H         1 UNK         0.0600 
    167 H167        5.3558  -16.6990  -41.5204 H         1 UNK         0.0600 
    168 H168        5.1937  -15.3341  -42.6121 H         1 UNK         0.0600 
    169 H169        2.9404  -14.1577  -42.3742 H         1 UNK         0.3000 
    170 H170        0.1003  -13.6367  -43.3205 H         1 UNK         0.0600 
    171 H171       -1.6129  -14.5986  -41.7267 H         1 UNK         0.0600 
    172 H172       -0.7957  -13.8112  -40.3875 H         1 UNK         0.0600 
    173 H173       -1.5724  -12.8522  -41.6444 H         1 UNK         0.0600 
    174 H174        1.8455  -12.7572  -41.1497 H         1 UNK         0.3000 
    175 H175        1.5648   -9.2973  -42.1327 H         1 UNK         0.0600 
    176 H176        1.9434   -9.1855  -39.6885 H         1 UNK         0.0600 
    177 H177        0.3401   -9.8324  -39.9896 H         1 UNK         0.0600 
    178 H178        1.6472  -10.9133  -39.5192 H         1 UNK         0.0600 
    179 H179        3.3484  -11.5223  -42.1161 H         1 UNK         0.3000 
    180 H180        6.2754   -9.5421  -42.1245 H         1 UNK         0.0600 
    181 H181        5.4670  -12.1262  -40.6875 H         1 UNK         0.0600 
    182 H182        6.1968  -10.7091  -39.9516 H         1 UNK         0.0600 
    183 H183        7.1099  -11.6551  -41.1166 H         1 UNK         0.0600 
    184 H184        6.1232  -10.5942  -44.0316 H         1 UNK         0.3000 
    185 H185        5.8978  -11.9998  -45.5931 H         1 UNK         0.0600 
    186 H186        6.4957  -14.2634  -44.8330 H         1 UNK         0.0600 
    187 H187        4.8185  -14.7672  -44.8809 H         1 UNK         0.0600 
    188 H188        5.6489  -14.3366  -46.3716 H         1 UNK         0.0600 
    189 H189        3.9437  -11.4536  -46.4497 H         1 UNK         0.3000 
    190 H190       -2.0147  -21.7254  -44.7900 H         1 UNK         0.3000 
    191 H191       -4.7304  -22.4472  -45.1532 H         1 UNK         0.0600 
    192 H192       -3.8427  -21.2418  -43.1449 H         1 UNK         0.0600 
    193 H193       -4.7578  -22.6713  -42.6897 H         1 UNK         0.0600 
    194 H194       -3.0019  -22.7066  -42.6356 H         1 UNK         0.0600 
    195 H195       -1.8358  -24.4350  -44.7430 H         1 UNK         0.3000 
    196 H196       -3.2358  -26.9769  -44.4322 H         1 UNK         0.0600 
    197 H197       -0.9798  -27.9350  -44.7879 H         1 UNK         0.0600 
    198 H198       -0.9126  -26.6684  -43.5707 H         1 UNK         0.0600 
    199 H199       -0.3351  -26.3542  -45.2065 H         1 UNK         0.0600 
    200 H200       -4.2285  -27.9799  -46.0457 H         1 UNK         0.3000 
    201 H201       -4.9895  -28.6780  -47.9783 H         1 UNK         0.0600 
    202 H202       -2.6101  -29.3113  -48.4941 H         1 UNK         0.0600 
    203 H203       -2.3974  -27.7740  -49.3320 H         1 UNK         0.0600 
    204 H204       -3.5501  -28.9538  -49.9320 H         1 UNK         0.0600 
    205 H205       -5.1303  -25.6911  -47.1711 H         1 UNK         0.3000 
    206 H206       -6.1977  -23.8367  -47.7900 H         1 UNK         0.0600 
    207 H207       -8.0649  -25.4720  -47.7400 H         1 UNK         0.0600 
    208 H208       -8.3727  -24.2301  -48.9432 H         1 UNK         0.0600 
    209 H209       -7.8369  -25.8265  -49.4518 H         1 UNK         0.0600 
    210 H210       -4.0464  -23.3688  -48.9189 H         1 UNK         0.3000 
    211 H211       -2.8267  -22.4468  -50.5167 H         1 UNK         0.0600 
    212 H212       -5.5059  -21.4842  -51.6498 H         1 UNK         0.0600 
    213 H213       -3.9337  -20.7764  -51.9850 H         1 UNK         0.0600 
    214 H214       -4.5910  -20.7054  -50.3632 H         1 UNK         0.0600 
    215 H215       -3.2165  -25.1083  -50.8619 H         1 UNK         0.3000 
    216 H216       -2.8848  -26.8600  -52.1733 H         1 UNK         0.0600 
    217 H217       -1.6753  -26.5983  -54.3211 H         1 UNK         0.0600 
    218 H218       -0.9649  -25.5569  -53.0977 H         1 UNK         0.0600 
    219 H219       -2.0072  -24.8729  -54.3431 H         1 UNK         0.0600 
    220 H220       -5.3980  -26.4464  -51.8153 H         1 UNK         0.3000 
    221 H221       -7.5099  -26.5839  -52.4491 H         1 UNK         0.0600 
    222 H222       -6.4651  -27.9935  -54.9657 H         1 UNK         0.0600 
    223 H223       -6.7523  -28.7674  -53.4077 H         1 UNK         0.0600 
    224 H224       -8.0960  -28.0949  -54.3169 H         1 UNK         0.0600 
    225 H225       -6.5055  -24.1679  -52.7752 H         1 UNK         0.3000 
    226 H226       -6.6861  -22.1547  -53.5789 H         1 UNK         0.0600 
    227 H227       -9.1395  -22.6521  -53.5497 H         1 UNK         0.0600 
    228 H228       -8.7185  -21.4667  -54.7728 H         1 UNK         0.0600 
    229 H229       -9.0614  -23.1228  -55.2478 H         1 UNK         0.0600 
    230 H230       -5.2038  -24.3418  -55.3773 H         1 UNK         0.3000 
    231 H231       -5.2238  -23.2009  -58.0055 H         1 UNK         0.0600 
    232 H232       -3.1058  -24.9845  -56.7066 H         1 UNK         0.0600 
    233 H233       -3.3323  -24.7103  -58.4269 H         1 UNK         0.0600 
    234 H234       -4.5643  -25.5675  -57.5132 H         1 UNK         0.0600 
    235 H235       -3.4337  -22.3394  -55.0795 H         1 UNK         0.3000 
    236 H236       -1.2604  -21.0118  -56.3963 H         1 UNK         0.0600 
    237 H237       -1.1643  -21.8490  -54.0395 H         1 UNK         0.0600 
    238 H238       -0.7250  -20.1524  -54.1664 H         1 UNK         0.0600 
    239 H239       -2.3097  -20.5999  -53.5550 H         1 UNK         0.0600 
    240 H240       -4.4013  -19.8056  -55.1260 H         1 UNK         0.3000 
    241 H241       -4.4465  -17.5372  -56.8325 H         1 UNK         0.0600 
    242 H242       -7.7392  -18.8454  -55.3601 H         1 UNK         0.3800 
    243 H243       -6.3711  -19.8032  -55.8316 H         1 UNK         0.3800 
    244 H244       -2.8102  -16.4643  -55.4963 H         1 UNK         0.0800 
    245 H245       -4.2986  -15.7096  -55.0766 H         1 UNK         0.0800 
    246 H246       -1.4337  -15.7397  -53.4988 H         1 UNK         0.0800 
    247 H247       -1.1719  -17.4315  -53.8549 H         1 UNK         0.0800 
@<TRIPOS>BOND
     1    1    2 1    
     2    1  127 1    
     3    1  128 1    
     4    1  129 1    
     5    2    3 2    
     6    2    4 am   BACKBONE|DICT|INTERRES
     7    4    5 1    
     8    4  130 1    
     9    5    6 1    
    10    5   65 1    
    11    5  131 1    
    12    6    7 1    
    13    6  132 1    
    14    6  133 1    
    15    7    8 1    
    16    8    9 1    
    17    8  134 1    
    18    8  135 1    
    19    9   10 ar   
    20    9   14 ar   
    21   10   11 ar   
    22   10  136 1    
    23   11   12 ar   
    24   11  126 1    
    25   12   13 ar   
    26   12  137 1    
    27   13   14 ar   
    28   13   15 1    
    29   14  138 1    
    30   15   16 1    
    31   15  139 1    
    32   15  140 1    
    33   16   17 1    
    34   17   18 1    
    35   17  141 1    
    36   17  142 1    
    37   18   19 1    
    38   18   67 1    
    39   18  143 1    
    40   19   20 am   BACKBONE|DICT|INTERRES
    41   19  144 1    
    42   20   21 2    
    43   20   22 1    
    44   22   23 1    
    45   22   24 1    
    46   22  145 1    
    47   23  146 1    
    48   23  147 1    
    49   23  148 1    
    50   24   25 am   BACKBONE|DICT|INTERRES
    51   24  149 1    
    52   25   26 2    
    53   25   27 1    
    54   27   28 1    
    55   27   29 1    
    56   27  150 1    
    57   28  151 1    
    58   28  152 1    
    59   28  153 1    
    60   29   30 am   BACKBONE|DICT|INTERRES
    61   29  154 1    
    62   30   31 2    
    63   30   32 1    
    64   32   33 1    
    65   32   34 1    
    66   32  155 1    
    67   33  156 1    
    68   33  157 1    
    69   33  158 1    
    70   34   35 am   BACKBONE|DICT|INTERRES
    71   34  159 1    
    72   35   36 2    
    73   35   37 1    
    74   37   38 1    
    75   37   39 1    
    76   37  160 1    
    77   38  161 1    
    78   38  162 1    
    79   38  163 1    
    80   39   40 am   BACKBONE|DICT|INTERRES
    81   39  164 1    
    82   40   41 2    
    83   40   42 1    
    84   42   43 1    
    85   42   44 1    
    86   42  165 1    
    87   43  166 1    
    88   43  167 1    
    89   43  168 1    
    90   44   45 am   BACKBONE|DICT|INTERRES
    91   44  169 1    
    92   45   46 2    
    93   45   47 1    
    94   47   48 1    
    95   47   49 1    
    96   47  170 1    
    97   48  171 1    
    98   48  172 1    
    99   48  173 1    
   100   49   50 am   BACKBONE|DICT|INTERRES
   101   49  174 1    
   102   50   51 2    
   103   50   52 1    
   104   52   53 1    
   105   52   54 1    
   106   52  175 1    
   107   53  176 1    
   108   53  177 1    
   109   53  178 1    
   110   54   55 am   BACKBONE|DICT|INTERRES
   111   54  179 1    
   112   55   56 2    
   113   55   57 1    
   114   57   58 1    
   115   57   59 1    
   116   57  180 1    
   117   58  181 1    
   118   58  182 1    
   119   58  183 1    
   120   59   60 am   BACKBONE|DICT|INTERRES
   121   59  184 1    
   122   60   61 2    
   123   60   62 1    
   124   62   63 1    
   125   62   64 1    
   126   62  185 1    
   127   63  186 1    
   128   63  187 1    
   129   63  188 1    
   130   64   65 am   BACKBONE|DICT|INTERRES
   131   64  189 1    
   132   65   66 2    
   133   67   68 2    
   134   67   69 am   BACKBONE|DICT|INTERRES
   135   69   70 1    
   136   69  190 1    
   137   70   71 1    
   138   70   72 1    
   139   70  191 1    
   140   71  192 1    
   141   71  193 1    
   142   71  194 1    
   143   72   73 2    
   144   72   74 am   BACKBONE|DICT|INTERRES
   145   74   75 1    
   146   74  195 1    
   147   75   76 1    
   148   75   77 1    
   149   75  196 1    
   150   76  197 1    
   151   76  198 1    
   152   76  199 1    
   153   77   78 2    
   154   77   79 am   BACKBONE|DICT|INTERRES
   155   79   80 1    
   156   79  200 1    
   157   80   81 1    
   158   80   82 1    
   159   80  201 1    
   160   81  202 1    
   161   81  203 1    
   162   81  204 1    
   163   82   83 2    
   164   82   84 am   BACKBONE|DICT|INTERRES
   165   84   85 1    
   166   84  205 1    
   167   85   86 1    
   168   85   87 1    
   169   85  206 1    
   170   86  207 1    
   171   86  208 1    
   172   86  209 1    
   173   87   88 2    
   174   87   89 am   BACKBONE|DICT|INTERRES
   175   89   90 1    
   176   89  210 1    
   177   90   91 1    
   178   90   92 1    
   179   90  211 1    
   180   91  212 1    
   181   91  213 1    
   182   91  214 1    
   183   92   93 2    
   184   92   94 am   BACKBONE|DICT|INTERRES
   185   94   95 1    
   186   94  215 1    
   187   95   96 1    
   188   95   97 1    
   189   95  216 1    
   190   96  217 1    
   191   96  218 1    
   192   96  219 1    
   193   97   98 2    
   194   97   99 am   BACKBONE|DICT|INTERRES
   195   99  100 1    
   196   99  220 1    
   197  100  101 1    
   198  100  102 1    
   199  100  221 1    
   200  101  222 1    
   201  101  223 1    
   202  101  224 1    
   203  102  103 2    
   204  102  104 am   BACKBONE|DICT|INTERRES
   205  104  105 1    
   206  104  225 1    
   207  105  106 1    
   208  105  107 1    
   209  105  226 1    
   210  106  227 1    
   211  106  228 1    
   212  106  229 1    
   213  107  108 2    
   214  107  109 am   BACKBONE|DICT|INTERRES
   215  109  110 1    
   216  109  230 1    
   217  110  111 1    
   218  110  112 1    
   219  110  231 1    
   220  111  232 1    
   221  111  233 1    
   222  111  234 1    
   223  112  113 2    
   224  112  114 am   BACKBONE|DICT|INTERRES
   225  114  115 1    
   226  114  235 1    
   227  115  116 1    
   228  115  117 1    
   229  115  236 1    
   230  116  237 1    
   231  116  238 1    
   232  116  239 1    
   233  117  118 2    
   234  117  119 am   BACKBONE|DICT|INTERRES
   235  119  120 1    
   236  119  240 1    
   237  120  121 1    
   238  120  124 1    
   239  120  241 1    
   240  121  122 am   BACKBONE|DICT|INTERRES
   241  121  123 2    
   242  122  242 1    
   243  122  243 1    
   244  124  125 1    
   245  124  244 1    
   246  124  245 1    
   247  125  126 1    
   248  126  246 1    
   249  126  247 1    
@<TRIPOS>SUBSTRUCTURE
     1 UNK         1 GROUP             0       ****    0 ROOT    
