@<TRIPOS>MOLECULE
3R540
247   249    1
SMALL
USER_CHARGES


@<TRIPOS>ATOM
      1 CA         -1.3227  -13.3137  -48.9123 C.3       0 UNK        -0.1800 
      2 C          -0.0794  -12.4697  -49.1547 C.2       0 UNK         0.5000 
      3 O          -0.1799  -11.3801  -49.7182 O.2       0 UNK        -0.5000 
      4 N           1.0879  -12.9543  -48.7092 N.am      1 UNK        -0.5000 
      5 CA          2.3691  -12.2325  -48.7462 C.3       1 UNK         0.1400 
      6 C6          3.5862  -13.1843  -48.6018 C.3       23 UNK        -0.0398 
      7 S7          3.4904  -14.2801  -47.1410 S.3       23 UNK        -0.2404 
      8 C8          4.4898  -15.7220  -47.6499 C.3       23 UNK        -0.0205 
      9 C9          3.7340  -16.8459  -48.3657 C.ar      23 UNK        -0.0193 
     10 C10         2.7278  -16.5931  -49.3074 C.ar      23 UNK        -0.1150 
     11 C11         2.1233  -17.6393  -50.0159 C.ar      23 UNK        -0.0193 
     12 C12         2.5369  -18.9516  -49.7778 C.ar      23 UNK        -0.1150 
     13 C13         3.5417  -19.2253  -48.8471 C.ar      23 UNK        -0.0193 
     14 C14         4.1245  -18.1710  -48.1374 C.ar      23 UNK        -0.1150 
     15 C15         4.0500  -20.6507  -48.6692 C.3       23 UNK        -0.0205 
     16 S16         3.1988  -21.5454  -47.3344 S.3       23 UNK        -0.2404 
     17 C17         1.5064  -21.6595  -48.0004 C.3       23 UNK        -0.0398 
     18 CA          0.6379  -22.7101  -47.2698 C.3       11 UNK         0.1400 
     19 N           0.4344  -22.3999  -45.8517 N.am      11 UNK        -0.5000 
     20 C          -0.1898  -23.1935  -44.9699 C.2       10 UNK         0.5000 
     21 O          -0.6126  -24.3176  -45.2410 O.2       10 UNK        -0.5000 
     22 CA         -0.4392  -22.6102  -43.5671 C.3       10 UNK         0.1400 
     23 CB          0.8089  -22.7319  -42.6799 C.3       10 UNK        -0.1800 
     24 N          -0.8807  -21.2153  -43.6229 N.am      10 UNK        -0.5000 
     25 C          -2.0666  -20.8245  -44.1112 C.2       9 UNK         0.5000 
     26 O          -2.9275  -21.6085  -44.5114 O.2       9 UNK        -0.5000 
     27 CA         -2.3241  -19.3080  -44.2008 C.3       9 UNK         0.1400 
     28 CB         -2.7927  -18.7559  -42.8465 C.3       9 UNK        -0.1800 
     29 N          -1.1554  -18.5540  -44.6534 N.am      9 UNK        -0.5000 
     30 C          -0.5829  -18.6799  -45.8591 C.2       8 UNK         0.5000 
     31 O          -1.0129  -19.4098  -46.7500 O.2       8 UNK        -0.5000 
     32 CA          0.7218  -17.8980  -46.0904 C.3       8 UNK         0.1400 
     33 CB          0.4053  -16.4444  -46.4647 C.3       8 UNK        -0.1800 
     34 N           1.6237  -17.9342  -44.9352 N.am      8 UNK        -0.5000 
     35 C           2.0972  -19.0566  -44.3725 C.2       7 UNK         0.5000 
     36 O           1.8222  -20.1867  -44.7645 O.2       7 UNK        -0.5000 
     37 CA          2.9586  -18.8996  -43.1125 C.3       7 UNK         0.1400 
     38 CB          4.4024  -18.5156  -43.4723 C.3       7 UNK        -0.1800 
     39 N           2.3722  -17.9146  -42.2060 N.am      7 UNK        -0.5000 
     40 C           1.2756  -18.1404  -41.4668 C.2       6 UNK         0.5000 
     41 O           0.7028  -19.2292  -41.4108 O.2       6 UNK        -0.5000 
     42 CA          0.7008  -16.9417  -40.6870 C.3       6 UNK         0.1400 
     43 CB          1.3683  -16.8234  -39.3089 C.3       6 UNK        -0.1800 
     44 N           0.8463  -15.6738  -41.4047 N.am      6 UNK        -0.5000 
     45 C           0.2102  -15.3723  -42.5456 C.2       5 UNK         0.5000 
     46 O          -0.6155  -16.1123  -43.0798 O.2       5 UNK        -0.5000 
     47 CA          0.5981  -14.0451  -43.2307 C.3       5 UNK         0.1400 
     48 CB         -0.3031  -12.9041  -42.7378 C.3       5 UNK        -0.1800 
     49 N           2.0044  -13.6614  -43.0550 N.am      5 UNK        -0.5000 
     50 C           3.0572  -14.4136  -43.4076 C.2       4 UNK         0.5000 
     51 O           2.9488  -15.5365  -43.8994 O.2       4 UNK        -0.5000 
     52 CA          4.4438  -13.7931  -43.1834 C.3       4 UNK         0.1400 
     53 CB          5.6019  -14.6761  -43.6828 C.3       4 UNK        -0.1800 
     54 N           4.4860  -12.4991  -43.8520 N.am      4 UNK        -0.5000 
     55 C           5.0881  -11.4001  -43.3849 C.2       3 UNK         0.5000 
     56 O           5.7387  -11.3651  -42.3396 O.2       3 UNK        -0.5000 
     57 CA          4.9232  -10.1146  -44.2196 C.3       3 UNK         0.1400 
     58 CB          6.1421   -9.9085  -45.1315 C.3       3 UNK        -0.1800 
     59 N           3.7117  -10.1009  -45.0433 N.am      3 UNK        -0.5000 
     60 C           2.4530  -10.0838  -44.5889 C.2       2 UNK         0.5000 
     61 O           2.1616  -10.0785  -43.3927 O.2       2 UNK        -0.5000 
     62 CA          1.3262  -10.1150  -45.6391 C.3       2 UNK         0.1400 
     63 CB          1.0305   -8.7043  -46.1820 C.3       2 UNK        -0.1800 
     64 N           1.5319  -11.0812  -46.7280 N.am      2 UNK        -0.5000 
     65 C           2.4371  -11.0755  -47.7206 C.2       1 UNK         0.5000 
     66 O           3.3131  -10.2178  -47.8415 O.2       1 UNK        -0.5000 
     67 C          -0.7045  -22.8903  -48.0039 C.2       11 UNK         0.5000 
     68 O          -0.8611  -23.8624  -48.7389 O.2       11 UNK        -0.5000 
     69 N          -1.6579  -21.9798  -47.7636 N.am      12 UNK        -0.5000 
     70 CA         -3.0143  -22.0186  -48.3088 C.3       12 UNK         0.1400 
     71 CB         -3.7541  -20.7351  -47.9082 C.3       12 UNK        -0.1800 
     72 C          -3.8065  -23.2626  -47.8680 C.2       12 UNK         0.5000 
     73 O          -4.4917  -23.8716  -48.6913 O.2       12 UNK        -0.5000 
     74 N          -3.6733  -23.6387  -46.5887 N.am      13 UNK        -0.5000 
     75 CA         -4.2583  -24.8536  -46.0235 C.3       13 UNK         0.1400 
     76 CB         -4.1044  -24.8409  -44.4952 C.3       13 UNK        -0.1800 
     77 C          -3.6542  -26.1331  -46.6311 C.2       13 UNK         0.5000 
     78 O          -4.4021  -27.0477  -46.9778 O.2       13 UNK        -0.5000 
     79 N          -2.3221  -26.1610  -46.7807 N.am      14 UNK        -0.5000 
     80 CA         -1.5750  -27.2636  -47.3895 C.3       14 UNK         0.1400 
     81 CB         -0.0723  -27.0596  -47.1436 C.3       14 UNK        -0.1800 
     82 C          -1.8644  -27.4311  -48.8935 C.2       14 UNK         0.5000 
     83 O          -2.0063  -28.5608  -49.3631 O.2       14 UNK        -0.5000 
     84 N          -1.9625  -26.3074  -49.6162 N.am      15 UNK        -0.5000 
     85 CA         -2.2748  -26.2511  -51.0456 C.3       15 UNK         0.1400 
     86 CB         -1.9098  -24.8572  -51.5827 C.3       15 UNK        -0.1800 
     87 C          -3.7472  -26.5654  -51.3706 C.2       15 UNK         0.5000 
     88 O          -4.0429  -26.8865  -52.5221 O.2       15 UNK        -0.5000 
     89 N          -4.6315  -26.4447  -50.3680 N.am      16 UNK        -0.5000 
     90 CA         -6.0927  -26.5152  -50.4533 C.3       16 UNK         0.1400 
     91 CB         -6.5678  -27.9197  -50.8803 C.3       16 UNK        -0.1800 
     92 C          -6.6337  -25.3828  -51.3472 C.2       16 UNK         0.5000 
     93 O          -7.1917  -25.6364  -52.4171 O.2       16 UNK        -0.5000 
     94 N          -6.3904  -24.1452  -50.8972 N.am      17 UNK        -0.5000 
     95 CA         -6.6558  -22.8689  -51.5661 C.3       17 UNK         0.1400 
     96 CB         -5.9707  -21.7632  -50.7467 C.3       17 UNK        -0.1800 
     97 C          -8.1464  -22.5484  -51.8276 C.2       17 UNK         0.5000 
     98 O          -8.6511  -21.5191  -51.3744 O.2       17 UNK        -0.5000 
     99 N          -8.8323  -23.4249  -52.5678 N.am      18 UNK        -0.5000 
    100 CA       -10.2077  -23.2354  -53.0287 C.3       18 UNK         0.1400 
    101 CB       -10.7813  -24.5893  -53.4738 C.3       18 UNK        -0.1800 
    102 C        -10.3030  -22.2027  -54.1682 C.2       18 UNK         0.5000 
    103 O        -11.2649  -21.4348  -54.2126 O.2       18 UNK        -0.5000 
    104 N         -9.3020  -22.1992  -55.0586 N.am      19 UNK        -0.5000 
    105 CA        -9.1976  -21.3140  -56.2202 C.3       19 UNK         0.1400 
    106 CB       -10.1793  -21.7612  -57.3248 C.3       19 UNK        -0.1800 
    107 C         -7.7385  -21.2429  -56.7127 C.2       19 UNK         0.5000 
    108 O         -7.4933  -21.2088  -57.9200 O.2       19 UNK        -0.5000 
    109 N         -6.7869  -21.2469  -55.7726 N.am      20 UNK        -0.5000 
    110 CA        -5.3458  -21.2269  -56.0125 C.3       20 UNK         0.1400 
    111 CB        -4.8655  -22.6350  -56.4171 C.3       20 UNK        -0.1800 
    112 C         -4.6376  -20.7536  -54.7345 C.2       20 UNK         0.5000 
    113 O         -5.2728  -20.7029  -53.6800 O.2       20 UNK        -0.5000 
    114 N         -3.3366  -20.4524  -54.8518 N.am      21 UNK        -0.5000 
    115 CA        -2.4208  -20.0419  -53.7784 C.3       21 UNK         0.1400 
    116 CB        -2.2125  -21.2032  -52.7770 C.3       21 UNK        -0.1800 
    117 C         -2.8202  -18.7113  -53.0963 C.2       21 UNK         0.5000 
    118 O         -3.5514  -17.9085  -53.6826 O.2       21 UNK        -0.5000 
    119 N         -2.2861  -18.4801  -51.8913 N.am      22 UNK        -0.5000 
    120 CA        -2.6163  -17.3396  -51.0237 C.3       22 UNK         0.1400 
    121 C         -4.0125  -17.4792  -50.3518 C.2       22 UNK         0.5000 
    122 N         -4.5818  -16.3824  -49.8693 N.am      22 UNK        -0.7600 
    123 O         -4.5788  -18.5624  -50.2424 O.2       22 UNK        -0.5000 
    124 C124       -1.4941  -17.0945  -49.9770 C.3       23 UNK        -0.0398 
    125 S125       -0.1376  -16.1084  -50.6939 S.3       23 UNK        -0.2404 
    126 C126        1.1087  -17.3642  -51.1218 C.3       23 UNK        -0.0205 
    127 H127       -1.0941  -14.2168  -48.3465 H         1 UNK         0.0600 
    128 H128       -1.7690  -13.6067  -49.8624 H         1 UNK         0.0600 
    129 H129       -2.0608  -12.7413  -48.3506 H         1 UNK         0.0600 
    130 H130        1.1192  -13.8622  -48.2674 H         1 UNK         0.3000 
    131 H131        2.4499  -11.7627  -49.7288 H         1 UNK         0.0600 
    132 H132        4.5184  -12.6187  -48.5484 H         1 UNK         0.0800 
    133 H133        3.6784  -13.7881  -49.5038 H         1 UNK         0.0800 
    134 H134        5.3135  -15.3893  -48.2824 H         1 UNK         0.0800 
    135 H135        4.9473  -16.1226  -46.7443 H         1 UNK         0.0800 
    136 H136        2.4266  -15.5806  -49.5204 H         1 UNK         0.1150 
    137 H137        2.1036  -19.7615  -50.3473 H         1 UNK         0.1150 
    138 H138        4.9151  -18.3834  -47.4314 H         1 UNK         0.1150 
    139 H139        3.9489  -21.2082  -49.6016 H         1 UNK         0.0800 
    140 H140        5.1181  -20.6318  -48.4476 H         1 UNK         0.0800 
    141 H141        1.5799  -21.9062  -49.0612 H         1 UNK         0.0800 
    142 H142        1.0459  -20.6726  -47.9420 H         1 UNK         0.0800 
    143 H143        1.1594  -23.6684  -47.3167 H         1 UNK         0.0600 
    144 H144        0.8144  -21.5133  -45.5242 H         1 UNK         0.3000 
    145 H145       -1.2361  -23.1948  -43.1026 H         1 UNK         0.0600 
    146 H146        0.6205  -22.3425  -41.6792 H         1 UNK         0.0600 
    147 H147        1.1076  -23.7754  -42.5733 H         1 UNK         0.0600 
    148 H148        1.6593  -22.1906  -43.0935 H         1 UNK         0.0600 
    149 H149       -0.2140  -20.5129  -43.3312 H         1 UNK         0.3000 
    150 H150       -3.1232  -19.1495  -44.9275 H         1 UNK         0.0600 
    151 H151       -3.6754  -19.2890  -42.4909 H         1 UNK         0.0600 
    152 H152       -3.0575  -17.7011  -42.9219 H         1 UNK         0.0600 
    153 H153       -2.0196  -18.8518  -42.0833 H         1 UNK         0.0600 
    154 H154       -0.7691  -17.8767  -44.0031 H         1 UNK         0.3000 
    155 H155        1.2516  -18.3595  -46.9258 H         1 UNK         0.0600 
    156 H156       -0.2670  -15.9739  -45.7481 H         1 UNK         0.0600 
    157 H157       -0.0704  -16.3945  -47.4434 H         1 UNK         0.0600 
    158 H158        1.3107  -15.8475  -46.5123 H         1 UNK         0.0600 
    159 H159        1.9348  -17.0417  -44.5624 H         1 UNK         0.3000 
    160 H160        2.9891  -19.8634  -42.5994 H         1 UNK         0.0600 
    161 H161        4.4484  -17.6171  -44.0868 H         1 UNK         0.0600 
    162 H162        4.8800  -19.3150  -44.0400 H         1 UNK         0.0600 
    163 H163        5.0033  -18.3461  -42.5789 H         1 UNK         0.0600 
    164 H164        2.7302  -16.9720  -42.2776 H         1 UNK         0.3000 
    165 H165       -0.3652  -17.1256  -40.5359 H         1 UNK         0.0600 
    166 H166        0.9164  -16.0258  -38.7188 H         1 UNK         0.0600 
    167 H167        1.2576  -17.7485  -38.7415 H         1 UNK         0.0600 
    168 H168        2.4358  -16.6160  -39.3938 H         1 UNK         0.0600 
    169 H169        1.5060  -15.0079  -41.0308 H         1 UNK         0.3000 
    170 H170        0.4305  -14.1705  -44.3018 H         1 UNK         0.0600 
    171 H171       -1.3565  -13.1462  -42.8853 H         1 UNK         0.0600 
    172 H172       -0.1565  -12.7066  -41.6753 H         1 UNK         0.0600 
    173 H173       -0.1049  -11.9801  -43.2798 H         1 UNK         0.0600 
    174 H174        2.1758  -12.7427  -42.6699 H         1 UNK         0.3000 
    175 H175        4.5532  -13.6602  -42.1052 H         1 UNK         0.0600 
    176 H176        5.5315  -14.8618  -44.7544 H         1 UNK         0.0600 
    177 H177        6.5664  -14.2071  -43.4883 H         1 UNK         0.0600 
    178 H178        5.6043  -15.6417  -43.1768 H         1 UNK         0.0600 
    179 H179        3.9656  -12.4329  -44.7157 H         1 UNK         0.3000 
    180 H180        4.8662   -9.2753  -43.5236 H         1 UNK         0.0600 
    181 H181        6.2323  -10.7087  -45.8674 H         1 UNK         0.0600 
    182 H182        7.0662   -9.8880  -44.5522 H         1 UNK         0.0600 
    183 H183        6.0761   -8.9631  -45.6704 H         1 UNK         0.0600 
    184 H184        3.8380  -10.0952  -46.0523 H         1 UNK         0.3000 
    185 H185        0.4280  -10.4518  -45.1199 H         1 UNK         0.0600 
    186 H186        0.7636   -8.0252  -45.3713 H         1 UNK         0.0600 
    187 H187        1.8903   -8.2733  -46.6953 H         1 UNK         0.0600 
    188 H188        0.1949   -8.7192  -46.8819 H         1 UNK         0.0600 
    189 H189        0.8864  -11.8576  -46.7271 H         1 UNK         0.3000 
    190 H190       -1.4305  -21.1718  -47.1884 H         1 UNK         0.3000 
    191 H191       -2.9289  -22.0433  -49.3965 H         1 UNK         0.0600 
    192 H192       -3.2298  -19.8516  -48.2713 H         1 UNK         0.0600 
    193 H193       -4.7593  -20.7084  -48.3266 H         1 UNK         0.0600 
    194 H194       -3.8504  -20.6431  -46.8271 H         1 UNK         0.0600 
    195 H195       -3.1359  -23.0522  -45.9587 H         1 UNK         0.3000 
    196 H196       -5.3256  -24.8483  -46.2545 H         1 UNK         0.0600 
    197 H197       -4.5590  -25.7265  -44.0498 H         1 UNK         0.0600 
    198 H198       -4.5924  -23.9694  -44.0582 H         1 UNK         0.0600 
    199 H199       -3.0573  -24.8221  -44.1933 H         1 UNK         0.0600 
    200 H200       -1.7745  -25.3801  -46.4303 H         1 UNK         0.3000 
    201 H201       -1.8764  -28.1867  -46.8899 H         1 UNK         0.0600 
    202 H202        0.1501  -27.0195  -46.0771 H         1 UNK         0.0600 
    203 H203        0.2877  -26.1341  -47.5938 H         1 UNK         0.0600 
    204 H204        0.5085  -27.8798  -47.5672 H         1 UNK         0.0600 
    205 H205       -1.7537  -25.4178  -49.1673 H         1 UNK         0.3000 
    206 H206       -1.6578  -26.9896  -51.5615 H         1 UNK         0.0600 
    207 H207       -0.8528  -24.6389  -51.4301 H         1 UNK         0.0600 
    208 H208       -2.1042  -24.7843  -52.6535 H         1 UNK         0.0600 
    209 H209       -2.4888  -24.0744  -51.0904 H         1 UNK         0.0600 
    210 H210       -4.2687  -26.1362  -49.4755 H         1 UNK         0.3000 
    211 H211       -6.4705  -26.3335  -49.4458 H         1 UNK         0.0600 
    212 H212       -6.2614  -28.1688  -51.8964 H         1 UNK         0.0600 
    213 H213       -7.6556  -27.9859  -50.8448 H         1 UNK         0.0600 
    214 H214       -6.1727  -28.6865  -50.2139 H         1 UNK         0.0600 
    215 H215       -5.8687  -24.0663  -50.0279 H         1 UNK         0.3000 
    216 H216       -6.1714  -22.9115  -52.5428 H         1 UNK         0.0600 
    217 H217       -6.1262  -20.7779  -51.1873 H         1 UNK         0.0600 
    218 H218       -4.8952  -21.9218  -50.7003 H         1 UNK         0.0600 
    219 H219       -6.3553  -21.7292  -49.7273 H         1 UNK         0.0600 
    220 H220       -8.3633  -24.2914  -52.8239 H         1 UNK         0.3000 
    221 H221      -10.8083  -22.8703  -52.1928 H         1 UNK         0.0600 
    222 H222      -10.2097  -25.0189  -54.2975 H         1 UNK         0.0600 
    223 H223      -10.7766  -25.3073  -52.6534 H         1 UNK         0.0600 
    224 H224      -11.8140  -24.4848  -53.8089 H         1 UNK         0.0600 
    225 H225       -8.5527  -22.8679  -54.9465 H         1 UNK         0.3000 
    226 H226       -9.4656  -20.3019  -55.9107 H         1 UNK         0.0600 
    227 H227      -11.2108  -21.7520  -56.9732 H         1 UNK         0.0600 
    228 H228      -10.1326  -21.0951  -58.1871 H         1 UNK         0.0600 
    229 H229       -9.9539  -22.7696  -57.6732 H         1 UNK         0.0600 
    230 H230       -7.0365  -21.1833  -54.7932 H         1 UNK         0.3000 
    231 H231       -5.1224  -20.5149  -56.8097 H         1 UNK         0.0600 
    232 H232       -5.3496  -22.9738  -57.3330 H         1 UNK         0.0600 
    233 H233       -5.0762  -23.3679  -55.6371 H         1 UNK         0.0600 
    234 H234       -3.7906  -22.6501  -56.5998 H         1 UNK         0.0600 
    235 H235       -2.9221  -20.4955  -55.7720 H         1 UNK         0.3000 
    236 H236       -1.4625  -19.8522  -54.2638 H         1 UNK         0.0600 
    237 H237       -2.0049  -22.1379  -53.2980 H         1 UNK         0.0600 
    238 H238       -1.3666  -21.0185  -52.1145 H         1 UNK         0.0600 
    239 H239       -3.0926  -21.3610  -52.1536 H         1 UNK         0.0600 
    240 H240       -1.7240  -19.2035  -51.4716 H         1 UNK         0.3000 
    241 H241       -2.6901  -16.4565  -51.6623 H         1 UNK         0.0600 
    242 H242       -5.4841  -16.4613  -49.4270 H         1 UNK         0.3800 
    243 H243       -4.1502  -15.4756  -49.9527 H         1 UNK         0.3800 
    244 H244       -1.1153  -18.0299  -49.5608 H         1 UNK         0.0800 
    245 H245       -1.8685  -16.5250  -49.1250 H         1 UNK         0.0800 
    246 H246        1.6575  -17.0108  -51.9954 H         1 UNK         0.0800 
    247 H247        0.6064  -18.2812  -51.4317 H         1 UNK         0.0800 
@<TRIPOS>BOND
     1    1    2 1    
     2    1  127 1    
     3    1  128 1    
     4    1  129 1    
     5    2    3 2    
     6    2    4 am   BACKBONE|DICT|INTERRES
     7    4    5 1    
     8    4  130 1    
     9    5    6 1    
    10    5   65 1    
    11    5  131 1    
    12    6    7 1    
    13    6  132 1    
    14    6  133 1    
    15    7    8 1    
    16    8    9 1    
    17    8  134 1    
    18    8  135 1    
    19    9   10 ar   
    20    9   14 ar   
    21   10   11 ar   
    22   10  136 1    
    23   11   12 ar   
    24   11  126 1    
    25   12   13 ar   
    26   12  137 1    
    27   13   14 ar   
    28   13   15 1    
    29   14  138 1    
    30   15   16 1    
    31   15  139 1    
    32   15  140 1    
    33   16   17 1    
    34   17   18 1    
    35   17  141 1    
    36   17  142 1    
    37   18   19 1    
    38   18   67 1    
    39   18  143 1    
    40   19   20 am   BACKBONE|DICT|INTERRES
    41   19  144 1    
    42   20   21 2    
    43   20   22 1    
    44   22   23 1    
    45   22   24 1    
    46   22  145 1    
    47   23  146 1    
    48   23  147 1    
    49   23  148 1    
    50   24   25 am   BACKBONE|DICT|INTERRES
    51   24  149 1    
    52   25   26 2    
    53   25   27 1    
    54   27   28 1    
    55   27   29 1    
    56   27  150 1    
    57   28  151 1    
    58   28  152 1    
    59   28  153 1    
    60   29   30 am   BACKBONE|DICT|INTERRES
    61   29  154 1    
    62   30   31 2    
    63   30   32 1    
    64   32   33 1    
    65   32   34 1    
    66   32  155 1    
    67   33  156 1    
    68   33  157 1    
    69   33  158 1    
    70   34   35 am   BACKBONE|DICT|INTERRES
    71   34  159 1    
    72   35   36 2    
    73   35   37 1    
    74   37   38 1    
    75   37   39 1    
    76   37  160 1    
    77   38  161 1    
    78   38  162 1    
    79   38  163 1    
    80   39   40 am   BACKBONE|DICT|INTERRES
    81   39  164 1    
    82   40   41 2    
    83   40   42 1    
    84   42   43 1    
    85   42   44 1    
    86   42  165 1    
    87   43  166 1    
    88   43  167 1    
    89   43  168 1    
    90   44   45 am   BACKBONE|DICT|INTERRES
    91   44  169 1    
    92   45   46 2    
    93   45   47 1    
    94   47   48 1    
    95   47   49 1    
    96   47  170 1    
    97   48  171 1    
    98   48  172 1    
    99   48  173 1    
   100   49   50 am   BACKBONE|DICT|INTERRES
   101   49  174 1    
   102   50   51 2    
   103   50   52 1    
   104   52   53 1    
   105   52   54 1    
   106   52  175 1    
   107   53  176 1    
   108   53  177 1    
   109   53  178 1    
   110   54   55 am   BACKBONE|DICT|INTERRES
   111   54  179 1    
   112   55   56 2    
   113   55   57 1    
   114   57   58 1    
   115   57   59 1    
   116   57  180 1    
   117   58  181 1    
   118   58  182 1    
   119   58  183 1    
   120   59   60 am   BACKBONE|DICT|INTERRES
   121   59  184 1    
   122   60   61 2    
   123   60   62 1    
   124   62   63 1    
   125   62   64 1    
   126   62  185 1    
   127   63  186 1    
   128   63  187 1    
   129   63  188 1    
   130   64   65 am   BACKBONE|DICT|INTERRES
   131   64  189 1    
   132   65   66 2    
   133   67   68 2    
   134   67   69 am   BACKBONE|DICT|INTERRES
   135   69   70 1    
   136   69  190 1    
   137   70   71 1    
   138   70   72 1    
   139   70  191 1    
   140   71  192 1    
   141   71  193 1    
   142   71  194 1    
   143   72   73 2    
   144   72   74 am   BACKBONE|DICT|INTERRES
   145   74   75 1    
   146   74  195 1    
   147   75   76 1    
   148   75   77 1    
   149   75  196 1    
   150   76  197 1    
   151   76  198 1    
   152   76  199 1    
   153   77   78 2    
   154   77   79 am   BACKBONE|DICT|INTERRES
   155   79   80 1    
   156   79  200 1    
   157   80   81 1    
   158   80   82 1    
   159   80  201 1    
   160   81  202 1    
   161   81  203 1    
   162   81  204 1    
   163   82   83 2    
   164   82   84 am   BACKBONE|DICT|INTERRES
   165   84   85 1    
   166   84  205 1    
   167   85   86 1    
   168   85   87 1    
   169   85  206 1    
   170   86  207 1    
   171   86  208 1    
   172   86  209 1    
   173   87   88 2    
   174   87   89 am   BACKBONE|DICT|INTERRES
   175   89   90 1    
   176   89  210 1    
   177   90   91 1    
   178   90   92 1    
   179   90  211 1    
   180   91  212 1    
   181   91  213 1    
   182   91  214 1    
   183   92   93 2    
   184   92   94 am   BACKBONE|DICT|INTERRES
   185   94   95 1    
   186   94  215 1    
   187   95   96 1    
   188   95   97 1    
   189   95  216 1    
   190   96  217 1    
   191   96  218 1    
   192   96  219 1    
   193   97   98 2    
   194   97   99 am   BACKBONE|DICT|INTERRES
   195   99  100 1    
   196   99  220 1    
   197  100  101 1    
   198  100  102 1    
   199  100  221 1    
   200  101  222 1    
   201  101  223 1    
   202  101  224 1    
   203  102  103 2    
   204  102  104 am   BACKBONE|DICT|INTERRES
   205  104  105 1    
   206  104  225 1    
   207  105  106 1    
   208  105  107 1    
   209  105  226 1    
   210  106  227 1    
   211  106  228 1    
   212  106  229 1    
   213  107  108 2    
   214  107  109 am   BACKBONE|DICT|INTERRES
   215  109  110 1    
   216  109  230 1    
   217  110  111 1    
   218  110  112 1    
   219  110  231 1    
   220  111  232 1    
   221  111  233 1    
   222  111  234 1    
   223  112  113 2    
   224  112  114 am   BACKBONE|DICT|INTERRES
   225  114  115 1    
   226  114  235 1    
   227  115  116 1    
   228  115  117 1    
   229  115  236 1    
   230  116  237 1    
   231  116  238 1    
   232  116  239 1    
   233  117  118 2    
   234  117  119 am   BACKBONE|DICT|INTERRES
   235  119  120 1    
   236  119  240 1    
   237  120  121 1    
   238  120  124 1    
   239  120  241 1    
   240  121  122 am   BACKBONE|DICT|INTERRES
   241  121  123 2    
   242  122  242 1    
   243  122  243 1    
   244  124  125 1    
   245  124  244 1    
   246  124  245 1    
   247  125  126 1    
   248  126  246 1    
   249  126  247 1    
@<TRIPOS>SUBSTRUCTURE
     1 UNK         1 GROUP             0       ****    0 ROOT    
