@<TRIPOS>MOLECULE
3R540
247   249    1
SMALL
USER_CHARGES


@<TRIPOS>ATOM
      1 CA          2.6520  -10.8060  -49.9834 C.3       0 UNK        -0.1800 
      2 C           2.4917  -11.6679  -48.7401 C.2       0 UNK         0.5000 
      3 O           2.6708  -11.1779  -47.6255 O.2       0 UNK        -0.5000 
      4 N           2.1332  -12.9464  -48.9197 N.am      1 UNK        -0.5000 
      5 CA          1.9511  -13.9363  -47.8479 C.3       1 UNK         0.1400 
      6 C6          1.7721  -15.3683  -48.4165 C.3       23 UNK        -0.0398 
      7 S7          0.2291  -15.6365  -49.3640 S.3       23 UNK        -0.2404 
      8 C8          0.7928  -15.6041  -51.0999 C.3       23 UNK        -0.0205 
      9 C9          1.5027  -16.8570  -51.6187 C.ar      23 UNK        -0.0193 
     10 C10         1.7830  -16.9236  -52.9883 C.ar      23 UNK        -0.1150 
     11 C11         2.4423  -18.0270  -53.5364 C.ar      23 UNK        -0.0193 
     12 C12         2.8397  -19.0691  -52.6972 C.ar      23 UNK        -0.1150 
     13 C13         2.5561  -19.0306  -51.3321 C.ar      23 UNK        -0.0193 
     14 C14         1.8872  -17.9264  -50.7960 C.ar      23 UNK        -0.1150 
     15 C15         2.9741  -20.1939  -50.4507 C.3       23 UNK        -0.0205 
     16 S16         1.6279  -21.4078  -50.3031 S.3       23 UNK        -0.2404 
     17 C17         0.7837  -20.8385  -48.7888 C.3       23 UNK        -0.0398 
     18 CA          0.2161  -22.0268  -47.9774 C.3       11 UNK         0.1400 
     19 N           0.2393  -21.7865  -46.5321 N.am      11 UNK        -0.5000 
     20 C           0.0765  -22.7473  -45.6113 C.2       10 UNK         0.5000 
     21 O          -0.1433  -23.9258  -45.8870 O.2       10 UNK        -0.5000 
     22 CA          0.1378  -22.3220  -44.1356 C.3       10 UNK         0.1400 
     23 CB          1.5865  -22.0502  -43.7034 C.3       10 UNK        -0.1800 
     24 N          -0.6926  -21.1527  -43.8579 N.am      10 UNK        -0.5000 
     25 C          -2.0277  -21.1289  -43.9757 C.2       9 UNK         0.5000 
     26 O          -2.7061  -22.1078  -44.2920 O.2       9 UNK        -0.5000 
     27 CA         -2.7153  -19.7710  -43.7412 C.3       9 UNK         0.1400 
     28 CB         -2.8529  -19.4779  -42.2398 C.3       9 UNK        -0.1800 
     29 N          -2.0189  -18.6603  -44.3921 N.am      9 UNK        -0.5000 
     30 C          -1.8238  -18.5557  -45.7140 C.2       8 UNK         0.5000 
     31 O          -2.2206  -19.3765  -46.5386 O.2       8 UNK        -0.5000 
     32 CA         -1.0032  -17.3513  -46.1952 C.3       8 UNK         0.1400 
     33 CB         -1.8486  -16.0685  -46.1597 C.3       8 UNK        -0.1800 
     34 N           0.2307  -17.1706  -45.4289 N.am      8 UNK        -0.5000 
     35 C           1.2186  -18.0761  -45.3612 C.2       7 UNK         0.5000 
     36 O           1.2203  -19.1374  -45.9815 O.2       7 UNK        -0.5000 
     37 CA          2.3791  -17.7657  -44.4024 C.3       7 UNK         0.1400 
     38 CB          3.3545  -16.7638  -45.0369 C.3       7 UNK        -0.1800 
     39 N           1.9062  -17.2529  -43.1170 N.am      7 UNK        -0.5000 
     40 C           1.1771  -17.9593  -42.2393 C.2       6 UNK         0.5000 
     41 O           0.8611  -19.1375  -42.3992 O.2       6 UNK        -0.5000 
     42 CA          0.6683  -17.1993  -41.0017 C.3       6 UNK         0.1400 
     43 CB          1.7346  -17.1811  -39.8971 C.3       6 UNK        -0.1800 
     44 N           0.2774  -15.8267  -41.3215 N.am      6 UNK        -0.5000 
     45 C          -0.7204  -15.4857  -42.1450 C.2       5 UNK         0.5000 
     46 O          -1.4694  -16.3053  -42.6776 O.2       5 UNK        -0.5000 
     47 CA         -0.8721  -13.9920  -42.4801 C.3       5 UNK         0.1400 
     48 CB         -1.6216  -13.2344  -41.3691 C.3       5 UNK        -0.1800 
     49 N           0.3905  -13.3315  -42.8365 N.am      5 UNK        -0.5000 
     50 C           1.4458  -13.0229  -42.0671 C.2       4 UNK         0.5000 
     51 O           1.5430  -13.3215  -40.8765 O.2       4 UNK        -0.5000 
     52 CA          2.5925  -12.2562  -42.7524 C.3       4 UNK         0.1400 
     53 CB          3.6233  -13.2315  -43.3391 C.3       4 UNK        -0.1800 
     54 N           2.1009  -11.3777  -43.8146 N.am      4 UNK        -0.5000 
     55 C           1.5032  -10.1963  -43.6014 C.2       3 UNK         0.5000 
     56 O           1.4160   -9.6608  -42.4959 O.2       3 UNK        -0.5000 
     57 CA          0.8657   -9.5175  -44.8272 C.3       3 UNK         0.1400 
     58 CB          1.8900   -8.6384  -45.5605 C.3       3 UNK        -0.1800 
     59 N           0.2944  -10.4985  -45.7540 N.am      3 UNK        -0.5000 
     60 C          -0.8473  -11.1652  -45.5191 C.2       2 UNK         0.5000 
     61 O          -1.5599  -10.9638  -44.5360 O.2       2 UNK        -0.5000 
     62 CA         -1.2656  -12.2547  -46.5250 C.3       2 UNK         0.1400 
     63 CB         -2.3425  -11.7250  -47.4829 C.3       2 UNK        -0.1800 
     64 N          -0.1548  -12.7865  -47.3124 N.am      2 UNK        -0.5000 
     65 C           0.8393  -13.5525  -46.8416 C.2       1 UNK         0.5000 
     66 O           0.9170  -13.9187  -45.6674 O.2       1 UNK        -0.5000 
     67 C          -1.1752  -22.4668  -48.4789 C.2       11 UNK         0.5000 
     68 O          -1.2552  -23.3743  -49.3076 O.2       11 UNK        -0.5000 
     69 N          -2.2432  -21.8772  -47.9176 N.am      12 UNK        -0.5000 
     70 CA         -3.6345  -22.2637  -48.1571 C.3       12 UNK         0.1400 
     71 CB         -4.5799  -21.3566  -47.3533 C.3       12 UNK        -0.1800 
     72 C          -3.9051  -23.7385  -47.8195 C.2       12 UNK         0.5000 
     73 O          -4.5060  -24.4403  -48.6316 O.2       12 UNK        -0.5000 
     74 N          -3.4277  -24.1735  -46.6443 N.am      13 UNK        -0.5000 
     75 CA         -3.5316  -25.5486  -46.1604 C.3       13 UNK         0.1400 
     76 CB         -3.2077  -25.5812  -44.6593 C.3       13 UNK        -0.1800 
     77 C          -2.6298  -26.5280  -46.9334 C.2       13 UNK         0.5000 
     78 O          -3.0581  -27.6484  -47.2125 O.2       13 UNK        -0.5000 
     79 N          -1.4062  -26.0972  -47.2768 N.am      14 UNK        -0.5000 
     80 CA         -0.4367  -26.8743  -48.0557 C.3       14 UNK         0.1400 
     81 CB          0.9114  -26.1401  -48.0969 C.3       14 UNK        -0.1800 
     82 C          -0.9303  -27.1794  -49.4810 C.2       14 UNK         0.5000 
     83 O          -0.7475  -28.2970  -49.9637 O.2       14 UNK        -0.5000 
     84 N          -1.6040  -26.2020  -50.0993 N.am      15 UNK        -0.5000 
     85 CA         -2.2955  -26.3243  -51.3821 C.3       15 UNK         0.1400 
     86 CB         -2.1214  -25.0088  -52.1568 C.3       15 UNK        -0.1800 
     87 C          -3.7758  -26.7339  -51.1994 C.2       15 UNK         0.5000 
     88 O          -4.6380  -26.2980  -51.9646 O.2       15 UNK        -0.5000 
     89 N          -4.0383  -27.5761  -50.1896 N.am      16 UNK        -0.5000 
     90 CA         -5.3094  -28.1739  -49.7726 C.3       16 UNK         0.1400 
     91 CB         -5.9328  -29.0315  -50.8919 C.3       16 UNK        -0.1800 
     92 C          -6.3166  -27.1659  -49.1921 C.2       16 UNK         0.5000 
     93 O          -6.6774  -27.2821  -48.0198 O.2       16 UNK        -0.5000 
     94 N          -6.7611  -26.2125  -50.0158 N.am      17 UNK        -0.5000 
     95 CA         -7.7344  -25.1799  -49.6666 C.3       17 UNK         0.1400 
     96 CB         -9.1516  -25.7855  -49.5685 C.3       17 UNK        -0.1800 
     97 C          -7.6503  -24.0155  -50.6680 C.2       17 UNK         0.5000 
     98 O          -8.6800  -23.5394  -51.1514 O.2       17 UNK        -0.5000 
     99 N          -6.4230  -23.5907  -50.9930 N.am      18 UNK        -0.5000 
    100 CA        -6.1651  -22.4636  -51.8915 C.3       18 UNK         0.1400 
    101 CB        -4.7082  -22.5189  -52.3673 C.3       18 UNK        -0.1800 
    102 C         -6.4561  -21.1145  -51.2112 C.2       18 UNK         0.5000 
    103 O         -6.3869  -21.0114  -49.9845 O.2       18 UNK        -0.5000 
    104 N         -6.7262  -20.0828  -52.0190 N.am      19 UNK        -0.5000 
    105 CA        -6.9713  -18.7062  -51.5797 C.3       19 UNK         0.1400 
    106 CB        -7.7914  -17.9832  -52.6635 C.3       19 UNK        -0.1800 
    107 C         -5.6526  -17.9765  -51.2438 C.2       19 UNK         0.5000 
    108 O         -5.3317  -16.9589  -51.8616 O.2       19 UNK        -0.5000 
    109 N         -4.8983  -18.5413  -50.2897 N.am      20 UNK        -0.5000 
    110 CA        -3.5393  -18.1917  -49.8615 C.3       20 UNK         0.1400 
    111 CB        -3.4586  -16.7462  -49.3353 C.3       20 UNK        -0.1800 
    112 C         -2.4989  -18.4812  -50.9578 C.2       20 UNK         0.5000 
    113 O         -1.6848  -19.3887  -50.7995 O.2       20 UNK        -0.5000 
    114 N         -2.5835  -17.7454  -52.0705 N.am      21 UNK        -0.5000 
    115 CA        -1.8622  -18.0227  -53.3072 C.3       21 UNK         0.1400 
    116 CB        -1.9766  -16.7884  -54.2167 C.3       21 UNK        -0.1800 
    117 C         -2.4710  -19.2693  -53.9910 C.2       21 UNK         0.5000 
    118 O         -3.6973  -19.3472  -54.0784 O.2       21 UNK        -0.5000 
    119 N         -1.6919  -20.2331  -54.4937 N.am      22 UNK        -0.5000 
    120 CA        -0.2312  -20.3578  -54.4906 C.3       22 UNK         0.1400 
    121 C          0.1051  -21.8706  -54.5584 C.2       22 UNK         0.5000 
    122 N          0.8285  -22.4075  -53.5855 N.am      22 UNK        -0.7600 
    123 O         -0.2852  -22.5611  -55.4973 O.2       22 UNK        -0.5000 
    124 C124        0.3927  -19.5423  -55.6584 C.3       23 UNK        -0.0398 
    125 S125        2.2104  -19.6496  -55.7982 S.3       23 UNK        -0.2404 
    126 C126        2.7431  -18.0839  -55.0286 C.3       23 UNK        -0.0205 
    127 H127        3.6700  -10.4211  -50.0427 H         1 UNK         0.0600 
    128 H128        1.9678   -9.9586  -49.9422 H         1 UNK         0.0600 
    129 H129        2.4459  -11.3669  -50.8953 H         1 UNK         0.0600 
    130 H130        1.9838  -13.2871  -49.8576 H         1 UNK         0.3000 
    131 H131        2.8802  -13.9386  -47.2738 H         1 UNK         0.0600 
    132 H132        1.7884  -16.0936  -47.6032 H         1 UNK         0.0800 
    133 H133        2.6282  -15.6226  -49.0427 H         1 UNK         0.0800 
    134 H134        1.4416  -14.7413  -51.2516 H         1 UNK         0.0800 
    135 H135       -0.0900  -15.4343  -51.7178 H         1 UNK         0.0800 
    136 H136        1.4860  -16.1071  -53.6318 H         1 UNK         0.1150 
    137 H137        3.3584  -19.9220  -53.1123 H         1 UNK         0.1150 
    138 H138        1.6723  -17.9166  -49.7382 H         1 UNK         0.1150 
    139 H139        3.8421  -20.6927  -50.8846 H         1 UNK         0.0800 
    140 H140        3.2976  -19.8366  -49.4724 H         1 UNK         0.0800 
    141 H141        0.0194  -20.0996  -49.0299 H         1 UNK         0.0800 
    142 H142        1.5220  -20.3110  -48.1880 H         1 UNK         0.0800 
    143 H143        0.8845  -22.8761  -48.1320 H         1 UNK         0.0600 
    144 H144        0.4337  -20.8344  -46.2312 H         1 UNK         0.3000 
    145 H145       -0.2430  -23.1514  -43.5359 H         1 UNK         0.0600 
    146 H146        1.6454  -21.8443  -42.6345 H         1 UNK         0.0600 
    147 H147        2.2230  -22.9129  -43.9038 H         1 UNK         0.0600 
    148 H148        2.0125  -21.1965  -44.2313 H         1 UNK         0.0600 
    149 H149       -0.2084  -20.3146  -43.5497 H         1 UNK         0.3000 
    150 H150       -3.7175  -19.8293  -44.1705 H         1 UNK         0.0600 
    151 H151       -3.3934  -20.2784  -41.7332 H         1 UNK         0.0600 
    152 H152       -3.4035  -18.5528  -42.0681 H         1 UNK         0.0600 
    153 H153       -1.8799  -19.3807  -41.7574 H         1 UNK         0.0600 
    154 H154       -1.6810  -17.9161  -43.7885 H         1 UNK         0.3000 
    155 H155       -0.7285  -17.5491  -47.2332 H         1 UNK         0.0600 
    156 H156       -1.9158  -15.6457  -45.1591 H         1 UNK         0.0600 
    157 H157       -2.8683  -16.2526  -46.4981 H         1 UNK         0.0600 
    158 H158       -1.4299  -15.3118  -46.8185 H         1 UNK         0.0600 
    159 H159        0.3085  -16.3223  -44.8874 H         1 UNK         0.3000 
    160 H160        2.9189  -18.6965  -44.2153 H         1 UNK         0.0600 
    161 H161        2.8644  -15.8209  -45.2760 H         1 UNK         0.0600 
    162 H162        3.7688  -17.1602  -45.9648 H         1 UNK         0.0600 
    163 H163        4.1919  -16.5500  -44.3726 H         1 UNK         0.0600 
    164 H164        2.1086  -16.2880  -42.9053 H         1 UNK         0.3000 
    165 H165       -0.2119  -17.7238  -40.6243 H         1 UNK         0.0600 
    166 H166        1.3552  -16.7064  -38.9921 H         1 UNK         0.0600 
    167 H167        2.0374  -18.1945  -39.6301 H         1 UNK         0.0600 
    168 H168        2.6295  -16.6408  -40.2086 H         1 UNK         0.0600 
    169 H169        0.8414  -15.0745  -40.9345 H         1 UNK         0.3000 
    170 H170       -1.4889  -13.9359  -43.3782 H         1 UNK         0.0600 
    171 H171       -2.6053  -13.6730  -41.1974 H         1 UNK         0.0600 
    172 H172       -1.0854  -13.2587  -40.4202 H         1 UNK         0.0600 
    173 H173       -1.7741  -12.1901  -41.6425 H         1 UNK         0.0600 
    174 H174        0.4895  -13.1395  -43.8269 H         1 UNK         0.3000 
    175 H175        3.0909  -11.6513  -41.9919 H         1 UNK         0.0600 
    176 H176        3.1974  -13.8277  -44.1446 H         1 UNK         0.0600 
    177 H177        4.4847  -12.6974  -43.7403 H         1 UNK         0.0600 
    178 H178        3.9930  -13.9193  -42.5774 H         1 UNK         0.0600 
    179 H179        2.1322  -11.7383  -44.7574 H         1 UNK         0.3000 
    180 H180        0.0621   -8.8687  -44.4719 H         1 UNK         0.0600 
    181 H181        2.7610   -9.2103  -45.8810 H         1 UNK         0.0600 
    182 H182        2.2484   -7.8390  -44.9108 H         1 UNK         0.0600 
    183 H183        1.4517   -8.1699  -46.4417 H         1 UNK         0.0600 
    184 H184        0.8523  -10.7334  -46.5666 H         1 UNK         0.3000 
    185 H185       -1.6975  -13.0741  -45.9479 H         1 UNK         0.0600 
    186 H186       -3.2040  -11.3453  -46.9319 H         1 UNK         0.0600 
    187 H187       -1.9643  -10.9116  -48.1033 H         1 UNK         0.0600 
    188 H188       -2.7034  -12.5135  -48.1439 H         1 UNK         0.0600 
    189 H189       -0.1344  -12.5370  -48.2903 H         1 UNK         0.3000 
    190 H190       -2.0989  -21.1057  -47.2705 H         1 UNK         0.3000 
    191 H191       -3.8408  -22.1187  -49.2181 H         1 UNK         0.0600 
    192 H192       -4.3522  -21.3752  -46.2879 H         1 UNK         0.0600 
    193 H193       -5.6175  -21.6720  -47.4693 H         1 UNK         0.0600 
    194 H194       -4.5208  -20.3225  -47.6882 H         1 UNK         0.0600 
    195 H195       -2.9537  -23.5143  -46.0381 H         1 UNK         0.3000 
    196 H196       -4.5652  -25.8761  -46.2930 H         1 UNK         0.0600 
    197 H197       -3.2960  -26.5930  -44.2618 H         1 UNK         0.0600 
    198 H198       -3.8929  -24.9481  -44.0952 H         1 UNK         0.0600 
    199 H199       -2.1931  -25.2349  -44.4584 H         1 UNK         0.0600 
    200 H200       -1.0973  -25.1865  -46.9468 H         1 UNK         0.3000 
    201 H201       -0.2884  -27.8271  -47.5435 H         1 UNK         0.0600 
    202 H202        1.2963  -25.9613  -47.0929 H         1 UNK         0.0600 
    203 H203        0.8286  -25.1787  -48.6032 H         1 UNK         0.0600 
    204 H204        1.6587  -26.7276  -48.6314 H         1 UNK         0.0600 
    205 H205       -1.6808  -25.2993  -49.6384 H         1 UNK         0.3000 
    206 H206       -1.8287  -27.1130  -51.9752 H         1 UNK         0.0600 
    207 H207       -1.0675  -24.7963  -52.3367 H         1 UNK         0.0600 
    208 H208       -2.6133  -25.0470  -53.1292 H         1 UNK         0.0600 
    209 H209       -2.5333  -24.1693  -51.5999 H         1 UNK         0.0600 
    210 H210       -3.2612  -27.8107  -49.5863 H         1 UNK         0.3000 
    211 H211       -5.0514  -28.8535  -48.9588 H         1 UNK         0.0600 
    212 H212       -6.2147  -28.4373  -51.7612 H         1 UNK         0.0600 
    213 H213       -6.8335  -29.5342  -50.5376 H         1 UNK         0.0600 
    214 H214       -5.2402  -29.8040  -51.2260 H         1 UNK         0.0600 
    215 H215       -6.3400  -26.1492  -50.9388 H         1 UNK         0.3000 
    216 H216       -7.4660  -24.7667  -48.6921 H         1 UNK         0.0600 
    217 H217       -9.8861  -25.0256  -49.2992 H         1 UNK         0.0600 
    218 H218       -9.2056  -26.5622  -48.8060 H         1 UNK         0.0600 
    219 H219       -9.4630  -26.2255  -50.5164 H         1 UNK         0.0600 
    220 H220       -5.6291  -23.9907  -50.5069 H         1 UNK         0.3000 
    221 H221       -6.8145  -22.5595  -52.7644 H         1 UNK         0.0600 
    222 H222       -4.0078  -22.3922  -51.5422 H         1 UNK         0.0600 
    223 H223       -4.4964  -23.4682  -52.8581 H         1 UNK         0.0600 
    224 H224       -4.5025  -21.7313  -53.0919 H         1 UNK         0.0600 
    225 H225       -6.7027  -20.2277  -53.0183 H         1 UNK         0.3000 
    226 H226       -7.5725  -18.7254  -50.6681 H         1 UNK         0.0600 
    227 H227       -8.7386  -18.4912  -52.8456 H         1 UNK         0.0600 
    228 H228       -8.0256  -16.9618  -52.3608 H         1 UNK         0.0600 
    229 H229       -7.2510  -17.9309  -53.6096 H         1 UNK         0.0600 
    230 H230       -5.2671  -19.4002  -49.8914 H         1 UNK         0.3000 
    231 H231       -3.3043  -18.8522  -49.0266 H         1 UNK         0.0600 
    232 H232       -2.4731  -16.5499  -48.9185 H         1 UNK         0.0600 
    233 H233       -4.1886  -16.5757  -48.5444 H         1 UNK         0.0600 
    234 H234       -3.6307  -16.0038  -50.1143 H         1 UNK         0.0600 
    235 H235       -3.3807  -17.1214  -52.1430 H         1 UNK         0.3000 
    236 H236       -0.8141  -18.1698  -53.0566 H         1 UNK         0.0600 
    237 H237       -3.0181  -16.5456  -54.4319 H         1 UNK         0.0600 
    238 H238       -1.5200  -15.9143  -53.7526 H         1 UNK         0.0600 
    239 H239       -1.4782  -16.9453  -55.1724 H         1 UNK         0.0600 
    240 H240       -2.1464  -21.0306  -54.9166 H         1 UNK         0.3000 
    241 H241        0.1637  -19.9881  -53.5444 H         1 UNK         0.0600 
    242 H242        1.0532  -23.3884  -53.6321 H         1 UNK         0.3800 
    243 H243        1.1348  -21.8678  -52.7893 H         1 UNK         0.3800 
    244 H244       -0.0293  -19.8744  -56.6085 H         1 UNK         0.0800 
    245 H245        0.1214  -18.4924  -55.5695 H         1 UNK         0.0800 
    246 H246        2.2771  -17.2498  -55.5556 H         1 UNK         0.0800 
    247 H247        3.8190  -17.9736  -55.1693 H         1 UNK         0.0800 
@<TRIPOS>BOND
     1    1    2 1    
     2    1  127 1    
     3    1  128 1    
     4    1  129 1    
     5    2    3 2    
     6    2    4 am   BACKBONE|DICT|INTERRES
     7    4    5 1    
     8    4  130 1    
     9    5    6 1    
    10    5   65 1    
    11    5  131 1    
    12    6    7 1    
    13    6  132 1    
    14    6  133 1    
    15    7    8 1    
    16    8    9 1    
    17    8  134 1    
    18    8  135 1    
    19    9   10 ar   
    20    9   14 ar   
    21   10   11 ar   
    22   10  136 1    
    23   11   12 ar   
    24   11  126 1    
    25   12   13 ar   
    26   12  137 1    
    27   13   14 ar   
    28   13   15 1    
    29   14  138 1    
    30   15   16 1    
    31   15  139 1    
    32   15  140 1    
    33   16   17 1    
    34   17   18 1    
    35   17  141 1    
    36   17  142 1    
    37   18   19 1    
    38   18   67 1    
    39   18  143 1    
    40   19   20 am   BACKBONE|DICT|INTERRES
    41   19  144 1    
    42   20   21 2    
    43   20   22 1    
    44   22   23 1    
    45   22   24 1    
    46   22  145 1    
    47   23  146 1    
    48   23  147 1    
    49   23  148 1    
    50   24   25 am   BACKBONE|DICT|INTERRES
    51   24  149 1    
    52   25   26 2    
    53   25   27 1    
    54   27   28 1    
    55   27   29 1    
    56   27  150 1    
    57   28  151 1    
    58   28  152 1    
    59   28  153 1    
    60   29   30 am   BACKBONE|DICT|INTERRES
    61   29  154 1    
    62   30   31 2    
    63   30   32 1    
    64   32   33 1    
    65   32   34 1    
    66   32  155 1    
    67   33  156 1    
    68   33  157 1    
    69   33  158 1    
    70   34   35 am   BACKBONE|DICT|INTERRES
    71   34  159 1    
    72   35   36 2    
    73   35   37 1    
    74   37   38 1    
    75   37   39 1    
    76   37  160 1    
    77   38  161 1    
    78   38  162 1    
    79   38  163 1    
    80   39   40 am   BACKBONE|DICT|INTERRES
    81   39  164 1    
    82   40   41 2    
    83   40   42 1    
    84   42   43 1    
    85   42   44 1    
    86   42  165 1    
    87   43  166 1    
    88   43  167 1    
    89   43  168 1    
    90   44   45 am   BACKBONE|DICT|INTERRES
    91   44  169 1    
    92   45   46 2    
    93   45   47 1    
    94   47   48 1    
    95   47   49 1    
    96   47  170 1    
    97   48  171 1    
    98   48  172 1    
    99   48  173 1    
   100   49   50 am   BACKBONE|DICT|INTERRES
   101   49  174 1    
   102   50   51 2    
   103   50   52 1    
   104   52   53 1    
   105   52   54 1    
   106   52  175 1    
   107   53  176 1    
   108   53  177 1    
   109   53  178 1    
   110   54   55 am   BACKBONE|DICT|INTERRES
   111   54  179 1    
   112   55   56 2    
   113   55   57 1    
   114   57   58 1    
   115   57   59 1    
   116   57  180 1    
   117   58  181 1    
   118   58  182 1    
   119   58  183 1    
   120   59   60 am   BACKBONE|DICT|INTERRES
   121   59  184 1    
   122   60   61 2    
   123   60   62 1    
   124   62   63 1    
   125   62   64 1    
   126   62  185 1    
   127   63  186 1    
   128   63  187 1    
   129   63  188 1    
   130   64   65 am   BACKBONE|DICT|INTERRES
   131   64  189 1    
   132   65   66 2    
   133   67   68 2    
   134   67   69 am   BACKBONE|DICT|INTERRES
   135   69   70 1    
   136   69  190 1    
   137   70   71 1    
   138   70   72 1    
   139   70  191 1    
   140   71  192 1    
   141   71  193 1    
   142   71  194 1    
   143   72   73 2    
   144   72   74 am   BACKBONE|DICT|INTERRES
   145   74   75 1    
   146   74  195 1    
   147   75   76 1    
   148   75   77 1    
   149   75  196 1    
   150   76  197 1    
   151   76  198 1    
   152   76  199 1    
   153   77   78 2    
   154   77   79 am   BACKBONE|DICT|INTERRES
   155   79   80 1    
   156   79  200 1    
   157   80   81 1    
   158   80   82 1    
   159   80  201 1    
   160   81  202 1    
   161   81  203 1    
   162   81  204 1    
   163   82   83 2    
   164   82   84 am   BACKBONE|DICT|INTERRES
   165   84   85 1    
   166   84  205 1    
   167   85   86 1    
   168   85   87 1    
   169   85  206 1    
   170   86  207 1    
   171   86  208 1    
   172   86  209 1    
   173   87   88 2    
   174   87   89 am   BACKBONE|DICT|INTERRES
   175   89   90 1    
   176   89  210 1    
   177   90   91 1    
   178   90   92 1    
   179   90  211 1    
   180   91  212 1    
   181   91  213 1    
   182   91  214 1    
   183   92   93 2    
   184   92   94 am   BACKBONE|DICT|INTERRES
   185   94   95 1    
   186   94  215 1    
   187   95   96 1    
   188   95   97 1    
   189   95  216 1    
   190   96  217 1    
   191   96  218 1    
   192   96  219 1    
   193   97   98 2    
   194   97   99 am   BACKBONE|DICT|INTERRES
   195   99  100 1    
   196   99  220 1    
   197  100  101 1    
   198  100  102 1    
   199  100  221 1    
   200  101  222 1    
   201  101  223 1    
   202  101  224 1    
   203  102  103 2    
   204  102  104 am   BACKBONE|DICT|INTERRES
   205  104  105 1    
   206  104  225 1    
   207  105  106 1    
   208  105  107 1    
   209  105  226 1    
   210  106  227 1    
   211  106  228 1    
   212  106  229 1    
   213  107  108 2    
   214  107  109 am   BACKBONE|DICT|INTERRES
   215  109  110 1    
   216  109  230 1    
   217  110  111 1    
   218  110  112 1    
   219  110  231 1    
   220  111  232 1    
   221  111  233 1    
   222  111  234 1    
   223  112  113 2    
   224  112  114 am   BACKBONE|DICT|INTERRES
   225  114  115 1    
   226  114  235 1    
   227  115  116 1    
   228  115  117 1    
   229  115  236 1    
   230  116  237 1    
   231  116  238 1    
   232  116  239 1    
   233  117  118 2    
   234  117  119 am   BACKBONE|DICT|INTERRES
   235  119  120 1    
   236  119  240 1    
   237  120  121 1    
   238  120  124 1    
   239  120  241 1    
   240  121  122 am   BACKBONE|DICT|INTERRES
   241  121  123 2    
   242  122  242 1    
   243  122  243 1    
   244  124  125 1    
   245  124  244 1    
   246  124  245 1    
   247  125  126 1    
   248  126  246 1    
   249  126  247 1    
@<TRIPOS>SUBSTRUCTURE
     1 UNK         1 GROUP             0       ****    0 ROOT    
