@<TRIPOS>MOLECULE
3R540
247   249    1
SMALL
USER_CHARGES


@<TRIPOS>ATOM
      1 CA         -3.1103   -9.3834  -45.8861 C.3       0 UNK        -0.1800 
      2 C          -2.0798  -10.0493  -46.7875 C.2       0 UNK         0.5000 
      3 O          -1.9123   -9.6364  -47.9356 O.2       0 UNK        -0.5000 
      4 N          -1.3967  -11.0807  -46.2759 N.am      1 UNK        -0.5000 
      5 CA         -0.3197  -11.7951  -46.9675 C.3       1 UNK         0.1400 
      6 C6         -0.0433  -13.1665  -46.3016 C.3       23 UNK        -0.0398 
      7 S7          0.7790  -14.3337  -47.4390 S.3       23 UNK        -0.2404 
      8 C8         -0.5881  -15.4710  -47.8131 C.3       23 UNK        -0.0205 
      9 C9         -0.2598  -16.3639  -48.9984 C.ar      23 UNK        -0.0193 
     10 C10        -0.9101  -16.1854  -50.2223 C.ar      23 UNK        -0.1150 
     11 C11        -0.6411  -17.0355  -51.2993 C.ar      23 UNK        -0.0193 
     12 C12         0.2964  -18.0625  -51.1501 C.ar      23 UNK        -0.1150 
     13 C13         0.9525  -18.2513  -49.9301 C.ar      23 UNK        -0.0193 
     14 C14         0.6720  -17.3945  -48.8617 C.ar      23 UNK        -0.1150 
     15 C15         1.9599  -19.3806  -49.7613 C.3       23 UNK        -0.0205 
     16 S16         1.1670  -20.9424  -49.2565 S.3       23 UNK        -0.2404 
     17 C17         0.4797  -20.4727  -47.6329 C.3       23 UNK        -0.0398 
     18 CA          0.0717  -21.6558  -46.7256 C.3       11 UNK         0.1400 
     19 N          -0.3288  -21.1445  -45.4162 N.am      11 UNK        -0.5000 
     20 C          -0.7323  -21.8601  -44.3616 C.2       10 UNK         0.5000 
     21 O          -0.7567  -23.0924  -44.3171 O.2       10 UNK        -0.5000 
     22 CA         -1.1839  -21.0355  -43.1425 C.3       10 UNK         0.1400 
     23 CB         -2.6343  -21.3733  -42.7617 C.3       10 UNK        -0.1800 
     24 N          -0.3328  -21.1827  -41.9610 N.am      10 UNK        -0.5000 
     25 C           1.0054  -21.1191  -41.9095 C.2       9 UNK         0.5000 
     26 O           1.7477  -21.0356  -42.8890 O.2       9 UNK        -0.5000 
     27 CA          1.5921  -21.0163  -40.4948 C.3       9 UNK         0.1400 
     28 CB          3.0795  -21.4068  -40.4290 C.3       9 UNK        -0.1800 
     29 N           1.4377  -19.6229  -40.0934 N.am      9 UNK        -0.5000 
     30 C           0.4302  -19.1472  -39.3524 C.2       8 UNK         0.5000 
     31 O          -0.3848  -19.8601  -38.7651 O.2       8 UNK        -0.5000 
     32 CA          0.2736  -17.6166  -39.3127 C.3       8 UNK         0.1400 
     33 CB          1.4087  -16.9637  -38.5086 C.3       8 UNK        -0.1800 
     34 N           0.2184  -17.0239  -40.6512 N.am      8 UNK        -0.5000 
     35 C          -0.7480  -17.2424  -41.5577 C.2       7 UNK         0.5000 
     36 O          -1.7232  -17.9669  -41.3606 O.2       7 UNK        -0.5000 
     37 CA         -0.5956  -16.5429  -42.9195 C.3       7 UNK         0.1400 
     38 CB         -1.0266  -15.0708  -42.8334 C.3       7 UNK        -0.1800 
     39 N           0.7864  -16.6247  -43.3842 N.am      7 UNK        -0.5000 
     40 C           1.2684  -17.6076  -44.1568 C.2       6 UNK         0.5000 
     41 O           0.5580  -18.4476  -44.7124 O.2       6 UNK        -0.5000 
     42 CA          2.7983  -17.6759  -44.3403 C.3       6 UNK         0.1400 
     43 CB          3.2011  -17.2944  -45.7723 C.3       6 UNK        -0.1800 
     44 N           3.5304  -16.8228  -43.4011 N.am      6 UNK        -0.5000 
     45 C           3.7829  -17.1406  -42.1231 C.2       5 UNK         0.5000 
     46 O           3.4025  -18.1801  -41.5891 O.2       5 UNK        -0.5000 
     47 CA          4.5446  -16.1007  -41.2795 C.3       5 UNK         0.1400 
     48 CB          6.0607  -16.3001  -41.4213 C.3       5 UNK        -0.1800 
     49 N           4.2064  -14.7195  -41.6220 N.am      5 UNK        -0.5000 
     50 C           2.9808  -14.1844  -41.5338 C.2       4 UNK         0.5000 
     51 O           1.9991  -14.7979  -41.1153 O.2       4 UNK        -0.5000 
     52 CA          2.8136  -12.7482  -42.0639 C.3       4 UNK         0.1400 
     53 CB          3.0052  -11.7304  -40.9304 C.3       4 UNK        -0.1800 
     54 N           3.7230  -12.4234  -43.1693 N.am      4 UNK        -0.5000 
     55 C           3.7281  -13.0473  -44.3545 C.2       3 UNK         0.5000 
     56 O           2.9809  -13.9856  -44.6360 O.2       3 UNK        -0.5000 
     57 CA          4.7334  -12.5531  -45.3983 C.3       3 UNK         0.1400 
     58 CB          5.6877  -13.6805  -45.8259 C.3       3 UNK        -0.1800 
     59 N           3.9674  -12.0975  -46.5496 N.am      3 UNK        -0.5000 
     60 C           4.1373  -10.9305  -47.1824 C.2       2 UNK         0.5000 
     61 O           5.0529  -10.1442  -46.9359 O.2       2 UNK        -0.5000 
     62 CA          3.0995  -10.5654  -48.2638 C.3       2 UNK         0.1400 
     63 CB          3.6219  -10.9432  -49.6584 C.3       2 UNK        -0.1800 
     64 N           1.7935  -11.1980  -48.0581 N.am      2 UNK        -0.5000 
     65 C           0.9621  -10.9349  -47.0408 C.2       1 UNK         0.5000 
     66 O           1.1917  -10.0896  -46.1715 O.2       1 UNK        -0.5000 
     67 C          -1.0508  -22.5014  -47.3648 C.2       11 UNK         0.5000 
     68 O          -2.2077  -22.0737  -47.3746 O.2       11 UNK        -0.5000 
     69 N          -0.6847  -23.6628  -47.9239 N.am      12 UNK        -0.5000 
     70 CA         -1.6059  -24.6054  -48.5638 C.3       12 UNK         0.1400 
     71 CB         -0.8654  -25.9156  -48.8658 C.3       12 UNK        -0.1800 
     72 C          -2.2778  -24.0597  -49.8378 C.2       12 UNK         0.5000 
     73 O          -3.3540  -24.5405  -50.1935 O.2       12 UNK        -0.5000 
     74 N          -1.6516  -23.0676  -50.4858 N.am      13 UNK        -0.5000 
     75 CA         -2.2260  -22.3219  -51.6049 C.3       13 UNK         0.1400 
     76 CB         -1.1102  -21.5795  -52.3548 C.3       13 UNK        -0.1800 
     77 C          -3.3086  -21.3326  -51.1389 C.2       13 UNK         0.5000 
     78 O          -4.3583  -21.2320  -51.7732 O.2       13 UNK        -0.5000 
     79 N          -3.0345  -20.6348  -50.0270 N.am      14 UNK        -0.5000 
     80 CA         -3.9170  -19.6311  -49.4297 C.3       14 UNK         0.1400 
     81 CB         -3.1203  -18.7861  -48.4252 C.3       14 UNK        -0.1800 
     82 C          -5.1385  -20.2693  -48.7512 C.2       14 UNK         0.5000 
     83 O          -6.2530  -19.7662  -48.8945 O.2       14 UNK        -0.5000 
     84 N          -4.9062  -21.3887  -48.0530 N.am      15 UNK        -0.5000 
     85 CA         -5.9403  -22.2250  -47.4429 C.3       15 UNK         0.1400 
     86 CB         -5.2692  -23.1668  -46.4299 C.3       15 UNK        -0.1800 
     87 C          -6.7447  -23.0400  -48.4764 C.2       15 UNK         0.5000 
     88 O          -7.8139  -23.5495  -48.1402 O.2       15 UNK        -0.5000 
     89 N          -6.1992  -23.1709  -49.6958 N.am      16 UNK        -0.5000 
     90 CA         -6.6800  -23.9819  -50.8182 C.3       16 UNK         0.1400 
     91 CB         -8.0114  -23.4379  -51.3729 C.3       16 UNK        -0.1800 
     92 C          -6.7186  -25.4922  -50.4983 C.2       16 UNK         0.5000 
     93 O          -7.5390  -26.2266  -51.0505 O.2       16 UNK        -0.5000 
     94 N          -5.8144  -25.9241  -49.6099 N.am      17 UNK        -0.5000 
     95 CA         -5.6235  -27.3099  -49.1930 C.3       17 UNK         0.1400 
     96 CB         -4.8492  -27.3314  -47.8661 C.3       17 UNK        -0.1800 
     97 C          -4.8886  -28.1276  -50.2674 C.2       17 UNK         0.5000 
     98 O          -5.2102  -29.3004  -50.4616 O.2       17 UNK        -0.5000 
     99 N          -3.9347  -27.4871  -50.9584 N.am      18 UNK        -0.5000 
    100 CA        -3.2747  -28.0376  -52.1409 C.3       18 UNK         0.1400 
    101 CB        -1.8984  -27.3727  -52.3203 C.3       18 UNK        -0.1800 
    102 C         -4.1685  -27.8284  -53.3740 C.2       18 UNK         0.5000 
    103 O         -4.5687  -28.7940  -54.0244 O.2       18 UNK        -0.5000 
    104 N         -4.4870  -26.5571  -53.6281 N.am      19 UNK        -0.5000 
    105 CA        -5.3437  -26.0179  -54.6764 C.3       19 UNK         0.1400 
    106 CB        -4.7655  -26.3142  -56.0744 C.3       19 UNK        -0.1800 
    107 C         -5.3970  -24.5035  -54.4379 C.2       19 UNK         0.5000 
    108 O         -4.5122  -23.9688  -53.7641 O.2       19 UNK        -0.5000 
    109 N         -6.3906  -23.8166  -55.0122 N.am      20 UNK        -0.5000 
    110 CA        -6.5441  -22.3570  -54.9488 C.3       20 UNK         0.1400 
    111 CB        -8.0137  -21.9998  -55.2323 C.3       20 UNK        -0.1800 
    112 C         -5.5580  -21.6262  -55.8912 C.2       20 UNK         0.5000 
    113 O         -5.9674  -20.8192  -56.7291 O.2       20 UNK        -0.5000 
    114 N         -4.2645  -21.9408  -55.7461 N.am      21 UNK        -0.5000 
    115 CA        -3.1578  -21.5040  -56.6003 C.3       21 UNK         0.1400 
    116 CB        -1.9017  -22.3083  -56.2317 C.3       21 UNK        -0.1800 
    117 C         -2.8799  -19.9884  -56.5675 C.2       21 UNK         0.5000 
    118 O         -2.2160  -19.4806  -57.4724 O.2       21 UNK        -0.5000 
    119 N         -3.4092  -19.2902  -55.5550 N.am      22 UNK        -0.5000 
    120 CA        -3.4282  -17.8212  -55.4735 C.3       22 UNK         0.1400 
    121 C         -4.3596  -17.1379  -56.5208 C.2       22 UNK         0.5000 
    122 N         -5.2831  -17.8473  -57.1623 N.am      22 UNK        -0.7600 
    123 O         -4.2392  -15.9389  -56.7565 O.2       22 UNK        -0.5000 
    124 C124       -3.7783  -17.3159  -54.0508 C.3       23 UNK        -0.0398 
    125 S125       -2.7542  -18.0460  -52.7311 S.3       23 UNK        -0.2404 
    126 C126       -1.3849  -16.8576  -52.6126 C.3       23 UNK        -0.0205 
    127 H127       -3.1601   -9.8588  -44.9062 H         1 UNK         0.0600 
    128 H128       -4.0992   -9.4391  -46.3413 H         1 UNK         0.0600 
    129 H129       -2.8588   -8.3327  -45.7417 H         1 UNK         0.0600 
    130 H130       -1.5554  -11.3458  -45.3147 H         1 UNK         0.3000 
    131 H131       -0.6643  -11.9744  -47.9888 H         1 UNK         0.0600 
    132 H132        0.5587  -13.0586  -45.3976 H         1 UNK         0.0800 
    133 H133       -0.9821  -13.6157  -45.9759 H         1 UNK         0.0800 
    134 H134       -1.4949  -14.8980  -48.0128 H         1 UNK         0.0800 
    135 H135       -0.7948  -16.0878  -46.9367 H         1 UNK         0.0800 
    136 H136       -1.6415  -15.3971  -50.3319 H         1 UNK         0.1150 
    137 H137        0.5016  -18.7243  -51.9796 H         1 UNK         0.1150 
    138 H138        1.1664  -17.5325  -47.9128 H         1 UNK         0.1150 
    139 H139        2.4901  -19.5432  -50.7008 H         1 UNK         0.0800 
    140 H140        2.7202  -19.1042  -49.0290 H         1 UNK         0.0800 
    141 H141       -0.3712  -19.8099  -47.7949 H         1 UNK         0.0800 
    142 H142        1.2329  -19.8757  -47.1169 H         1 UNK         0.0800 
    143 H143        0.9449  -22.2915  -46.5667 H         1 UNK         0.0600 
    144 H144       -0.2567  -20.1379  -45.2983 H         1 UNK         0.3000 
    145 H145       -1.1607  -19.9784  -43.4112 H         1 UNK         0.0600 
    146 H146       -3.0030  -20.7057  -41.9825 H         1 UNK         0.0600 
    147 H147       -3.2983  -21.2664  -43.6208 H         1 UNK         0.0600 
    148 H148       -2.7272  -22.3981  -42.4001 H         1 UNK         0.0600 
    149 H149       -0.8262  -21.2147  -41.0802 H         1 UNK         0.3000 
    150 H150        1.0377  -21.6836  -39.8315 H         1 UNK         0.0600 
    151 H151        3.2215  -22.4431  -40.7372 H         1 UNK         0.0600 
    152 H152        3.4643  -21.3122  -39.4136 H         1 UNK         0.0600 
    153 H153        3.6972  -20.7846  -41.0772 H         1 UNK         0.0600 
    154 H154        2.0484  -18.9693  -40.5795 H         1 UNK         0.3000 
    155 H155       -0.6694  -17.3908  -38.8106 H         1 UNK         0.0600 
    156 H156        2.3807  -17.1311  -38.9727 H         1 UNK         0.0600 
    157 H157        1.4533  -17.3682  -37.4968 H         1 UNK         0.0600 
    158 H158        1.2617  -15.8868  -38.4230 H         1 UNK         0.0600 
    159 H159        0.9498  -16.3549  -40.8737 H         1 UNK         0.3000 
    160 H160       -1.2565  -17.0414  -43.6320 H         1 UNK         0.0600 
    161 H161       -0.4298  -14.5086  -42.1155 H         1 UNK         0.0600 
    162 H162       -2.0697  -14.9896  -42.5257 H         1 UNK         0.0600 
    163 H163       -0.9340  -14.5796  -43.8004 H         1 UNK         0.0600 
    164 H164        1.4407  -15.9698  -42.9784 H         1 UNK         0.3000 
    165 H165        3.0984  -18.7125  -44.1711 H         1 UNK         0.0600 
    166 H166        4.2847  -17.2653  -45.8864 H         1 UNK         0.0600 
    167 H167        2.8258  -18.0285  -46.4839 H         1 UNK         0.0600 
    168 H168        2.8068  -16.3185  -46.0582 H         1 UNK         0.0600 
    169 H169        3.8024  -15.9116  -43.7466 H         1 UNK         0.3000 
    170 H170        4.2757  -16.2594  -40.2336 H         1 UNK         0.0600 
    171 H171        6.3469  -17.3181  -41.1529 H         1 UNK         0.0600 
    172 H172        6.3968  -16.1231  -42.4438 H         1 UNK         0.0600 
    173 H173        6.6108  -15.6258  -40.7647 H         1 UNK         0.0600 
    174 H174        4.9533  -14.1438  -41.9812 H         1 UNK         0.3000 
    175 H175        1.7911  -12.6569  -42.4368 H         1 UNK         0.0600 
    176 H176        4.0214  -11.7538  -40.5348 H         1 UNK         0.0600 
    177 H177        2.8001  -10.7157  -41.2722 H         1 UNK         0.0600 
    178 H178        2.3254  -11.9361  -40.1022 H         1 UNK         0.0600 
    179 H179        4.3617  -11.6564  -43.0144 H         1 UNK         0.3000 
    180 H180        5.3193  -11.7368  -44.9706 H         1 UNK         0.0600 
    181 H181        5.1499  -14.5219  -46.2654 H         1 UNK         0.0600 
    182 H182        6.2524  -14.0593  -44.9732 H         1 UNK         0.0600 
    183 H183        6.4082  -13.3249  -46.5626 H         1 UNK         0.0600 
    184 H184        3.1702  -12.6722  -46.7887 H         1 UNK         0.3000 
    185 H185        2.9588   -9.4830  -48.2320 H         1 UNK         0.0600 
    186 H186        4.5831  -10.4675  -49.8578 H         1 UNK         0.0600 
    187 H187        3.7620  -12.0205  -49.7572 H         1 UNK         0.0600 
    188 H188        2.9331  -10.6202  -50.4392 H         1 UNK         0.0600 
    189 H189        1.5405  -11.9216  -48.7164 H         1 UNK         0.3000 
    190 H190        0.2862  -23.9391  -47.8903 H         1 UNK         0.3000 
    191 H191       -2.4013  -24.8230  -47.8484 H         1 UNK         0.0600 
    192 H192       -1.5469  -26.6634  -49.2724 H         1 UNK         0.0600 
    193 H193       -0.4276  -26.3396  -47.9620 H         1 UNK         0.0600 
    194 H194       -0.0648  -25.7688  -49.5919 H         1 UNK         0.0600 
    195 H195       -0.7581  -22.7528  -50.1363 H         1 UNK         0.3000 
    196 H196       -2.6839  -23.0299  -52.2954 H         1 UNK         0.0600 
    197 H197       -0.5677  -20.9001  -51.6985 H         1 UNK         0.0600 
    198 H198       -0.3920  -22.2763  -52.7867 H         1 UNK         0.0600 
    199 H199       -1.5189  -20.9797  -53.1687 H         1 UNK         0.0600 
    200 H200       -2.1669  -20.8132  -49.5451 H         1 UNK         0.3000 
    201 H201       -4.2747  -18.9728  -50.2239 H         1 UNK         0.0600 
    202 H202       -2.2398  -18.3535  -48.8960 H         1 UNK         0.0600 
    203 H203       -2.7882  -19.3744  -47.5693 H         1 UNK         0.0600 
    204 H204       -3.7243  -17.9625  -48.0431 H         1 UNK         0.0600 
    205 H205       -3.9424  -21.6923  -47.9279 H         1 UNK         0.3000 
    206 H206       -6.6403  -21.5806  -46.9073 H         1 UNK         0.0600 
    207 H207       -4.7272  -22.6059  -45.6680 H         1 UNK         0.0600 
    208 H208       -6.0086  -23.7829  -45.9166 H         1 UNK         0.0600 
    209 H209       -4.5609  -23.8393  -46.9152 H         1 UNK         0.0600 
    210 H210       -5.3195  -22.7013  -49.8587 H         1 UNK         0.3000 
    211 H211       -5.9290  -23.8621  -51.5969 H         1 UNK         0.0600 
    212 H212       -8.2887  -23.9508  -52.2946 H         1 UNK         0.0600 
    213 H213       -7.9342  -22.3759  -51.6061 H         1 UNK         0.0600 
    214 H214       -8.8300  -23.5697  -50.6650 H         1 UNK         0.0600 
    215 H215       -5.1276  -25.2536  -49.2899 H         1 UNK         0.3000 
    216 H216       -6.6030  -27.7641  -49.0289 H         1 UNK         0.0600 
    217 H217       -3.8575  -26.8903  -47.9693 H         1 UNK         0.0600 
    218 H218       -4.7182  -28.3534  -47.5084 H         1 UNK         0.0600 
    219 H219       -5.3818  -26.7809  -47.0902 H         1 UNK         0.0600 
    220 H220       -3.7551  -26.5137  -50.7401 H         1 UNK         0.3000 
    221 H221       -3.1173  -29.1105  -52.0106 H         1 UNK         0.0600 
    222 H222       -1.2297  -27.6324  -51.5001 H         1 UNK         0.0600 
    223 H223       -1.9684  -26.2848  -52.3611 H         1 UNK         0.0600 
    224 H224       -1.4211  -27.7069  -53.2423 H         1 UNK         0.0600 
    225 H225       -4.0983  -25.8256  -53.0440 H         1 UNK         0.3000 
    226 H226       -6.3460  -26.4380  -54.5760 H         1 UNK         0.0600 
    227 H227       -3.7481  -25.9338  -56.1757 H         1 UNK         0.0600 
    228 H228       -4.7451  -27.3832  -56.2843 H         1 UNK         0.0600 
    229 H229       -5.3682  -25.8495  -56.8556 H         1 UNK         0.0600 
    230 H230       -7.0605  -24.3097  -55.5852 H         1 UNK         0.3000 
    231 H231       -6.3165  -22.0254  -53.9329 H         1 UNK         0.0600 
    232 H232       -8.3148  -22.3002  -56.2367 H         1 UNK         0.0600 
    233 H233       -8.1792  -20.9251  -55.1459 H         1 UNK         0.0600 
    234 H234       -8.6817  -22.4863  -54.5214 H         1 UNK         0.0600 
    235 H235       -4.0390  -22.6070  -55.0126 H         1 UNK         0.3000 
    236 H236       -3.4250  -21.7514  -57.6296 H         1 UNK         0.0600 
    237 H237       -1.6068  -22.1429  -55.1966 H         1 UNK         0.0600 
    238 H238       -2.0664  -23.3778  -56.3645 H         1 UNK         0.0600 
    239 H239       -1.0569  -22.0298  -56.8631 H         1 UNK         0.0600 
    240 H240       -3.9219  -19.7867  -54.8418 H         1 UNK         0.3000 
    241 H241       -2.4171  -17.4763  -55.6983 H         1 UNK         0.0600 
    242 H242       -5.4077  -18.8372  -56.9811 H         1 UNK         0.3800 
    243 H243       -5.8745  -17.3898  -57.8379 H         1 UNK         0.3800 
    244 H244       -4.8183  -17.5514  -53.8185 H         1 UNK         0.0800 
    245 H245       -3.7014  -16.2285  -53.9989 H         1 UNK         0.0800 
    246 H246       -0.7046  -17.0008  -53.4532 H         1 UNK         0.0800 
    247 H247       -1.7670  -15.8387  -52.6898 H         1 UNK         0.0800 
@<TRIPOS>BOND
     1    1    2 1    
     2    1  127 1    
     3    1  128 1    
     4    1  129 1    
     5    2    3 2    
     6    2    4 am   BACKBONE|DICT|INTERRES
     7    4    5 1    
     8    4  130 1    
     9    5    6 1    
    10    5   65 1    
    11    5  131 1    
    12    6    7 1    
    13    6  132 1    
    14    6  133 1    
    15    7    8 1    
    16    8    9 1    
    17    8  134 1    
    18    8  135 1    
    19    9   10 ar   
    20    9   14 ar   
    21   10   11 ar   
    22   10  136 1    
    23   11   12 ar   
    24   11  126 1    
    25   12   13 ar   
    26   12  137 1    
    27   13   14 ar   
    28   13   15 1    
    29   14  138 1    
    30   15   16 1    
    31   15  139 1    
    32   15  140 1    
    33   16   17 1    
    34   17   18 1    
    35   17  141 1    
    36   17  142 1    
    37   18   19 1    
    38   18   67 1    
    39   18  143 1    
    40   19   20 am   BACKBONE|DICT|INTERRES
    41   19  144 1    
    42   20   21 2    
    43   20   22 1    
    44   22   23 1    
    45   22   24 1    
    46   22  145 1    
    47   23  146 1    
    48   23  147 1    
    49   23  148 1    
    50   24   25 am   BACKBONE|DICT|INTERRES
    51   24  149 1    
    52   25   26 2    
    53   25   27 1    
    54   27   28 1    
    55   27   29 1    
    56   27  150 1    
    57   28  151 1    
    58   28  152 1    
    59   28  153 1    
    60   29   30 am   BACKBONE|DICT|INTERRES
    61   29  154 1    
    62   30   31 2    
    63   30   32 1    
    64   32   33 1    
    65   32   34 1    
    66   32  155 1    
    67   33  156 1    
    68   33  157 1    
    69   33  158 1    
    70   34   35 am   BACKBONE|DICT|INTERRES
    71   34  159 1    
    72   35   36 2    
    73   35   37 1    
    74   37   38 1    
    75   37   39 1    
    76   37  160 1    
    77   38  161 1    
    78   38  162 1    
    79   38  163 1    
    80   39   40 am   BACKBONE|DICT|INTERRES
    81   39  164 1    
    82   40   41 2    
    83   40   42 1    
    84   42   43 1    
    85   42   44 1    
    86   42  165 1    
    87   43  166 1    
    88   43  167 1    
    89   43  168 1    
    90   44   45 am   BACKBONE|DICT|INTERRES
    91   44  169 1    
    92   45   46 2    
    93   45   47 1    
    94   47   48 1    
    95   47   49 1    
    96   47  170 1    
    97   48  171 1    
    98   48  172 1    
    99   48  173 1    
   100   49   50 am   BACKBONE|DICT|INTERRES
   101   49  174 1    
   102   50   51 2    
   103   50   52 1    
   104   52   53 1    
   105   52   54 1    
   106   52  175 1    
   107   53  176 1    
   108   53  177 1    
   109   53  178 1    
   110   54   55 am   BACKBONE|DICT|INTERRES
   111   54  179 1    
   112   55   56 2    
   113   55   57 1    
   114   57   58 1    
   115   57   59 1    
   116   57  180 1    
   117   58  181 1    
   118   58  182 1    
   119   58  183 1    
   120   59   60 am   BACKBONE|DICT|INTERRES
   121   59  184 1    
   122   60   61 2    
   123   60   62 1    
   124   62   63 1    
   125   62   64 1    
   126   62  185 1    
   127   63  186 1    
   128   63  187 1    
   129   63  188 1    
   130   64   65 am   BACKBONE|DICT|INTERRES
   131   64  189 1    
   132   65   66 2    
   133   67   68 2    
   134   67   69 am   BACKBONE|DICT|INTERRES
   135   69   70 1    
   136   69  190 1    
   137   70   71 1    
   138   70   72 1    
   139   70  191 1    
   140   71  192 1    
   141   71  193 1    
   142   71  194 1    
   143   72   73 2    
   144   72   74 am   BACKBONE|DICT|INTERRES
   145   74   75 1    
   146   74  195 1    
   147   75   76 1    
   148   75   77 1    
   149   75  196 1    
   150   76  197 1    
   151   76  198 1    
   152   76  199 1    
   153   77   78 2    
   154   77   79 am   BACKBONE|DICT|INTERRES
   155   79   80 1    
   156   79  200 1    
   157   80   81 1    
   158   80   82 1    
   159   80  201 1    
   160   81  202 1    
   161   81  203 1    
   162   81  204 1    
   163   82   83 2    
   164   82   84 am   BACKBONE|DICT|INTERRES
   165   84   85 1    
   166   84  205 1    
   167   85   86 1    
   168   85   87 1    
   169   85  206 1    
   170   86  207 1    
   171   86  208 1    
   172   86  209 1    
   173   87   88 2    
   174   87   89 am   BACKBONE|DICT|INTERRES
   175   89   90 1    
   176   89  210 1    
   177   90   91 1    
   178   90   92 1    
   179   90  211 1    
   180   91  212 1    
   181   91  213 1    
   182   91  214 1    
   183   92   93 2    
   184   92   94 am   BACKBONE|DICT|INTERRES
   185   94   95 1    
   186   94  215 1    
   187   95   96 1    
   188   95   97 1    
   189   95  216 1    
   190   96  217 1    
   191   96  218 1    
   192   96  219 1    
   193   97   98 2    
   194   97   99 am   BACKBONE|DICT|INTERRES
   195   99  100 1    
   196   99  220 1    
   197  100  101 1    
   198  100  102 1    
   199  100  221 1    
   200  101  222 1    
   201  101  223 1    
   202  101  224 1    
   203  102  103 2    
   204  102  104 am   BACKBONE|DICT|INTERRES
   205  104  105 1    
   206  104  225 1    
   207  105  106 1    
   208  105  107 1    
   209  105  226 1    
   210  106  227 1    
   211  106  228 1    
   212  106  229 1    
   213  107  108 2    
   214  107  109 am   BACKBONE|DICT|INTERRES
   215  109  110 1    
   216  109  230 1    
   217  110  111 1    
   218  110  112 1    
   219  110  231 1    
   220  111  232 1    
   221  111  233 1    
   222  111  234 1    
   223  112  113 2    
   224  112  114 am   BACKBONE|DICT|INTERRES
   225  114  115 1    
   226  114  235 1    
   227  115  116 1    
   228  115  117 1    
   229  115  236 1    
   230  116  237 1    
   231  116  238 1    
   232  116  239 1    
   233  117  118 2    
   234  117  119 am   BACKBONE|DICT|INTERRES
   235  119  120 1    
   236  119  240 1    
   237  120  121 1    
   238  120  124 1    
   239  120  241 1    
   240  121  122 am   BACKBONE|DICT|INTERRES
   241  121  123 2    
   242  122  242 1    
   243  122  243 1    
   244  124  125 1    
   245  124  244 1    
   246  124  245 1    
   247  125  126 1    
   248  126  246 1    
   249  126  247 1    
@<TRIPOS>SUBSTRUCTURE
     1 UNK         1 GROUP             0       ****    0 ROOT    
