@<TRIPOS>MOLECULE
3R540
247   249    1
SMALL
USER_CHARGES


@<TRIPOS>ATOM
      1 CA         -5.0499  -15.3344  -48.8461 C.3       0 UNK        -0.1800 
      2 C          -3.7237  -14.7671  -48.3591 C.2       0 UNK         0.5000 
      3 O          -3.5084  -14.6604  -47.1532 O.2       0 UNK        -0.5000 
      4 N          -2.8453  -14.3875  -49.2986 N.am      1 UNK        -0.5000 
      5 CA         -1.4723  -13.8900  -49.0882 C.3       1 UNK         0.1400 
      6 C6         -0.5604  -14.8807  -48.3092 C.3       23 UNK        -0.0398 
      7 S7         -0.4002  -16.4948  -49.1488 S.3       23 UNK        -0.2404 
      8 C8          1.3038  -16.3745  -49.7678 C.3       23 UNK        -0.0205 
      9 C9          1.7449  -17.6617  -50.4432 C.ar      23 UNK        -0.0193 
     10 C10         1.6428  -17.8100  -51.8296 C.ar      23 UNK        -0.1150 
     11 C11         2.0826  -18.9779  -52.4604 C.ar      23 UNK        -0.0193 
     12 C12         2.6522  -19.9934  -51.6810 C.ar      23 UNK        -0.1150 
     13 C13         2.7358  -19.8687  -50.2912 C.ar      23 UNK        -0.0193 
     14 C14         2.2806  -18.6998  -49.6783 C.ar      23 UNK        -0.1150 
     15 C15         3.3239  -20.9955  -49.4554 C.3       23 UNK        -0.0205 
     16 S16         2.2769  -22.4827  -49.4980 S.3       23 UNK        -0.2404 
     17 C17         0.7924  -21.9244  -48.5943 C.3       23 UNK        -0.0398 
     18 CA          0.2240  -23.0601  -47.7149 C.3       11 UNK         0.1400 
     19 N           1.1451  -23.4422  -46.6424 N.am      11 UNK        -0.5000 
     20 C           1.0912  -24.6104  -45.9895 C.2       10 UNK         0.5000 
     21 O           0.2553  -25.4810  -46.2240 O.2       10 UNK        -0.5000 
     22 CA          2.1055  -24.8278  -44.8514 C.3       10 UNK         0.1400 
     23 CB          3.3871  -25.4774  -45.3929 C.3       10 UNK        -0.1800 
     24 N           2.4537  -23.5988  -44.1380 N.am      10 UNK        -0.5000 
     25 C           1.5849  -22.7984  -43.5065 C.2       9 UNK         0.5000 
     26 O           0.3755  -23.0262  -43.4389 O.2       9 UNK        -0.5000 
     27 CA          2.1457  -21.5058  -42.8854 C.3       9 UNK         0.1400 
     28 CB          3.6774  -21.5145  -42.6864 C.3       9 UNK        -0.1800 
     29 N           1.7455  -20.3191  -43.6423 N.am      9 UNK        -0.5000 
     30 C           1.9537  -20.0517  -44.9404 C.2       8 UNK         0.5000 
     31 O           2.4595  -20.8441  -45.7364 O.2       8 UNK        -0.5000 
     32 CA          1.5425  -18.6498  -45.4288 C.3       8 UNK         0.1400 
     33 CB          0.0878  -18.6315  -45.9149 C.3       8 UNK        -0.1800 
     34 N           1.7067  -17.6338  -44.3888 N.am      8 UNK        -0.5000 
     35 C           2.8703  -17.0456  -44.0798 C.2       7 UNK         0.5000 
     36 O           3.9242  -17.2486  -44.6836 O.2       7 UNK        -0.5000 
     37 CA          2.8539  -16.0727  -42.8867 C.3       7 UNK         0.1400 
     38 CB          2.4433  -14.6637  -43.3428 C.3       7 UNK        -0.1800 
     39 N           1.9564  -16.5275  -41.8223 N.am      7 UNK        -0.5000 
     40 C           2.2582  -17.5149  -40.9642 C.2       6 UNK         0.5000 
     41 O           3.3451  -18.0931  -40.9521 O.2       6 UNK        -0.5000 
     42 CA          1.1772  -17.9448  -39.9497 C.3       6 UNK         0.1400 
     43 CB          1.4214  -17.2706  -38.5910 C.3       6 UNK        -0.1800 
     44 N          -0.1940  -17.6619  -40.3752 N.am      6 UNK        -0.5000 
     45 C          -0.7992  -18.1960  -41.4444 C.2       5 UNK         0.5000 
     46 O          -0.2687  -19.0211  -42.1853 O.2       5 UNK        -0.5000 
     47 CA         -2.2097  -17.6744  -41.7802 C.3       5 UNK         0.1400 
     48 CB         -3.2774  -18.5746  -41.1414 C.3       5 UNK        -0.1800 
     49 N          -2.4503  -16.2819  -41.3808 N.am      5 UNK        -0.5000 
     50 C          -1.7174  -15.2294  -41.7693 C.2       4 UNK         0.5000 
     51 O          -0.7012  -15.3237  -42.4629 O.2       4 UNK        -0.5000 
     52 CA         -2.1613  -13.8522  -41.2407 C.3       4 UNK         0.1400 
     53 CB         -1.5822  -13.6128  -39.8374 C.3       4 UNK        -0.1800 
     54 N          -1.7226  -12.7689  -42.1206 N.am      4 UNK        -0.5000 
     55 C          -2.1722  -12.5766  -43.3663 C.2       3 UNK         0.5000 
     56 O          -3.1091  -13.2096  -43.8616 O.2       3 UNK        -0.5000 
     57 CA         -1.4457  -11.5037  -44.1916 C.3       3 UNK         0.1400 
     58 CB          0.0412  -11.8582  -44.3967 C.3       3 UNK        -0.1800 
     59 N          -2.0946  -11.3837  -45.4916 N.am      3 UNK        -0.5000 
     60 C          -2.0573  -10.3150  -46.2937 C.2       2 UNK         0.5000 
     61 O          -1.5128   -9.2525  -45.9862 O.2       2 UNK        -0.5000 
     62 CA         -2.7292  -10.4797  -47.6763 C.3       2 UNK         0.1400 
     63 CB         -2.2916   -9.4014  -48.6895 C.3       2 UNK        -0.1800 
     64 N          -2.5537  -11.8229  -48.2483 N.am      2 UNK        -0.5000 
     65 C          -1.3975  -12.4598  -48.4999 C.2       1 UNK         0.5000 
     66 O          -0.2904  -11.9536  -48.3119 O.2       1 UNK        -0.5000 
     67 C          -1.1814  -22.7254  -47.1737 C.2       11 UNK         0.5000 
     68 O          -2.1661  -23.0060  -47.8575 O.2       11 UNK        -0.5000 
     69 N          -1.2720  -22.1955  -45.9433 N.am      12 UNK        -0.5000 
     70 CA         -2.5462  -22.0092  -45.2445 C.3       12 UNK         0.1400 
     71 CB         -2.3998  -21.0105  -44.0868 C.3       12 UNK        -0.1800 
     72 C          -3.1169  -23.3457  -44.7452 C.2       12 UNK         0.5000 
     73 O          -4.3158  -23.5791  -44.8932 O.2       12 UNK        -0.5000 
     74 N          -2.2471  -24.2145  -44.2086 N.am      13 UNK        -0.5000 
     75 CA         -2.5943  -25.5622  -43.7469 C.3       13 UNK         0.1400 
     76 CB         -1.3824  -26.1915  -43.0443 C.3       13 UNK        -0.1800 
     77 C          -3.1071  -26.4742  -44.8797 C.2       13 UNK         0.5000 
     78 O          -4.0614  -27.2245  -44.6739 O.2       13 UNK        -0.5000 
     79 N          -2.4912  -26.3603  -46.0642 N.am      14 UNK        -0.5000 
     80 CA         -2.9014  -27.0360  -47.2969 C.3       14 UNK         0.1400 
     81 CB         -1.7246  -27.0107  -48.2858 C.3       14 UNK        -0.1800 
     82 C          -4.1531  -26.4198  -47.9555 C.2       14 UNK         0.5000 
     83 O          -4.7160  -27.0433  -48.8562 O.2       14 UNK        -0.5000 
     84 N          -4.5478  -25.2126  -47.5201 N.am      15 UNK        -0.5000 
     85 CA         -5.6154  -24.3694  -48.0692 C.3       15 UNK         0.1400 
     86 CB         -6.9994  -25.0100  -47.8368 C.3       15 UNK        -0.1800 
     87 C          -5.3532  -23.9902  -49.5425 C.2       15 UNK         0.5000 
     88 O          -6.2536  -24.0657  -50.3807 O.2       15 UNK        -0.5000 
     89 N          -4.1051  -23.6040  -49.8253 N.am      16 UNK        -0.5000 
     90 CA         -3.5891  -23.2709  -51.1459 C.3       16 UNK         0.1400 
     91 CB         -2.8342  -24.4861  -51.7168 C.3       16 UNK        -0.1800 
     92 C          -2.7106  -22.0192  -51.0177 C.2       16 UNK         0.5000 
     93 O          -1.5085  -22.0732  -51.2709 O.2       16 UNK        -0.5000 
     94 N          -3.3314  -20.9160  -50.5873 N.am      17 UNK        -0.5000 
     95 CA         -2.7183  -19.5919  -50.4847 C.3       17 UNK         0.1400 
     96 CB         -3.5309  -18.7760  -49.4629 C.3       17 UNK        -0.1800 
     97 C          -2.6665  -18.8831  -51.8553 C.2       17 UNK         0.5000 
     98 O          -3.1124  -19.4372  -52.8659 O.2       17 UNK        -0.5000 
     99 N          -2.1718  -17.6359  -51.8648 N.am      18 UNK        -0.5000 
    100 CA        -2.0813  -16.7654  -53.0458 C.3       18 UNK         0.1400 
    101 CB        -1.4429  -15.4266  -52.6491 C.3       18 UNK        -0.1800 
    102 C         -3.4281  -16.5014  -53.7512 C.2       18 UNK         0.5000 
    103 O         -3.4378  -16.2657  -54.9585 O.2       18 UNK        -0.5000 
    104 N         -4.5407  -16.5972  -53.0079 N.am      19 UNK        -0.5000 
    105 CA        -5.9112  -16.5178  -53.5253 C.3       19 UNK         0.1400 
    106 CB        -6.8903  -16.4901  -52.3416 C.3       19 UNK        -0.1800 
    107 C         -6.2735  -17.6612  -54.4982 C.2       19 UNK         0.5000 
    108 O         -7.1325  -17.4726  -55.3599 O.2       19 UNK        -0.5000 
    109 N         -5.5948  -18.8079  -54.3605 N.am      20 UNK        -0.5000 
    110 CA        -5.6770  -19.9637  -55.2548 C.3       20 UNK         0.1400 
    111 CB        -5.8095  -21.2291  -54.3880 C.3       20 UNK        -0.1800 
    112 C         -4.4376  -20.0535  -56.1711 C.2       20 UNK         0.5000 
    113 O         -4.2188  -21.0958  -56.7923 O.2       20 UNK        -0.5000 
    114 N         -3.6090  -18.9939  -56.1900 N.am      21 UNK        -0.5000 
    115 CA        -2.2957  -18.8880  -56.8419 C.3       21 UNK         0.1400 
    116 CB        -2.4610  -18.8535  -58.3750 C.3       21 UNK        -0.1800 
    117 C         -1.2943  -19.9690  -56.3741 C.2       21 UNK         0.5000 
    118 O         -0.3893  -20.3291  -57.1276 O.2       21 UNK        -0.5000 
    119 N         -1.5162  -20.4858  -55.1560 N.am      22 UNK        -0.5000 
    120 CA        -0.9285  -21.6968  -54.5647 C.3       22 UNK         0.1400 
    121 C         -0.9113  -22.9759  -55.4573 C.2       22 UNK         0.5000 
    122 N         -1.8608  -23.1363  -56.3739 N.am      22 UNK        -0.7600 
    123 O         -0.0654  -23.8519  -55.2990 O.2       22 UNK        -0.5000 
    124 C124        0.3509  -21.4335  -53.7266 C.3       23 UNK        -0.0398 
    125 S125        1.8074  -20.8028  -54.6295 S.3       23 UNK        -0.2404 
    126 C126        1.9316  -19.0972  -53.9798 C.3       23 UNK        -0.0205 
    127 H127       -5.2414  -16.2970  -48.3738 H         1 UNK         0.0600 
    128 H128       -5.0536  -15.4806  -49.9249 H         1 UNK         0.0600 
    129 H129       -5.8661  -14.6603  -48.5892 H         1 UNK         0.0600 
    130 H130       -3.1227  -14.4523  -50.2669 H         1 UNK         0.3000 
    131 H131       -1.0457  -13.7895  -50.0873 H         1 UNK         0.0600 
    132 H132       -0.9423  -15.0537  -47.3019 H         1 UNK         0.0800 
    133 H133        0.4374  -14.4600  -48.1709 H         1 UNK         0.0800 
    134 H134        1.3823  -15.5357  -50.4611 H         1 UNK         0.0800 
    135 H135        1.9768  -16.1522  -48.9380 H         1 UNK         0.0800 
    136 H136        1.2269  -17.0103  -52.4242 H         1 UNK         0.1150 
    137 H137        3.0144  -20.8993  -52.1452 H         1 UNK         0.1150 
    138 H138        2.3517  -18.5915  -48.6061 H         1 UNK         0.1150 
    139 H139        4.3115  -21.2479  -49.8438 H         1 UNK         0.0800 
    140 H140        3.4714  -20.6852  -48.4195 H         1 UNK         0.0800 
    141 H141        0.0614  -21.5912  -49.3302 H         1 UNK         0.0800 
    142 H142        1.0326  -21.0506  -47.9890 H         1 UNK         0.0800 
    143 H143        0.0931  -23.9307  -48.3621 H         1 UNK         0.0600 
    144 H144        1.8405  -22.7537  -46.3745 H         1 UNK         0.3000 
    145 H145        1.6540  -25.5109  -44.1301 H         1 UNK         0.0600 
    146 H146        4.0813  -25.7144  -44.5865 H         1 UNK         0.0600 
    147 H147        3.9012  -24.8244  -46.0995 H         1 UNK         0.0600 
    148 H148        3.1623  -26.4104  -45.9116 H         1 UNK         0.0600 
    149 H149        3.4216  -23.3147  -44.1749 H         1 UNK         0.3000 
    150 H150        1.6837  -21.4144  -41.9013 H         1 UNK         0.0600 
    151 H151        3.9947  -22.3778  -42.1000 H         1 UNK         0.0600 
    152 H152        3.9996  -20.6249  -42.1450 H         1 UNK         0.0600 
    153 H153        4.2192  -21.5328  -43.6326 H         1 UNK         0.0600 
    154 H154        1.1927  -19.6515  -43.1100 H         1 UNK         0.3000 
    155 H155        2.1834  -18.3977  -46.2755 H         1 UNK         0.0600 
    156 H156       -0.1078  -19.4247  -46.6366 H         1 UNK         0.0600 
    157 H157       -0.1483  -17.6845  -46.3992 H         1 UNK         0.0600 
    158 H158       -0.6034  -18.7536  -45.0840 H         1 UNK         0.0600 
    159 H159        0.8958  -17.4200  -43.8257 H         1 UNK         0.3000 
    160 H160        3.8683  -16.0127  -42.4862 H         1 UNK         0.0600 
    161 H161        1.4621  -14.6626  -43.8179 H         1 UNK         0.0600 
    162 H162        3.1552  -14.2674  -44.0679 H         1 UNK         0.0600 
    163 H163        2.4110  -13.9684  -42.5039 H         1 UNK         0.0600 
    164 H164        1.0308  -16.1111  -41.8029 H         1 UNK         0.3000 
    165 H165        1.2675  -19.0250  -39.8180 H         1 UNK         0.0600 
    166 H166        0.7209  -17.6331  -37.8383 H         1 UNK         0.0600 
    167 H167        2.4270  -17.4812  -38.2245 H         1 UNK         0.0600 
    168 H168        1.3156  -16.1868  -38.6556 H         1 UNK         0.0600 
    169 H169       -0.7036  -16.9807  -39.8328 H         1 UNK         0.3000 
    170 H170       -2.3212  -17.7280  -42.8651 H         1 UNK         0.0600 
    171 H171       -3.2593  -18.5093  -40.0528 H         1 UNK         0.0600 
    172 H172       -3.1201  -19.6205  -41.4077 H         1 UNK         0.0600 
    173 H173       -4.2775  -18.3018  -41.4787 H         1 UNK         0.0600 
    174 H174       -3.2569  -16.1216  -40.7945 H         1 UNK         0.3000 
    175 H175       -3.2517  -13.8312  -41.1840 H         1 UNK         0.0600 
    176 H176       -0.4913  -13.6301  -39.8436 H         1 UNK         0.0600 
    177 H177       -1.9002  -12.6495  -39.4380 H         1 UNK         0.0600 
    178 H178       -1.9180  -14.3785  -39.1370 H         1 UNK         0.0600 
    179 H179       -0.9366  -12.2247  -41.7976 H         1 UNK         0.3000 
    180 H180       -1.5286  -10.5566  -43.6543 H         1 UNK         0.0600 
    181 H181        0.5542  -11.0939  -44.9805 H         1 UNK         0.0600 
    182 H182        0.1540  -12.8074  -44.9224 H         1 UNK         0.0600 
    183 H183        0.5696  -11.9429  -43.4468 H         1 UNK         0.0600 
    184 H184       -2.6125  -12.2073  -45.7755 H         1 UNK         0.3000 
    185 H185       -3.7997  -10.3559  -47.5070 H         1 UNK         0.0600 
    186 H186       -2.7954   -9.5327  -49.6472 H         1 UNK         0.0600 
    187 H187       -2.5385   -8.4019  -48.3294 H         1 UNK         0.0600 
    188 H188       -1.2165   -9.4279  -48.8699 H         1 UNK         0.0600 
    189 H189       -3.4049  -12.3365  -48.4261 H         1 UNK         0.3000 
    190 H190       -0.4310  -22.0727  -45.3964 H         1 UNK         0.3000 
    191 H191       -3.2708  -21.5902  -45.9465 H         1 UNK         0.0600 
    192 H192       -2.2900  -19.9952  -44.4600 H         1 UNK         0.0600 
    193 H193       -1.5449  -21.2351  -43.4495 H         1 UNK         0.0600 
    194 H194       -3.2884  -21.0134  -43.4544 H         1 UNK         0.0600 
    195 H195       -1.2844  -23.9186  -44.0791 H         1 UNK         0.3000 
    196 H196       -3.3967  -25.4616  -43.0133 H         1 UNK         0.0600 
    197 H197       -1.0231  -25.5599  -42.2315 H         1 UNK         0.0600 
    198 H198       -0.5555  -26.3522  -43.7353 H         1 UNK         0.0600 
    199 H199       -1.6419  -27.1600  -42.6153 H         1 UNK         0.0600 
    200 H200       -1.6522  -25.7901  -46.1231 H         1 UNK         0.3000 
    201 H201       -3.1311  -28.0774  -47.0629 H         1 UNK         0.0600 
    202 H202       -0.8448  -27.4982  -47.8654 H         1 UNK         0.0600 
    203 H203       -1.4479  -25.9897  -48.5518 H         1 UNK         0.0600 
    204 H204       -1.9744  -27.5340  -49.2097 H         1 UNK         0.0600 
    205 H205       -4.0260  -24.7980  -46.7593 H         1 UNK         0.3000 
    206 H206       -5.5868  -23.4362  -47.5049 H         1 UNK         0.0600 
    207 H207       -7.1259  -25.9278  -48.4116 H         1 UNK         0.0600 
    208 H208       -7.1489  -25.2500  -46.7840 H         1 UNK         0.0600 
    209 H209       -7.7983  -24.3284  -48.1307 H         1 UNK         0.0600 
    210 H210       -3.4344  -23.5048  -49.0632 H         1 UNK         0.3000 
    211 H211       -4.4063  -23.0205  -51.8255 H         1 UNK         0.0600 
    212 H212       -2.0014  -24.7785  -51.0755 H         1 UNK         0.0600 
    213 H213       -2.4301  -24.2680  -52.7061 H         1 UNK         0.0600 
    214 H214       -3.4953  -25.3472  -51.8170 H         1 UNK         0.0600 
    215 H215       -4.3224  -20.9659  -50.4047 H         1 UNK         0.3000 
    216 H216       -1.6941  -19.6946  -50.1192 H         1 UNK         0.0600 
    217 H217       -3.0832  -17.8004  -49.2759 H         1 UNK         0.0600 
    218 H218       -3.5776  -19.2893  -48.5020 H         1 UNK         0.0600 
    219 H219       -4.5541  -18.6086  -49.8018 H         1 UNK         0.0600 
    220 H220       -1.7965  -17.2584  -51.0044 H         1 UNK         0.3000 
    221 H221       -1.4245  -17.2620  -53.7631 H         1 UNK         0.0600 
    222 H222       -2.1017  -14.8465  -52.0048 H         1 UNK         0.0600 
    223 H223       -0.4990  -15.5647  -52.1261 H         1 UNK         0.0600 
    224 H224       -1.2367  -14.8194  -53.5314 H         1 UNK         0.0600 
    225 H225       -4.4409  -16.8077  -52.0272 H         1 UNK         0.3000 
    226 H226       -6.0098  -15.5792  -54.0745 H         1 UNK         0.0600 
    227 H227       -6.7253  -15.6147  -51.7137 H         1 UNK         0.0600 
    228 H228       -7.9234  -16.4450  -52.6892 H         1 UNK         0.0600 
    229 H229       -6.7929  -17.3787  -51.7166 H         1 UNK         0.0600 
    230 H230       -4.8796  -18.8706  -53.6431 H         1 UNK         0.3000 
    231 H231       -6.5555  -19.8918  -55.8987 H         1 UNK         0.0600 
    232 H232       -5.9419  -22.1187  -55.0049 H         1 UNK         0.0600 
    233 H233       -6.6731  -21.1647  -53.7260 H         1 UNK         0.0600 
    234 H234       -4.9248  -21.3863  -53.7697 H         1 UNK         0.0600 
    235 H235       -3.8804  -18.1740  -55.6602 H         1 UNK         0.3000 
    236 H236       -1.8731  -17.9313  -56.5327 H         1 UNK         0.0600 
    237 H237       -2.8181  -19.8072  -58.7648 H         1 UNK         0.0600 
    238 H238       -3.1684  -18.0812  -58.6771 H         1 UNK         0.0600 
    239 H239       -1.5132  -18.6330  -58.8674 H         1 UNK         0.0600 
    240 H240       -2.2661  -20.0818  -54.6059 H         1 UNK         0.3000 
    241 H241       -1.6816  -21.9744  -53.8298 H         1 UNK         0.0600 
    242 H242       -1.8602  -23.9660  -56.9456 H         1 UNK         0.3800 
    243 H243       -2.5753  -22.4316  -56.5152 H         1 UNK         0.3800 
    244 H244        0.0943  -20.7305  -52.9342 H         1 UNK         0.0800 
    245 H245        0.6491  -22.3425  -53.2019 H         1 UNK         0.0800 
    246 H246        1.0439  -18.5521  -54.3049 H         1 UNK         0.0800 
    247 H247        2.7849  -18.6085  -54.4510 H         1 UNK         0.0800 
@<TRIPOS>BOND
     1    1    2 1    
     2    1  127 1    
     3    1  128 1    
     4    1  129 1    
     5    2    3 2    
     6    2    4 am   BACKBONE|DICT|INTERRES
     7    4    5 1    
     8    4  130 1    
     9    5    6 1    
    10    5   65 1    
    11    5  131 1    
    12    6    7 1    
    13    6  132 1    
    14    6  133 1    
    15    7    8 1    
    16    8    9 1    
    17    8  134 1    
    18    8  135 1    
    19    9   10 ar   
    20    9   14 ar   
    21   10   11 ar   
    22   10  136 1    
    23   11   12 ar   
    24   11  126 1    
    25   12   13 ar   
    26   12  137 1    
    27   13   14 ar   
    28   13   15 1    
    29   14  138 1    
    30   15   16 1    
    31   15  139 1    
    32   15  140 1    
    33   16   17 1    
    34   17   18 1    
    35   17  141 1    
    36   17  142 1    
    37   18   19 1    
    38   18   67 1    
    39   18  143 1    
    40   19   20 am   BACKBONE|DICT|INTERRES
    41   19  144 1    
    42   20   21 2    
    43   20   22 1    
    44   22   23 1    
    45   22   24 1    
    46   22  145 1    
    47   23  146 1    
    48   23  147 1    
    49   23  148 1    
    50   24   25 am   BACKBONE|DICT|INTERRES
    51   24  149 1    
    52   25   26 2    
    53   25   27 1    
    54   27   28 1    
    55   27   29 1    
    56   27  150 1    
    57   28  151 1    
    58   28  152 1    
    59   28  153 1    
    60   29   30 am   BACKBONE|DICT|INTERRES
    61   29  154 1    
    62   30   31 2    
    63   30   32 1    
    64   32   33 1    
    65   32   34 1    
    66   32  155 1    
    67   33  156 1    
    68   33  157 1    
    69   33  158 1    
    70   34   35 am   BACKBONE|DICT|INTERRES
    71   34  159 1    
    72   35   36 2    
    73   35   37 1    
    74   37   38 1    
    75   37   39 1    
    76   37  160 1    
    77   38  161 1    
    78   38  162 1    
    79   38  163 1    
    80   39   40 am   BACKBONE|DICT|INTERRES
    81   39  164 1    
    82   40   41 2    
    83   40   42 1    
    84   42   43 1    
    85   42   44 1    
    86   42  165 1    
    87   43  166 1    
    88   43  167 1    
    89   43  168 1    
    90   44   45 am   BACKBONE|DICT|INTERRES
    91   44  169 1    
    92   45   46 2    
    93   45   47 1    
    94   47   48 1    
    95   47   49 1    
    96   47  170 1    
    97   48  171 1    
    98   48  172 1    
    99   48  173 1    
   100   49   50 am   BACKBONE|DICT|INTERRES
   101   49  174 1    
   102   50   51 2    
   103   50   52 1    
   104   52   53 1    
   105   52   54 1    
   106   52  175 1    
   107   53  176 1    
   108   53  177 1    
   109   53  178 1    
   110   54   55 am   BACKBONE|DICT|INTERRES
   111   54  179 1    
   112   55   56 2    
   113   55   57 1    
   114   57   58 1    
   115   57   59 1    
   116   57  180 1    
   117   58  181 1    
   118   58  182 1    
   119   58  183 1    
   120   59   60 am   BACKBONE|DICT|INTERRES
   121   59  184 1    
   122   60   61 2    
   123   60   62 1    
   124   62   63 1    
   125   62   64 1    
   126   62  185 1    
   127   63  186 1    
   128   63  187 1    
   129   63  188 1    
   130   64   65 am   BACKBONE|DICT|INTERRES
   131   64  189 1    
   132   65   66 2    
   133   67   68 2    
   134   67   69 am   BACKBONE|DICT|INTERRES
   135   69   70 1    
   136   69  190 1    
   137   70   71 1    
   138   70   72 1    
   139   70  191 1    
   140   71  192 1    
   141   71  193 1    
   142   71  194 1    
   143   72   73 2    
   144   72   74 am   BACKBONE|DICT|INTERRES
   145   74   75 1    
   146   74  195 1    
   147   75   76 1    
   148   75   77 1    
   149   75  196 1    
   150   76  197 1    
   151   76  198 1    
   152   76  199 1    
   153   77   78 2    
   154   77   79 am   BACKBONE|DICT|INTERRES
   155   79   80 1    
   156   79  200 1    
   157   80   81 1    
   158   80   82 1    
   159   80  201 1    
   160   81  202 1    
   161   81  203 1    
   162   81  204 1    
   163   82   83 2    
   164   82   84 am   BACKBONE|DICT|INTERRES
   165   84   85 1    
   166   84  205 1    
   167   85   86 1    
   168   85   87 1    
   169   85  206 1    
   170   86  207 1    
   171   86  208 1    
   172   86  209 1    
   173   87   88 2    
   174   87   89 am   BACKBONE|DICT|INTERRES
   175   89   90 1    
   176   89  210 1    
   177   90   91 1    
   178   90   92 1    
   179   90  211 1    
   180   91  212 1    
   181   91  213 1    
   182   91  214 1    
   183   92   93 2    
   184   92   94 am   BACKBONE|DICT|INTERRES
   185   94   95 1    
   186   94  215 1    
   187   95   96 1    
   188   95   97 1    
   189   95  216 1    
   190   96  217 1    
   191   96  218 1    
   192   96  219 1    
   193   97   98 2    
   194   97   99 am   BACKBONE|DICT|INTERRES
   195   99  100 1    
   196   99  220 1    
   197  100  101 1    
   198  100  102 1    
   199  100  221 1    
   200  101  222 1    
   201  101  223 1    
   202  101  224 1    
   203  102  103 2    
   204  102  104 am   BACKBONE|DICT|INTERRES
   205  104  105 1    
   206  104  225 1    
   207  105  106 1    
   208  105  107 1    
   209  105  226 1    
   210  106  227 1    
   211  106  228 1    
   212  106  229 1    
   213  107  108 2    
   214  107  109 am   BACKBONE|DICT|INTERRES
   215  109  110 1    
   216  109  230 1    
   217  110  111 1    
   218  110  112 1    
   219  110  231 1    
   220  111  232 1    
   221  111  233 1    
   222  111  234 1    
   223  112  113 2    
   224  112  114 am   BACKBONE|DICT|INTERRES
   225  114  115 1    
   226  114  235 1    
   227  115  116 1    
   228  115  117 1    
   229  115  236 1    
   230  116  237 1    
   231  116  238 1    
   232  116  239 1    
   233  117  118 2    
   234  117  119 am   BACKBONE|DICT|INTERRES
   235  119  120 1    
   236  119  240 1    
   237  120  121 1    
   238  120  124 1    
   239  120  241 1    
   240  121  122 am   BACKBONE|DICT|INTERRES
   241  121  123 2    
   242  122  242 1    
   243  122  243 1    
   244  124  125 1    
   245  124  244 1    
   246  124  245 1    
   247  125  126 1    
   248  126  246 1    
   249  126  247 1    
@<TRIPOS>SUBSTRUCTURE
     1 UNK         1 GROUP             0       ****    0 ROOT    
