@<TRIPOS>MOLECULE
3R540
247   249    1
SMALL
USER_CHARGES


@<TRIPOS>ATOM
      1 CA          5.4901  -10.2035  -46.2109 C.3       0 UNK        -0.1800 
      2 C           4.5229  -11.3320  -46.5401 C.2       0 UNK         0.5000 
      3 O           3.7588  -11.7533  -45.6732 O.2       0 UNK        -0.5000 
      4 N           4.5617  -11.8248  -47.7838 N.am      1 UNK        -0.5000 
      5 CA          3.6694  -12.8577  -48.3176 C.3       1 UNK         0.1400 
      6 C6          4.2639  -13.4494  -49.6243 C.3       23 UNK        -0.0398 
      7 S7          3.2243  -14.6625  -50.5085 S.3       23 UNK        -0.2404 
      8 C8          3.4282  -16.1437  -49.4715 C.3       23 UNK        -0.0205 
      9 C9          2.6252  -17.3145  -50.0183 C.ar      23 UNK        -0.0193 
     10 C10         1.2325  -17.2231  -50.1056 C.ar      23 UNK        -0.1150 
     11 C11         0.4772  -18.2855  -50.6053 C.ar      23 UNK        -0.0193 
     12 C12         1.1279  -19.4583  -50.9937 C.ar      23 UNK        -0.1150 
     13 C13         2.5178  -19.5719  -50.9057 C.ar      23 UNK        -0.0193 
     14 C14         3.2636  -18.4927  -50.4215 C.ar      23 UNK        -0.1150 
     15 C15         3.2035  -20.8606  -51.3452 C.3       23 UNK        -0.0205 
     16 S16         3.5384  -21.9974  -49.9570 S.3       23 UNK        -0.2404 
     17 C17         1.8517  -22.2991  -49.3266 C.3       23 UNK        -0.0398 
     18 CA          1.7575  -23.2753  -48.1229 C.3       11 UNK         0.1400 
     19 N           2.7749  -23.0076  -47.0916 N.am      11 UNK        -0.5000 
     20 C           3.1359  -23.8588  -46.1214 C.2       10 UNK         0.5000 
     21 O           2.6115  -24.9631  -45.9776 O.2       10 UNK        -0.5000 
     22 CA          4.2422  -23.4227  -45.1331 C.3       10 UNK         0.1400 
     23 CB          5.3666  -24.4713  -45.0919 C.3       10 UNK        -0.1800 
     24 N           4.8519  -22.1212  -45.4305 N.am      10 UNK        -0.5000 
     25 C           4.4457  -20.8957  -45.0657 C.2       9 UNK         0.5000 
     26 O           5.1338  -19.9042  -45.3097 O.2       9 UNK        -0.5000 
     27 CA          3.1028  -20.7043  -44.3172 C.3       9 UNK         0.1400 
     28 CB          3.3457  -20.5275  -42.8110 C.3       9 UNK        -0.1800 
     29 N           2.3316  -19.5608  -44.8136 N.am      9 UNK        -0.5000 
     30 C           1.9802  -19.3617  -46.0928 C.2       8 UNK         0.5000 
     31 O           2.2591  -20.1449  -46.9962 O.2       8 UNK        -0.5000 
     32 CA          1.1442  -18.1180  -46.4328 C.3       8 UNK         0.1400 
     33 CB         -0.3094  -18.5282  -46.7178 C.3       8 UNK        -0.1800 
     34 N           1.1587  -17.0913  -45.3944 N.am      8 UNK        -0.5000 
     35 C           2.1805  -16.2658  -45.1347 C.2       7 UNK         0.5000 
     36 O           3.2602  -16.3021  -45.7244 O.2       7 UNK        -0.5000 
     37 CA          1.9561  -15.2216  -44.0284 C.3       7 UNK         0.1400 
     38 CB          1.2681  -13.9760  -44.6032 C.3       7 UNK        -0.1800 
     39 N           1.1273  -15.7522  -42.9479 N.am      7 UNK        -0.5000 
     40 C           1.5919  -16.2850  -41.8113 C.2       6 UNK         0.5000 
     41 O           2.7890  -16.3758  -41.5375 O.2       6 UNK        -0.5000 
     42 CA          0.5453  -16.7993  -40.8008 C.3       6 UNK         0.1400 
     43 CB          0.2415  -15.7207  -39.7497 C.3       6 UNK        -0.1800 
     44 N          -0.7115  -17.2204  -41.4242 N.am      6 UNK        -0.5000 
     45 C          -0.8445  -18.3114  -42.1896 C.2       5 UNK         0.5000 
     46 O           0.0751  -19.0945  -42.4224 O.2       5 UNK        -0.5000 
     47 CA         -2.2231  -18.5472  -42.8393 C.3       5 UNK         0.1400 
     48 CB         -3.1063  -19.4136  -41.9294 C.3       5 UNK        -0.1800 
     49 N          -2.9589  -17.3323  -43.2157 N.am      5 UNK        -0.5000 
     50 C          -2.4912  -16.3726  -44.0245 C.2       4 UNK         0.5000 
     51 O          -1.3221  -16.3130  -44.4028 O.2       4 UNK        -0.5000 
     52 CA         -3.4758  -15.2805  -44.4766 C.3       4 UNK         0.1400 
     53 CB         -3.2777  -14.0069  -43.6412 C.3       4 UNK        -0.1800 
     54 N          -3.2821  -14.9566  -45.8917 N.am      4 UNK        -0.5000 
     55 C          -3.4860  -15.8101  -46.9059 C.2       3 UNK         0.5000 
     56 O          -3.9764  -16.9306  -46.7611 O.2       3 UNK        -0.5000 
     57 CA         -3.0932  -15.3447  -48.3225 C.3       3 UNK         0.1400 
     58 CB         -4.3460  -15.0815  -49.1725 C.3       3 UNK        -0.1800 
     59 N          -2.2354  -14.1550  -48.3586 N.am      3 UNK        -0.5000 
     60 C          -0.9298  -14.1549  -48.0630 C.2       2 UNK         0.5000 
     61 O          -0.3132  -15.1513  -47.6804 O.2       2 UNK        -0.5000 
     62 CA         -0.1886  -12.8172  -48.2136 C.3       2 UNK         0.1400 
     63 CB         -0.6274  -11.8057  -47.1366 C.3       2 UNK        -0.1800 
     64 N           1.2400  -13.0874  -48.1072 N.am      2 UNK        -0.5000 
     65 C           2.2407  -12.2919  -48.4953 C.2       1 UNK         0.5000 
     66 O           2.0795  -11.1720  -48.9877 O.2       1 UNK        -0.5000 
     67 C           0.3100  -23.2366  -47.5738 C.2       11 UNK         0.5000 
     68 O          -0.6141  -23.5884  -48.3033 O.2       11 UNK        -0.5000 
     69 N           0.1415  -22.7702  -46.3280 N.am      12 UNK        -0.5000 
     70 CA         -1.1008  -22.3928  -45.6472 C.3       12 UNK         0.1400 
     71 CB         -0.7276  -21.8266  -44.2689 C.3       12 UNK        -0.1800 
     72 C          -2.1983  -23.4668  -45.4932 C.2       12 UNK         0.5000 
     73 O          -3.2990  -23.1154  -45.0634 O.2       12 UNK        -0.5000 
     74 N          -1.9145  -24.7310  -45.8313 N.am      13 UNK        -0.5000 
     75 CA         -2.8476  -25.8608  -45.7702 C.3       13 UNK         0.1400 
     76 CB         -2.1499  -27.1126  -46.3225 C.3       13 UNK        -0.1800 
     77 C          -4.1657  -25.5989  -46.5291 C.2       13 UNK         0.5000 
     78 O          -4.1288  -25.1373  -47.6714 O.2       13 UNK        -0.5000 
     79 N          -5.2994  -25.8774  -45.8683 N.am      14 UNK        -0.5000 
     80 CA         -6.6724  -25.6602  -46.3467 C.3       14 UNK         0.1400 
     81 CB         -7.0030  -26.6317  -47.4998 C.3       14 UNK        -0.1800 
     82 C          -6.9584  -24.1839  -46.7033 C.2       14 UNK         0.5000 
     83 O          -7.5448  -23.9029  -47.7499 O.2       14 UNK        -0.5000 
     84 N          -6.4943  -23.2653  -45.8403 N.am      15 UNK        -0.5000 
     85 CA         -6.5244  -21.8048  -46.0102 C.3       15 UNK         0.1400 
     86 CB         -7.9718  -21.2716  -45.9637 C.3       15 UNK        -0.1800 
     87 C          -5.7571  -21.3635  -47.2737 C.2       15 UNK         0.5000 
     88 O          -6.2596  -20.5716  -48.0718 O.2       15 UNK        -0.5000 
     89 N          -4.5672  -21.9525  -47.4470 N.am      16 UNK        -0.5000 
     90 CA         -3.6845  -21.8602  -48.6111 C.3       16 UNK         0.1400 
     91 CB         -3.0614  -20.4555  -48.7024 C.3       16 UNK        -0.1800 
     92 C          -4.3831  -22.3105  -49.9095 C.2       16 UNK         0.5000 
     93 O          -4.3326  -21.6062  -50.9194 O.2       16 UNK        -0.5000 
     94 N          -5.0624  -23.4641  -49.8303 N.am      17 UNK        -0.5000 
     95 CA         -5.9473  -24.0495  -50.8425 C.3       17 UNK         0.1400 
     96 CB         -5.1231  -24.5670  -52.0396 C.3       17 UNK        -0.1800 
     97 C          -7.0740  -23.0800  -51.2606 C.2       17 UNK         0.5000 
     98 O          -7.2993  -22.8721  -52.4520 O.2       17 UNK        -0.5000 
     99 N          -7.7222  -22.4569  -50.2653 N.am      18 UNK        -0.5000 
    100 CA        -8.6850  -21.3549  -50.3958 C.3       18 UNK         0.1400 
    101 CB       -10.0149  -21.8640  -50.9884 C.3       18 UNK        -0.1800 
    102 C         -8.0930  -20.1527  -51.1687 C.2       18 UNK         0.5000 
    103 O         -8.7149  -19.6367  -52.0987 O.2       18 UNK        -0.5000 
    104 N         -6.8679  -19.7728  -50.7810 N.am      19 UNK        -0.5000 
    105 CA        -5.9872  -18.7509  -51.3587 C.3       19 UNK         0.1400 
    106 CB        -6.6436  -17.3569  -51.2969 C.3       19 UNK        -0.1800 
    107 C         -5.4376  -19.0640  -52.7696 C.2       19 UNK         0.5000 
    108 O         -4.6916  -18.2443  -53.3080 O.2       19 UNK        -0.5000 
    109 N         -5.7688  -20.2262  -53.3531 N.am      20 UNK        -0.5000 
    110 CA        -5.3306  -20.6208  -54.6947 C.3       20 UNK         0.1400 
    111 CB        -6.1968  -21.7784  -55.2108 C.3       20 UNK        -0.1800 
    112 C         -3.8395  -20.9959  -54.7712 C.2       20 UNK         0.5000 
    113 O         -3.2551  -20.8954  -55.8517 O.2       20 UNK        -0.5000 
    114 N         -3.2339  -21.3961  -53.6413 N.am      21 UNK        -0.5000 
    115 CA        -1.8176  -21.7693  -53.5574 C.3       21 UNK         0.1400 
    116 CB        -1.5312  -22.4348  -52.2019 C.3       21 UNK        -0.1800 
    117 C         -0.8527  -20.5900  -53.7867 C.2       21 UNK         0.5000 
    118 O          0.3208  -20.8271  -54.0740 O.2       21 UNK        -0.5000 
    119 N         -1.3516  -19.3521  -53.6541 N.am      22 UNK        -0.5000 
    120 CA        -0.5954  -18.1164  -53.9036 C.3       22 UNK         0.1400 
    121 C         -0.2493  -17.8870  -55.4083 C.2       22 UNK         0.5000 
    122 N         -0.8708  -18.5828  -56.3554 N.am      22 UNK        -0.7600 
    123 O          0.6019  -17.0598  -55.7227 O.2       22 UNK        -0.5000 
    124 C124       -1.3132  -16.8605  -53.3382 C.3       23 UNK        -0.0398 
    125 S125       -1.6709  -16.7167  -51.5435 S.3       23 UNK        -0.2404 
    126 C126       -1.0410  -18.1953  -50.6780 C.3       23 UNK        -0.0205 
    127 H127        4.9384   -9.3146  -45.9049 H         1 UNK         0.0600 
    128 H128        6.1456  -10.4982  -45.3914 H         1 UNK         0.0600 
    129 H129        6.1128   -9.9395  -47.0661 H         1 UNK         0.0600 
    130 H130        5.1941  -11.4083  -48.4520 H         1 UNK         0.3000 
    131 H131        3.6249  -13.6621  -47.5796 H         1 UNK         0.0600 
    132 H132        4.4736  -12.6433  -50.3294 H         1 UNK         0.0800 
    133 H133        5.2279  -13.9142  -49.4126 H         1 UNK         0.0800 
    134 H134        4.4875  -16.3966  -49.4052 H         1 UNK         0.0800 
    135 H135        3.0917  -15.9298  -48.4567 H         1 UNK         0.0800 
    136 H136        0.7349  -16.3186  -49.7862 H         1 UNK         0.1150 
    137 H137        0.5521  -20.2960  -51.3559 H         1 UNK         0.1150 
    138 H138        4.3389  -18.5767  -50.3506 H         1 UNK         0.1150 
    139 H139        2.5961  -21.3747  -52.0922 H         1 UNK         0.0800 
    140 H140        4.1466  -20.6205  -51.8379 H         1 UNK         0.0800 
    141 H141        1.2452  -22.6706  -50.1546 H         1 UNK         0.0800 
    142 H142        1.4247  -21.3339  -49.0549 H         1 UNK         0.0800 
    143 H143        1.9296  -24.2853  -48.5005 H         1 UNK         0.0600 
    144 H144        3.2051  -22.0912  -47.1447 H         1 UNK         0.3000 
    145 H145        3.7962  -23.3924  -44.1377 H         1 UNK         0.0600 
    146 H146        5.8523  -24.5785  -46.0627 H         1 UNK         0.0600 
    147 H147        6.1309  -24.2023  -44.3624 H         1 UNK         0.0600 
    148 H148        4.9840  -25.4522  -44.8065 H         1 UNK         0.0600 
    149 H149        5.7159  -22.1783  -45.9492 H         1 UNK         0.3000 
    150 H150        2.4665  -21.5759  -44.4576 H         1 UNK         0.0600 
    151 H151        3.9195  -21.3615  -42.4050 H         1 UNK         0.0600 
    152 H152        2.4055  -20.4844  -42.2612 H         1 UNK         0.0600 
    153 H153        3.8999  -19.6121  -42.5993 H         1 UNK         0.0600 
    154 H154        2.0353  -18.8801  -44.1289 H         1 UNK         0.3000 
    155 H155        1.5604  -17.6848  -47.3424 H         1 UNK         0.0600 
    156 H156       -0.3535  -19.2710  -47.5152 H         1 UNK         0.0600 
    157 H157       -0.9068  -17.6751  -47.0376 H         1 UNK         0.0600 
    158 H158       -0.7867  -18.9578  -45.8374 H         1 UNK         0.0600 
    159 H159        0.2704  -16.9152  -44.9296 H         1 UNK         0.3000 
    160 H160        2.9327  -14.9217  -43.6423 H         1 UNK         0.0600 
    161 H161        0.2790  -14.2084  -44.9988 H         1 UNK         0.0600 
    162 H162        1.8542  -13.5512  -45.4165 H         1 UNK         0.0600 
    163 H163        1.1541  -13.2009  -43.8455 H         1 UNK         0.0600 
    164 H164        0.1310  -15.7862  -43.1319 H         1 UNK         0.3000 
    165 H165        0.9784  -17.6617  -40.2894 H         1 UNK         0.0600 
    166 H166       -0.4387  -16.0953  -38.9846 H         1 UNK         0.0600 
    167 H167        1.1533  -15.4007  -39.2435 H         1 UNK         0.0600 
    168 H168       -0.2116  -14.8365  -40.1999 H         1 UNK         0.0600 
    169 H169       -1.5144  -16.6237  -41.2898 H         1 UNK         0.3000 
    170 H170       -2.0459  -19.1033  -43.7612 H         1 UNK         0.0600 
    171 H171       -3.3783  -18.8868  -41.0140 H         1 UNK         0.0600 
    172 H172       -4.0260  -19.7077  -42.4356 H         1 UNK         0.0600 
    173 H173       -2.5909  -20.3303  -41.6395 H         1 UNK         0.0600 
    174 H174       -3.9256  -17.2931  -42.9267 H         1 UNK         0.3000 
    175 H175       -4.4981  -15.6394  -44.3422 H         1 UNK         0.0600 
    176 H176       -3.4342  -14.2064  -42.5804 H         1 UNK         0.0600 
    177 H177       -2.2701  -13.6038  -43.7544 H         1 UNK         0.0600 
    178 H178       -3.9845  -13.2297  -43.9326 H         1 UNK         0.0600 
    179 H179       -2.8462  -14.0716  -46.0986 H         1 UNK         0.3000 
    180 H180       -2.5463  -16.1721  -48.7764 H         1 UNK         0.0600 
    181 H181       -4.0814  -14.8618  -50.2071 H         1 UNK         0.0600 
    182 H182       -4.9272  -14.2438  -48.7856 H         1 UNK         0.0600 
    183 H183       -4.9978  -15.9557  -49.1858 H         1 UNK         0.0600 
    184 H184       -2.6724  -13.2969  -48.6626 H         1 UNK         0.3000 
    185 H185       -0.4007  -12.4175  -49.2071 H         1 UNK         0.0600 
    186 H186       -1.6922  -11.5842  -47.2131 H         1 UNK         0.0600 
    187 H187       -0.4421  -12.1805  -46.1303 H         1 UNK         0.0600 
    188 H188       -0.0969  -10.8592  -47.2402 H         1 UNK         0.0600 
    189 H189        1.4318  -14.0219  -47.7656 H         1 UNK         0.3000 
    190 H190        0.9882  -22.5216  -45.8422 H         1 UNK         0.3000 
    191 H191       -1.5458  -21.5858  -46.2300 H         1 UNK         0.0600 
    192 H192       -0.1930  -22.5597  -43.6639 H         1 UNK         0.0600 
    193 H193       -1.6124  -21.5252  -43.7076 H         1 UNK         0.0600 
    194 H194       -0.0958  -20.9453  -44.3642 H         1 UNK         0.0600 
    195 H195       -1.0074  -24.9165  -46.2327 H         1 UNK         0.3000 
    196 H196       -3.0777  -26.0323  -44.7169 H         1 UNK         0.0600 
    197 H197       -2.8082  -27.9810  -46.2749 H         1 UNK         0.0600 
    198 H198       -1.2542  -27.3522  -45.7490 H         1 UNK         0.0600 
    199 H199       -1.8563  -26.9795  -47.3648 H         1 UNK         0.0600 
    200 H200       -5.2252  -26.2438  -44.9292 H         1 UNK         0.3000 
    201 H201       -7.3341  -25.9026  -45.5140 H         1 UNK         0.0600 
    202 H202       -6.8313  -27.6663  -47.2034 H         1 UNK         0.0600 
    203 H203       -6.3989  -26.4336  -48.3853 H         1 UNK         0.0600 
    204 H204       -8.0502  -26.5494  -47.7935 H         1 UNK         0.0600 
    205 H205       -5.9816  -23.5956  -45.0339 H         1 UNK         0.3000 
    206 H206       -5.9868  -21.3807  -45.1608 H         1 UNK         0.0600 
    207 H207       -8.4789  -21.5885  -45.0525 H         1 UNK         0.0600 
    208 H208       -7.9848  -20.1813  -45.9801 H         1 UNK         0.0600 
    209 H209       -8.5623  -21.6162  -46.8129 H         1 UNK         0.0600 
    210 H210       -4.2647  -22.5933  -46.7208 H         1 UNK         0.3000 
    211 H211       -2.8831  -22.5737  -48.4368 H         1 UNK         0.0600 
    212 H212       -3.7856  -19.7056  -49.0197 H         1 UNK         0.0600 
    213 H213       -2.2405  -20.4567  -49.4162 H         1 UNK         0.0600 
    214 H214       -2.6583  -20.1344  -47.7432 H         1 UNK         0.0600 
    215 H215       -4.9801  -23.9918  -48.9651 H         1 UNK         0.3000 
    216 H216       -6.4330  -24.9062  -50.3740 H         1 UNK         0.0600 
    217 H217       -5.7559  -25.1076  -52.7441 H         1 UNK         0.0600 
    218 H218       -4.3411  -25.2522  -51.7125 H         1 UNK         0.0600 
    219 H219       -4.6478  -23.7531  -52.5871 H         1 UNK         0.0600 
    220 H220       -7.4963  -22.7342  -49.3136 H         1 UNK         0.3000 
    221 H221       -8.8866  -21.0012  -49.3837 H         1 UNK         0.0600 
    222 H222       -9.8972  -22.2048  -52.0175 H         1 UNK         0.0600 
    223 H223      -10.4134  -22.6933  -50.4040 H         1 UNK         0.0600 
    224 H224      -10.7683  -21.0756  -50.9891 H         1 UNK         0.0600 
    225 H225       -6.4759  -20.2567  -49.9768 H         1 UNK         0.3000 
    226 H226       -5.1130  -18.7233  -50.7080 H         1 UNK         0.0600 
    227 H227       -7.4890  -17.2749  -51.9801 H         1 UNK         0.0600 
    228 H228       -6.9997  -17.1325  -50.2915 H         1 UNK         0.0600 
    229 H229       -5.9308  -16.5776  -51.5692 H         1 UNK         0.0600 
    230 H230       -6.3506  -20.8849  -52.8497 H         1 UNK         0.3000 
    231 H231       -5.4879  -19.7685  -55.3591 H         1 UNK         0.0600 
    232 H232       -6.0010  -21.9665  -56.2671 H         1 UNK         0.0600 
    233 H233       -7.2597  -21.5580  -55.1100 H         1 UNK         0.0600 
    234 H234       -5.9900  -22.7052  -54.6754 H         1 UNK         0.0600 
    235 H235       -3.7681  -21.4332  -52.7761 H         1 UNK         0.3000 
    236 H236       -1.6218  -22.5047  -54.3404 H         1 UNK         0.0600 
    237 H237       -1.6619  -21.7363  -51.3761 H         1 UNK         0.0600 
    238 H238       -2.1870  -23.2883  -52.0306 H         1 UNK         0.0600 
    239 H239       -0.5051  -22.8018  -52.1566 H         1 UNK         0.0600 
    240 H240       -2.3313  -19.2405  -53.4325 H         1 UNK         0.3000 
    241 H241        0.3650  -18.2062  -53.3956 H         1 UNK         0.0600 
    242 H242       -0.6340  -18.4246  -57.3221 H         1 UNK         0.3800 
    243 H243       -1.5696  -19.2733  -56.1175 H         1 UNK         0.3800 
    244 H244       -2.2656  -16.7309  -53.8555 H         1 UNK         0.0800 
    245 H245       -0.7306  -15.9708  -53.5841 H         1 UNK         0.0800 
    246 H246       -1.4107  -18.1541  -49.6535 H         1 UNK         0.0800 
    247 H247       -1.4795  -19.0923  -51.1097 H         1 UNK         0.0800 
@<TRIPOS>BOND
     1    1    2 1    
     2    1  127 1    
     3    1  128 1    
     4    1  129 1    
     5    2    3 2    
     6    2    4 am   BACKBONE|DICT|INTERRES
     7    4    5 1    
     8    4  130 1    
     9    5    6 1    
    10    5   65 1    
    11    5  131 1    
    12    6    7 1    
    13    6  132 1    
    14    6  133 1    
    15    7    8 1    
    16    8    9 1    
    17    8  134 1    
    18    8  135 1    
    19    9   10 ar   
    20    9   14 ar   
    21   10   11 ar   
    22   10  136 1    
    23   11   12 ar   
    24   11  126 1    
    25   12   13 ar   
    26   12  137 1    
    27   13   14 ar   
    28   13   15 1    
    29   14  138 1    
    30   15   16 1    
    31   15  139 1    
    32   15  140 1    
    33   16   17 1    
    34   17   18 1    
    35   17  141 1    
    36   17  142 1    
    37   18   19 1    
    38   18   67 1    
    39   18  143 1    
    40   19   20 am   BACKBONE|DICT|INTERRES
    41   19  144 1    
    42   20   21 2    
    43   20   22 1    
    44   22   23 1    
    45   22   24 1    
    46   22  145 1    
    47   23  146 1    
    48   23  147 1    
    49   23  148 1    
    50   24   25 am   BACKBONE|DICT|INTERRES
    51   24  149 1    
    52   25   26 2    
    53   25   27 1    
    54   27   28 1    
    55   27   29 1    
    56   27  150 1    
    57   28  151 1    
    58   28  152 1    
    59   28  153 1    
    60   29   30 am   BACKBONE|DICT|INTERRES
    61   29  154 1    
    62   30   31 2    
    63   30   32 1    
    64   32   33 1    
    65   32   34 1    
    66   32  155 1    
    67   33  156 1    
    68   33  157 1    
    69   33  158 1    
    70   34   35 am   BACKBONE|DICT|INTERRES
    71   34  159 1    
    72   35   36 2    
    73   35   37 1    
    74   37   38 1    
    75   37   39 1    
    76   37  160 1    
    77   38  161 1    
    78   38  162 1    
    79   38  163 1    
    80   39   40 am   BACKBONE|DICT|INTERRES
    81   39  164 1    
    82   40   41 2    
    83   40   42 1    
    84   42   43 1    
    85   42   44 1    
    86   42  165 1    
    87   43  166 1    
    88   43  167 1    
    89   43  168 1    
    90   44   45 am   BACKBONE|DICT|INTERRES
    91   44  169 1    
    92   45   46 2    
    93   45   47 1    
    94   47   48 1    
    95   47   49 1    
    96   47  170 1    
    97   48  171 1    
    98   48  172 1    
    99   48  173 1    
   100   49   50 am   BACKBONE|DICT|INTERRES
   101   49  174 1    
   102   50   51 2    
   103   50   52 1    
   104   52   53 1    
   105   52   54 1    
   106   52  175 1    
   107   53  176 1    
   108   53  177 1    
   109   53  178 1    
   110   54   55 am   BACKBONE|DICT|INTERRES
   111   54  179 1    
   112   55   56 2    
   113   55   57 1    
   114   57   58 1    
   115   57   59 1    
   116   57  180 1    
   117   58  181 1    
   118   58  182 1    
   119   58  183 1    
   120   59   60 am   BACKBONE|DICT|INTERRES
   121   59  184 1    
   122   60   61 2    
   123   60   62 1    
   124   62   63 1    
   125   62   64 1    
   126   62  185 1    
   127   63  186 1    
   128   63  187 1    
   129   63  188 1    
   130   64   65 am   BACKBONE|DICT|INTERRES
   131   64  189 1    
   132   65   66 2    
   133   67   68 2    
   134   67   69 am   BACKBONE|DICT|INTERRES
   135   69   70 1    
   136   69  190 1    
   137   70   71 1    
   138   70   72 1    
   139   70  191 1    
   140   71  192 1    
   141   71  193 1    
   142   71  194 1    
   143   72   73 2    
   144   72   74 am   BACKBONE|DICT|INTERRES
   145   74   75 1    
   146   74  195 1    
   147   75   76 1    
   148   75   77 1    
   149   75  196 1    
   150   76  197 1    
   151   76  198 1    
   152   76  199 1    
   153   77   78 2    
   154   77   79 am   BACKBONE|DICT|INTERRES
   155   79   80 1    
   156   79  200 1    
   157   80   81 1    
   158   80   82 1    
   159   80  201 1    
   160   81  202 1    
   161   81  203 1    
   162   81  204 1    
   163   82   83 2    
   164   82   84 am   BACKBONE|DICT|INTERRES
   165   84   85 1    
   166   84  205 1    
   167   85   86 1    
   168   85   87 1    
   169   85  206 1    
   170   86  207 1    
   171   86  208 1    
   172   86  209 1    
   173   87   88 2    
   174   87   89 am   BACKBONE|DICT|INTERRES
   175   89   90 1    
   176   89  210 1    
   177   90   91 1    
   178   90   92 1    
   179   90  211 1    
   180   91  212 1    
   181   91  213 1    
   182   91  214 1    
   183   92   93 2    
   184   92   94 am   BACKBONE|DICT|INTERRES
   185   94   95 1    
   186   94  215 1    
   187   95   96 1    
   188   95   97 1    
   189   95  216 1    
   190   96  217 1    
   191   96  218 1    
   192   96  219 1    
   193   97   98 2    
   194   97   99 am   BACKBONE|DICT|INTERRES
   195   99  100 1    
   196   99  220 1    
   197  100  101 1    
   198  100  102 1    
   199  100  221 1    
   200  101  222 1    
   201  101  223 1    
   202  101  224 1    
   203  102  103 2    
   204  102  104 am   BACKBONE|DICT|INTERRES
   205  104  105 1    
   206  104  225 1    
   207  105  106 1    
   208  105  107 1    
   209  105  226 1    
   210  106  227 1    
   211  106  228 1    
   212  106  229 1    
   213  107  108 2    
   214  107  109 am   BACKBONE|DICT|INTERRES
   215  109  110 1    
   216  109  230 1    
   217  110  111 1    
   218  110  112 1    
   219  110  231 1    
   220  111  232 1    
   221  111  233 1    
   222  111  234 1    
   223  112  113 2    
   224  112  114 am   BACKBONE|DICT|INTERRES
   225  114  115 1    
   226  114  235 1    
   227  115  116 1    
   228  115  117 1    
   229  115  236 1    
   230  116  237 1    
   231  116  238 1    
   232  116  239 1    
   233  117  118 2    
   234  117  119 am   BACKBONE|DICT|INTERRES
   235  119  120 1    
   236  119  240 1    
   237  120  121 1    
   238  120  124 1    
   239  120  241 1    
   240  121  122 am   BACKBONE|DICT|INTERRES
   241  121  123 2    
   242  122  242 1    
   243  122  243 1    
   244  124  125 1    
   245  124  244 1    
   246  124  245 1    
   247  125  126 1    
   248  126  246 1    
   249  126  247 1    
@<TRIPOS>SUBSTRUCTURE
     1 UNK         1 GROUP             0       ****    0 ROOT    
