@<TRIPOS>MOLECULE
3R540
247   249    1
SMALL
USER_CHARGES


@<TRIPOS>ATOM
      1 CA         -1.5623  -12.8867  -51.8488 C.3       0 UNK        -0.1800 
      2 C          -0.2280  -12.1548  -51.8924 C.2       0 UNK         0.5000 
      3 O          -0.2026  -10.9249  -51.9245 O.2       0 UNK        -0.5000 
      4 N           0.8784  -12.9088  -51.8943 N.am      1 UNK        -0.5000 
      5 CA          2.2590  -12.4035  -51.9043 C.3       1 UNK         0.1400 
      6 C6          3.2776  -13.5224  -52.2518 C.3       23 UNK        -0.0398 
      7 S7          3.1363  -15.0115  -51.1943 S.3       23 UNK        -0.2404 
      8 C8          2.2702  -16.1639  -52.3053 C.3       23 UNK        -0.0205 
      9 C9          1.5384  -17.2355  -51.5139 C.ar      23 UNK        -0.0193 
     10 C10         0.2472  -16.9902  -51.0379 C.ar      23 UNK        -0.1150 
     11 C11        -0.4414  -17.9608  -50.2997 C.ar      23 UNK        -0.0193 
     12 C12         0.1677  -19.1977  -50.0811 C.ar      23 UNK        -0.1150 
     13 C13         1.4624  -19.4540  -50.5387 C.ar      23 UNK        -0.0193 
     14 C14         2.1453  -18.4675  -51.2550 C.ar      23 UNK        -0.1150 
     15 C15         2.1086  -20.8057  -50.2780 C.3       23 UNK        -0.0205 
     16 S16         3.1229  -20.8309  -48.7600 S.3       23 UNK        -0.2404 
     17 C17         1.8976  -20.6295  -47.4175 C.3       23 UNK        -0.0398 
     18 CA          1.3807  -21.9672  -46.8341 C.3       11 UNK         0.1400 
     19 N           0.7575  -21.7639  -45.5264 N.am      11 UNK        -0.5000 
     20 C           0.2756  -22.7222  -44.7222 C.2       10 UNK         0.5000 
     21 O           0.2857  -23.9228  -45.0047 O.2       10 UNK        -0.5000 
     22 CA         -0.2900  -22.2393  -43.3702 C.3       10 UNK         0.1400 
     23 CB         -0.5824  -23.3862  -42.3807 C.3       10 UNK        -0.1800 
     24 N           0.5649  -21.2210  -42.7529 N.am      10 UNK        -0.5000 
     25 C           1.8460  -21.3484  -42.3724 C.2       9 UNK         0.5000 
     26 O           2.4768  -22.4051  -42.4204 O.2       9 UNK        -0.5000 
     27 CA          2.5632  -20.0763  -41.8768 C.3       9 UNK         0.1400 
     28 CB          3.5751  -19.5989  -42.9309 C.3       9 UNK        -0.1800 
     29 N           1.6518  -18.9733  -41.5675 N.am      9 UNK        -0.5000 
     30 C           0.8541  -18.9118  -40.4934 C.2       8 UNK         0.5000 
     31 O           0.8445  -19.7581  -39.5989 O.2       8 UNK        -0.5000 
     32 CA         -0.1231  -17.7227  -40.4276 C.3       8 UNK         0.1400 
     33 CB          0.5636  -16.4912  -39.8188 C.3       8 UNK        -0.1800 
     34 N          -0.6987  -17.3752  -41.7314 N.am      8 UNK        -0.5000 
     35 C          -1.5046  -18.1782  -42.4438 C.2       7 UNK         0.5000 
     36 O          -1.8532  -19.2985  -42.0721 O.2       7 UNK        -0.5000 
     37 CA         -1.9699  -17.6680  -43.8192 C.3       7 UNK         0.1400 
     38 CB         -3.1149  -16.6556  -43.6677 C.3       7 UNK        -0.1800 
     39 N          -0.8807  -17.0749  -44.5926 N.am      7 UNK        -0.5000 
     40 C           0.1755  -17.7562  -45.0602 C.2       6 UNK         0.5000 
     41 O           0.3141  -18.9751  -44.9429 O.2       6 UNK        -0.5000 
     42 CA          1.2906  -16.9313  -45.7268 C.3       6 UNK         0.1400 
     43 CB          0.9338  -16.5964  -47.1807 C.3       6 UNK        -0.1800 
     44 N           1.5869  -15.6959  -45.0036 N.am      6 UNK        -0.5000 
     45 C           2.0554  -15.6334  -43.7503 C.2       5 UNK         0.5000 
     46 O           2.3082  -16.6208  -43.0626 O.2       5 UNK        -0.5000 
     47 CA          2.2282  -14.2304  -43.1487 C.3       5 UNK         0.1400 
     48 CB          3.5287  -13.5767  -43.6400 C.3       5 UNK        -0.1800 
     49 N           1.0924  -13.3638  -43.4572 N.am      5 UNK        -0.5000 
     50 C          -0.1319  -13.5074  -42.9323 C.2       4 UNK         0.5000 
     51 O          -0.4320  -14.3826  -42.1203 O.2       4 UNK        -0.5000 
     52 CA         -1.2099  -12.5269  -43.4279 C.3       4 UNK         0.1400 
     53 CB         -1.0960  -11.1783  -42.7014 C.3       4 UNK        -0.1800 
     54 N          -1.1543  -12.3085  -44.8743 N.am      4 UNK        -0.5000 
     55 C          -1.4162  -13.2578  -45.7819 C.2       3 UNK         0.5000 
     56 O          -1.7223  -14.4146  -45.4957 O.2       3 UNK        -0.5000 
     57 CA         -1.2826  -12.8610  -47.2613 C.3       3 UNK         0.1400 
     58 CB         -2.5342  -12.1068  -47.7352 C.3       3 UNK        -0.1800 
     59 N          -0.0854  -12.0914  -47.6124 N.am      3 UNK        -0.5000 
     60 C           1.1782  -12.4121  -47.2998 C.2       2 UNK         0.5000 
     61 O           1.4917  -13.2980  -46.5055 O.2       2 UNK        -0.5000 
     62 CA          2.2603  -11.6942  -48.1133 C.3       2 UNK         0.1400 
     63 CB          3.6858  -11.9542  -47.5843 C.3       2 UNK        -0.1800 
     64 N           2.1138  -12.1943  -49.4736 N.am      2 UNK        -0.5000 
     65 C           2.6320  -11.6778  -50.5913 C.2       1 UNK         0.5000 
     66 O           3.3473  -10.6754  -50.6222 O.2       1 UNK        -0.5000 
     67 C           0.4117  -22.6843  -47.7964 C.2       11 UNK         0.5000 
     68 O          -0.6427  -22.1349  -48.1191 O.2       11 UNK        -0.5000 
     69 N           0.7854  -23.9058  -48.2056 N.am      12 UNK        -0.5000 
     70 CA          0.0579  -24.8047  -49.1098 C.3       12 UNK         0.1400 
     71 CB         -0.0245  -24.1998  -50.5274 C.3       12 UNK        -0.1800 
     72 C          -1.3268  -25.2575  -48.5965 C.2       12 UNK         0.5000 
     73 O          -2.1249  -25.7514  -49.3962 O.2       12 UNK        -0.5000 
     74 N          -1.5966  -25.1153  -47.2891 N.am      13 UNK        -0.5000 
     75 CA         -2.8962  -25.3944  -46.6666 C.3       13 UNK         0.1400 
     76 CB         -2.8666  -24.9587  -45.1953 C.3       13 UNK        -0.1800 
     77 C          -3.3452  -26.8614  -46.7879 C.2       13 UNK         0.5000 
     78 O          -4.5283  -27.1210  -47.0066 O.2       13 UNK        -0.5000 
     79 N          -2.3863  -27.7879  -46.6707 N.am      14 UNK        -0.5000 
     80 CA         -2.6072  -29.2244  -46.8420 C.3       14 UNK         0.1400 
     81 CB         -1.5193  -29.9863  -46.0688 C.3       14 UNK        -0.1800 
     82 C          -2.6124  -29.6545  -48.3221 C.2       14 UNK         0.5000 
     83 O          -3.1501  -30.7166  -48.6378 O.2       14 UNK        -0.5000 
     84 N          -1.9950  -28.8465  -49.1947 N.am      15 UNK        -0.5000 
     85 CA         -1.8345  -29.1339  -50.6179 C.3       15 UNK         0.1400 
     86 CB         -0.5678  -28.4375  -51.1411 C.3       15 UNK        -0.1800 
     87 C          -3.0650  -28.7159  -51.4376 C.2       15 UNK         0.5000 
     88 O          -3.5220  -29.4968  -52.2739 O.2       15 UNK        -0.5000 
     89 N          -3.5736  -27.5002  -51.1952 N.am      16 UNK        -0.5000 
     90 CA         -4.6871  -26.9183  -51.9499 C.3       16 UNK         0.1400 
     91 CB         -4.2015  -26.4511  -53.3368 C.3       16 UNK        -0.1800 
     92 C          -5.3786  -25.7520  -51.2279 C.2       16 UNK         0.5000 
     93 O          -6.5582  -25.5138  -51.4896 O.2       16 UNK        -0.5000 
     94 N          -4.6428  -25.0144  -50.3828 N.am      17 UNK        -0.5000 
     95 CA         -5.0193  -23.7944  -49.6517 C.3       17 UNK         0.1400 
     96 CB         -6.1928  -24.0470  -48.6871 C.3       17 UNK        -0.1800 
     97 C          -5.2834  -22.5622  -50.5401 C.2       17 UNK         0.5000 
     98 O          -4.8342  -21.4674  -50.2027 O.2       17 UNK        -0.5000 
     99 N          -5.9646  -22.7459  -51.6753 N.am      18 UNK        -0.5000 
    100 CA        -6.2893  -21.7249  -52.6731 C.3       18 UNK         0.1400 
    101 CB        -7.5336  -22.1860  -53.4531 C.3       18 UNK        -0.1800 
    102 C         -5.0965  -21.3910  -53.5984 C.2       18 UNK         0.5000 
    103 O         -5.2587  -21.3177  -54.8179 O.2       18 UNK        -0.5000 
    104 N         -3.9114  -21.1944  -53.0059 N.am      19 UNK        -0.5000 
    105 CA        -2.6826  -20.7814  -53.6916 C.3       19 UNK         0.1400 
    106 CB        -1.4878  -21.0527  -52.7654 C.3       19 UNK        -0.1800 
    107 C         -2.7137  -19.3013  -54.1256 C.2       19 UNK         0.5000 
    108 O         -2.0442  -18.9292  -55.0897 O.2       19 UNK        -0.5000 
    109 N         -3.5140  -18.5025  -53.4150 N.am      20 UNK        -0.5000 
    110 CA        -3.8445  -17.1052  -53.6609 C.3       20 UNK         0.1400 
    111 CB        -2.6512  -16.1923  -53.3110 C.3       20 UNK        -0.1800 
    112 C         -5.1023  -16.8007  -52.8254 C.2       20 UNK         0.5000 
    113 O         -5.7813  -17.7375  -52.3916 O.2       20 UNK        -0.5000 
    114 N         -5.3790  -15.5157  -52.5614 N.am      21 UNK        -0.5000 
    115 CA        -6.4843  -15.0522  -51.7080 C.3       21 UNK         0.1400 
    116 CB        -6.5059  -13.5159  -51.7094 C.3       21 UNK        -0.1800 
    117 C         -6.4229  -15.5885  -50.2602 C.2       21 UNK         0.5000 
    118 O         -7.4638  -15.7931  -49.6353 O.2       21 UNK        -0.5000 
    119 N         -5.2002  -15.8340  -49.7792 N.am      22 UNK        -0.5000 
    120 CA        -4.8740  -16.5340  -48.5288 C.3       22 UNK         0.1400 
    121 C         -5.0297  -18.0843  -48.5794 C.2       22 UNK         0.5000 
    122 N         -5.3325  -18.6977  -49.7165 N.am      22 UNK        -0.7600 
    123 O         -4.8610  -18.7464  -47.5596 O.2       22 UNK        -0.5000 
    124 C124       -3.4682  -16.1221  -48.0071 C.3       23 UNK        -0.0398 
    125 S125       -2.1710  -15.9783  -49.2909 S.3       23 UNK        -0.2404 
    126 C126       -1.8339  -17.7189  -49.7205 C.3       23 UNK        -0.0205 
    127 H127       -2.2258  -12.4245  -51.1191 H         1 UNK         0.0600 
    128 H128       -2.0457  -12.8402  -52.8243 H         1 UNK         0.0600 
    129 H129       -1.4390  -13.9340  -51.5752 H         1 UNK         0.0600 
    130 H130        0.7925  -13.9132  -51.8579 H         1 UNK         0.3000 
    131 H131        2.3205  -11.6547  -52.6971 H         1 UNK         0.0600 
    132 H132        4.2994  -13.1449  -52.1811 H         1 UNK         0.0800 
    133 H133        3.1540  -13.8134  -53.2957 H         1 UNK         0.0800 
    134 H134        2.9914  -16.6173  -52.9870 H         1 UNK         0.0800 
    135 H135        1.5560  -15.6260  -52.9302 H         1 UNK         0.0800 
    136 H136       -0.2118  -16.0339  -51.2351 H         1 UNK         0.1150 
    137 H137       -0.3673  -19.9632  -49.5375 H         1 UNK         0.1150 
    138 H138        3.1468  -18.6599  -51.6134 H         1 UNK         0.1150 
    139 H139        1.3454  -21.5812  -50.2329 H         1 UNK         0.0800 
    140 H140        2.7461  -21.0698  -51.1229 H         1 UNK         0.0800 
    141 H141        1.0752  -19.9847  -47.7207 H         1 UNK         0.0800 
    142 H142        2.4116  -20.0753  -46.6309 H         1 UNK         0.0800 
    143 H143        2.2448  -22.6125  -46.6617 H         1 UNK         0.0600 
    144 H144        0.6543  -20.7958  -45.2299 H         1 UNK         0.3000 
    145 H145       -1.2376  -21.7471  -43.5937 H         1 UNK         0.0600 
    146 H146       -0.9678  -23.0014  -41.4365 H         1 UNK         0.0600 
    147 H147       -1.3326  -24.0670  -42.7820 H         1 UNK         0.0600 
    148 H148        0.3092  -23.9753  -42.1644 H         1 UNK         0.0600 
    149 H149        0.1475  -20.3026  -42.6746 H         1 UNK         0.3000 
    150 H150        3.1104  -20.3388  -40.9692 H         1 UNK         0.0600 
    151 H151        4.2954  -20.3825  -43.1695 H         1 UNK         0.0600 
    152 H152        4.1399  -18.7376  -42.5739 H         1 UNK         0.0600 
    153 H153        3.0800  -19.3132  -43.8600 H         1 UNK         0.0600 
    154 H154        1.6557  -18.1909  -42.2177 H         1 UNK         0.3000 
    155 H155       -0.9453  -18.0100  -39.7689 H         1 UNK         0.0600 
    156 H156        0.9947  -16.7246  -38.8445 H         1 UNK         0.0600 
    157 H157       -0.1462  -15.6769  -39.6724 H         1 UNK         0.0600 
    158 H158        1.3688  -16.1235  -40.4554 H         1 UNK         0.0600 
    159 H159       -0.4805  -16.4511  -42.0891 H         1 UNK         0.3000 
    160 H160       -2.3500  -18.5243  -44.3806 H         1 UNK         0.0600 
    161 H161       -2.7854  -15.7472  -43.1618 H         1 UNK         0.0600 
    162 H162       -3.9365  -17.0773  -43.0875 H         1 UNK         0.0600 
    163 H163       -3.5176  -16.3695  -44.6393 H         1 UNK         0.0600 
    164 H164       -0.9461  -16.0777  -44.7753 H         1 UNK         0.3000 
    165 H165        2.1966  -17.5404  -45.7301 H         1 UNK         0.0600 
    166 H166        0.7158  -17.5021  -47.7451 H         1 UNK         0.0600 
    167 H167        1.7562  -16.0892  -47.6858 H         1 UNK         0.0600 
    168 H168        0.0576  -15.9508  -47.2398 H         1 UNK         0.0600 
    169 H169        1.4352  -14.8239  -45.5073 H         1 UNK         0.3000 
    170 H170        2.2923  -14.3363  -42.0637 H         1 UNK         0.0600 
    171 H171        3.6768  -12.5991  -43.1813 H         1 UNK         0.0600 
    172 H172        4.3927  -14.1909  -43.3832 H         1 UNK         0.0600 
    173 H173        3.5327  -13.4439  -44.7221 H         1 UNK         0.0600 
    174 H174        1.2301  -12.6788  -44.1864 H         1 UNK         0.3000 
    175 H175       -2.1841  -12.9596  -43.1893 H         1 UNK         0.0600 
    176 H176       -1.1488  -11.3125  -41.6201 H         1 UNK         0.0600 
    177 H177       -0.1533  -10.6770  -42.9245 H         1 UNK         0.0600 
    178 H178       -1.9080  -10.5084  -42.9845 H         1 UNK         0.0600 
    179 H179       -0.8929  -11.3878  -45.1949 H         1 UNK         0.3000 
    180 H180       -1.2156  -13.7891  -47.8262 H         1 UNK         0.0600 
    181 H181       -3.4420  -12.6662  -47.5059 H         1 UNK         0.0600 
    182 H182       -2.6207  -11.1310  -47.2560 H         1 UNK         0.0600 
    183 H183       -2.5171  -11.9497  -48.8128 H         1 UNK         0.0600 
    184 H184       -0.2274  -11.3451  -48.2778 H         1 UNK         0.3000 
    185 H185        2.0567  -10.6219  -48.0918 H         1 UNK         0.0600 
    186 H186        3.7794  -11.6339  -46.5461 H         1 UNK         0.0600 
    187 H187        3.9446  -13.0129  -47.6284 H         1 UNK         0.0600 
    188 H188        4.4310  -11.4050  -48.1593 H         1 UNK         0.0600 
    189 H189        1.5373  -13.0200  -49.5615 H         1 UNK         0.3000 
    190 H190        1.6532  -24.2782  -47.8449 H         1 UNK         0.3000 
    191 H191        0.6568  -25.7138  -49.1773 H         1 UNK         0.0600 
    192 H192        0.9643  -23.9336  -50.9002 H         1 UNK         0.0600 
    193 H193       -0.6453  -23.3039  -50.5476 H         1 UNK         0.0600 
    194 H194       -0.4534  -24.9060  -51.2389 H         1 UNK         0.0600 
    195 H195       -0.8849  -24.7165  -46.6875 H         1 UNK         0.3000 
    196 H196       -3.6425  -24.7850  -47.1753 H         1 UNK         0.0600 
    197 H197       -3.8262  -25.1449  -44.7112 H         1 UNK         0.0600 
    198 H198       -2.6609  -23.8921  -45.1055 H         1 UNK         0.0600 
    199 H199       -2.1039  -25.4990  -44.6335 H         1 UNK         0.0600 
    200 H200       -1.4421  -27.4868  -46.4774 H         1 UNK         0.3000 
    201 H201       -3.5763  -29.4923  -46.4155 H         1 UNK         0.0600 
    202 H202       -1.6659  -31.0643  -46.1478 H         1 UNK         0.0600 
    203 H203       -0.5220  -29.7619  -46.4491 H         1 UNK         0.0600 
    204 H204       -1.5396  -29.7341  -45.0084 H         1 UNK         0.0600 
    205 H205       -1.6407  -27.9612  -48.8656 H         1 UNK         0.3000 
    206 H206       -1.6956  -30.2095  -50.7486 H         1 UNK         0.0600 
    207 H207        0.3170  -28.7676  -50.5967 H         1 UNK         0.0600 
    208 H208       -0.4053  -28.6679  -52.1948 H         1 UNK         0.0600 
    209 H209       -0.6318  -27.3536  -51.0512 H         1 UNK         0.0600 
    210 H210       -3.1445  -26.9276  -50.4750 H         1 UNK         0.3000 
    211 H211       -5.4489  -27.6885  -52.0890 H         1 UNK         0.0600 
    212 H212       -5.0102  -25.9840  -53.9007 H         1 UNK         0.0600 
    213 H213       -3.8352  -27.2846  -53.9359 H         1 UNK         0.0600 
    214 H214       -3.3960  -25.7206  -53.2517 H         1 UNK         0.0600 
    215 H215       -3.6736  -25.2820  -50.2373 H         1 UNK         0.3000 
    216 H216       -4.1469  -23.5414  -49.0483 H         1 UNK         0.0600 
    217 H217       -6.3644  -23.1779  -48.0510 H         1 UNK         0.0600 
    218 H218       -5.9927  -24.8953  -48.0329 H         1 UNK         0.0600 
    219 H219       -7.1231  -24.2480  -49.2187 H         1 UNK         0.0600 
    220 H220       -6.2950  -23.6885  -51.8623 H         1 UNK         0.3000 
    221 H221       -6.5502  -20.8010  -52.1524 H         1 UNK         0.0600 
    222 H222       -7.3396  -23.1026  -54.0116 H         1 UNK         0.0600 
    223 H223       -8.3715  -22.3742  -52.7817 H         1 UNK         0.0600 
    224 H224       -7.8566  -21.4256  -54.1653 H         1 UNK         0.0600 
    225 H225       -3.8756  -21.2652  -51.9951 H         1 UNK         0.3000 
    226 H226       -2.5637  -21.3874  -54.5921 H         1 UNK         0.0600 
    227 H227       -0.5536  -20.7085  -53.2114 H         1 UNK         0.0600 
    228 H228       -1.6031  -20.5439  -51.8085 H         1 UNK         0.0600 
    229 H229       -1.3806  -22.1189  -52.5676 H         1 UNK         0.0600 
    230 H230       -4.0831  -18.9220  -52.6909 H         1 UNK         0.3000 
    231 H231       -4.1021  -16.9851  -54.7146 H         1 UNK         0.0600 
    232 H232       -1.7428  -16.5001  -53.8285 H         1 UNK         0.0600 
    233 H233       -2.4417  -16.2047  -52.2430 H         1 UNK         0.0600 
    234 H234       -2.8438  -15.1597  -53.6015 H         1 UNK         0.0600 
    235 H235       -4.7829  -14.7994  -52.9493 H         1 UNK         0.3000 
    236 H236       -7.4166  -15.4101  -52.1495 H         1 UNK         0.0600 
    237 H237       -6.6400  -13.1235  -52.7176 H         1 UNK         0.0600 
    238 H238       -7.3289  -13.1361  -51.1024 H         1 UNK         0.0600 
    239 H239       -5.5815  -13.1002  -51.3062 H         1 UNK         0.0600 
    240 H240       -4.4058  -15.6232  -50.3647 H         1 UNK         0.3000 
    241 H241       -5.5978  -16.2084  -47.7794 H         1 UNK         0.0600 
    242 H242       -5.3406  -19.7131  -49.7355 H         1 UNK         0.3800 
    243 H243       -5.5336  -18.1842  -50.5673 H         1 UNK         0.3800 
    244 H244       -3.1148  -16.7763  -47.2077 H         1 UNK         0.0800 
    245 H245       -3.5520  -15.1397  -47.5428 H         1 UNK         0.0800 
    246 H246       -2.5770  -18.0626  -50.4405 H         1 UNK         0.0800 
    247 H247       -1.9605  -18.3266  -48.8228 H         1 UNK         0.0800 
@<TRIPOS>BOND
     1    1    2 1    
     2    1  127 1    
     3    1  128 1    
     4    1  129 1    
     5    2    3 2    
     6    2    4 am   BACKBONE|DICT|INTERRES
     7    4    5 1    
     8    4  130 1    
     9    5    6 1    
    10    5   65 1    
    11    5  131 1    
    12    6    7 1    
    13    6  132 1    
    14    6  133 1    
    15    7    8 1    
    16    8    9 1    
    17    8  134 1    
    18    8  135 1    
    19    9   10 ar   
    20    9   14 ar   
    21   10   11 ar   
    22   10  136 1    
    23   11   12 ar   
    24   11  126 1    
    25   12   13 ar   
    26   12  137 1    
    27   13   14 ar   
    28   13   15 1    
    29   14  138 1    
    30   15   16 1    
    31   15  139 1    
    32   15  140 1    
    33   16   17 1    
    34   17   18 1    
    35   17  141 1    
    36   17  142 1    
    37   18   19 1    
    38   18   67 1    
    39   18  143 1    
    40   19   20 am   BACKBONE|DICT|INTERRES
    41   19  144 1    
    42   20   21 2    
    43   20   22 1    
    44   22   23 1    
    45   22   24 1    
    46   22  145 1    
    47   23  146 1    
    48   23  147 1    
    49   23  148 1    
    50   24   25 am   BACKBONE|DICT|INTERRES
    51   24  149 1    
    52   25   26 2    
    53   25   27 1    
    54   27   28 1    
    55   27   29 1    
    56   27  150 1    
    57   28  151 1    
    58   28  152 1    
    59   28  153 1    
    60   29   30 am   BACKBONE|DICT|INTERRES
    61   29  154 1    
    62   30   31 2    
    63   30   32 1    
    64   32   33 1    
    65   32   34 1    
    66   32  155 1    
    67   33  156 1    
    68   33  157 1    
    69   33  158 1    
    70   34   35 am   BACKBONE|DICT|INTERRES
    71   34  159 1    
    72   35   36 2    
    73   35   37 1    
    74   37   38 1    
    75   37   39 1    
    76   37  160 1    
    77   38  161 1    
    78   38  162 1    
    79   38  163 1    
    80   39   40 am   BACKBONE|DICT|INTERRES
    81   39  164 1    
    82   40   41 2    
    83   40   42 1    
    84   42   43 1    
    85   42   44 1    
    86   42  165 1    
    87   43  166 1    
    88   43  167 1    
    89   43  168 1    
    90   44   45 am   BACKBONE|DICT|INTERRES
    91   44  169 1    
    92   45   46 2    
    93   45   47 1    
    94   47   48 1    
    95   47   49 1    
    96   47  170 1    
    97   48  171 1    
    98   48  172 1    
    99   48  173 1    
   100   49   50 am   BACKBONE|DICT|INTERRES
   101   49  174 1    
   102   50   51 2    
   103   50   52 1    
   104   52   53 1    
   105   52   54 1    
   106   52  175 1    
   107   53  176 1    
   108   53  177 1    
   109   53  178 1    
   110   54   55 am   BACKBONE|DICT|INTERRES
   111   54  179 1    
   112   55   56 2    
   113   55   57 1    
   114   57   58 1    
   115   57   59 1    
   116   57  180 1    
   117   58  181 1    
   118   58  182 1    
   119   58  183 1    
   120   59   60 am   BACKBONE|DICT|INTERRES
   121   59  184 1    
   122   60   61 2    
   123   60   62 1    
   124   62   63 1    
   125   62   64 1    
   126   62  185 1    
   127   63  186 1    
   128   63  187 1    
   129   63  188 1    
   130   64   65 am   BACKBONE|DICT|INTERRES
   131   64  189 1    
   132   65   66 2    
   133   67   68 2    
   134   67   69 am   BACKBONE|DICT|INTERRES
   135   69   70 1    
   136   69  190 1    
   137   70   71 1    
   138   70   72 1    
   139   70  191 1    
   140   71  192 1    
   141   71  193 1    
   142   71  194 1    
   143   72   73 2    
   144   72   74 am   BACKBONE|DICT|INTERRES
   145   74   75 1    
   146   74  195 1    
   147   75   76 1    
   148   75   77 1    
   149   75  196 1    
   150   76  197 1    
   151   76  198 1    
   152   76  199 1    
   153   77   78 2    
   154   77   79 am   BACKBONE|DICT|INTERRES
   155   79   80 1    
   156   79  200 1    
   157   80   81 1    
   158   80   82 1    
   159   80  201 1    
   160   81  202 1    
   161   81  203 1    
   162   81  204 1    
   163   82   83 2    
   164   82   84 am   BACKBONE|DICT|INTERRES
   165   84   85 1    
   166   84  205 1    
   167   85   86 1    
   168   85   87 1    
   169   85  206 1    
   170   86  207 1    
   171   86  208 1    
   172   86  209 1    
   173   87   88 2    
   174   87   89 am   BACKBONE|DICT|INTERRES
   175   89   90 1    
   176   89  210 1    
   177   90   91 1    
   178   90   92 1    
   179   90  211 1    
   180   91  212 1    
   181   91  213 1    
   182   91  214 1    
   183   92   93 2    
   184   92   94 am   BACKBONE|DICT|INTERRES
   185   94   95 1    
   186   94  215 1    
   187   95   96 1    
   188   95   97 1    
   189   95  216 1    
   190   96  217 1    
   191   96  218 1    
   192   96  219 1    
   193   97   98 2    
   194   97   99 am   BACKBONE|DICT|INTERRES
   195   99  100 1    
   196   99  220 1    
   197  100  101 1    
   198  100  102 1    
   199  100  221 1    
   200  101  222 1    
   201  101  223 1    
   202  101  224 1    
   203  102  103 2    
   204  102  104 am   BACKBONE|DICT|INTERRES
   205  104  105 1    
   206  104  225 1    
   207  105  106 1    
   208  105  107 1    
   209  105  226 1    
   210  106  227 1    
   211  106  228 1    
   212  106  229 1    
   213  107  108 2    
   214  107  109 am   BACKBONE|DICT|INTERRES
   215  109  110 1    
   216  109  230 1    
   217  110  111 1    
   218  110  112 1    
   219  110  231 1    
   220  111  232 1    
   221  111  233 1    
   222  111  234 1    
   223  112  113 2    
   224  112  114 am   BACKBONE|DICT|INTERRES
   225  114  115 1    
   226  114  235 1    
   227  115  116 1    
   228  115  117 1    
   229  115  236 1    
   230  116  237 1    
   231  116  238 1    
   232  116  239 1    
   233  117  118 2    
   234  117  119 am   BACKBONE|DICT|INTERRES
   235  119  120 1    
   236  119  240 1    
   237  120  121 1    
   238  120  124 1    
   239  120  241 1    
   240  121  122 am   BACKBONE|DICT|INTERRES
   241  121  123 2    
   242  122  242 1    
   243  122  243 1    
   244  124  125 1    
   245  124  244 1    
   246  124  245 1    
   247  125  126 1    
   248  126  246 1    
   249  126  247 1    
@<TRIPOS>SUBSTRUCTURE
     1 UNK         1 GROUP             0       ****    0 ROOT    
