@<TRIPOS>MOLECULE
3R540
247   249    1
SMALL
USER_CHARGES


@<TRIPOS>ATOM
      1 CA          7.0659  -11.0185  -47.7433 C.3       0 UNK        -0.1800 
      2 C           5.9631  -12.0670  -47.7739 C.2       0 UNK         0.5000 
      3 O           4.8182  -11.7284  -48.0737 O.2       0 UNK        -0.5000 
      4 N           6.3138  -13.3232  -47.4558 N.am      1 UNK        -0.5000 
      5 CA          5.4618  -14.5212  -47.3875 C.3       1 UNK         0.1400 
      6 C6          5.3686  -15.3173  -48.7229 C.3       23 UNK        -0.0398 
      7 S7          4.7334  -14.4083  -50.1776 S.3       23 UNK        -0.2404 
      8 C8          5.0059  -15.6243  -51.5046 C.3       23 UNK        -0.0205 
      9 C9          3.8796  -16.6450  -51.5845 C.ar      23 UNK        -0.0193 
     10 C10         2.8106  -16.4444  -52.4624 C.ar      23 UNK        -0.1150 
     11 C11         1.7873  -17.3919  -52.5675 C.ar      23 UNK        -0.0193 
     12 C12         1.8262  -18.5385  -51.7673 C.ar      23 UNK        -0.1150 
     13 C13         2.8832  -18.7426  -50.8749 C.ar      23 UNK        -0.0193 
     14 C14         3.9137  -17.8011  -50.8010 C.ar      23 UNK        -0.1150 
     15 C15         2.9312  -19.9803  -49.9931 C.3       23 UNK        -0.0205 
     16 S16         2.4210  -19.6003  -48.2876 S.3       23 UNK        -0.2404 
     17 C17         0.6078  -19.7918  -48.3841 C.3       23 UNK        -0.0398 
     18 CA          0.1572  -21.1465  -47.7885 C.3       11 UNK         0.1400 
     19 N           0.3710  -21.2329  -46.3417 N.am      11 UNK        -0.5000 
     20 C           0.2948  -22.3638  -45.6281 C.2       10 UNK         0.5000 
     21 O           0.0640  -23.4671  -46.1232 O.2       10 UNK        -0.5000 
     22 CA          0.4534  -22.2363  -44.1017 C.3       10 UNK         0.1400 
     23 CB          1.9319  -22.1029  -43.7077 C.3       10 UNK        -0.1800 
     24 N          -0.3121  -21.1170  -43.5497 N.am      10 UNK        -0.5000 
     25 C          -1.6505  -21.0381  -43.5705 C.2       9 UNK         0.5000 
     26 O          -2.3787  -21.9228  -44.0211 O.2       9 UNK        -0.5000 
     27 CA         -2.2828  -19.7379  -43.0404 C.3       9 UNK         0.1400 
     28 CB         -2.3529  -19.7478  -41.5063 C.3       9 UNK        -0.1800 
     29 N          -1.5776  -18.5384  -43.4922 N.am      9 UNK        -0.5000 
     30 C          -1.4616  -18.1607  -44.7736 C.2       8 UNK         0.5000 
     31 O          -1.9741  -18.7619  -45.7156 O.2       8 UNK        -0.5000 
     32 CA         -0.5742  -16.9374  -45.0583 C.3       8 UNK         0.1400 
     33 CB         -1.3344  -15.6410  -44.7463 C.3       8 UNK        -0.1800 
     34 N           0.6862  -16.9748  -44.3140 N.am      8 UNK        -0.5000 
     35 C           1.5954  -17.9564  -44.4137 C.2       7 UNK         0.5000 
     36 O           1.4842  -18.9113  -45.1776 O.2       7 UNK        -0.5000 
     37 CA          2.7969  -17.9041  -43.4582 C.3       7 UNK         0.1400 
     38 CB          3.8820  -16.9621  -43.9879 C.3       7 UNK        -0.1800 
     39 N           2.3994  -17.4915  -42.1153 N.am      7 UNK        -0.5000 
     40 C           1.6803  -18.2514  -41.2785 C.2       6 UNK         0.5000 
     41 O           1.3231  -19.4024  -41.5321 O.2       6 UNK        -0.5000 
     42 CA          1.2543  -17.5891  -39.9561 C.3       6 UNK         0.1400 
     43 CB          2.3873  -17.6600  -38.9215 C.3       6 UNK        -0.1800 
     44 N           0.8470  -16.1936  -40.1390 N.am      6 UNK        -0.5000 
     45 C          -0.2462  -15.8144  -40.8154 C.2       5 UNK         0.5000 
     46 O          -1.0337  -16.6051  -41.3349 O.2       5 UNK        -0.5000 
     47 CA         -0.4840  -14.3001  -40.9630 C.3       5 UNK         0.1400 
     48 CB         -1.2555  -13.7567  -39.7512 C.3       5 UNK        -0.1800 
     49 N           0.7421  -13.5169  -41.1487 N.am      5 UNK        -0.5000 
     50 C           1.5637  -13.6273  -42.2006 C.2       4 UNK         0.5000 
     51 O           1.4319  -14.4772  -43.0839 O.2       4 UNK        -0.5000 
     52 CA          2.7408  -12.6415  -42.2668 C.3       4 UNK         0.1400 
     53 CB          4.0632  -13.3520  -41.9410 C.3       4 UNK        -0.1800 
     54 N           2.8161  -12.0735  -43.6101 N.am      4 UNK        -0.5000 
     55 C           2.1852  -10.9551  -43.9995 C.2       3 UNK         0.5000 
     56 O           1.5927  -10.2028  -43.2247 O.2       3 UNK        -0.5000 
     57 CA          2.1908  -10.6274  -45.5098 C.3       3 UNK         0.1400 
     58 CB          3.3779   -9.7165  -45.8562 C.3       3 UNK        -0.1800 
     59 N           2.2408  -11.8282  -46.3457 N.am      3 UNK        -0.5000 
     60 C           1.2802  -12.7634  -46.3757 C.2       2 UNK         0.5000 
     61 O           0.1534  -12.5708  -45.9186 O.2       2 UNK        -0.5000 
     62 CA          1.6225  -14.1500  -46.9698 C.3       2 UNK         0.1400 
     63 CB          0.6763  -14.5175  -48.1244 C.3       2 UNK        -0.1800 
     64 N           3.0035  -14.3273  -47.4256 N.am      2 UNK        -0.5000 
     65 C           4.1130  -14.2673  -46.6780 C.2       1 UNK         0.5000 
     66 O           4.1136  -13.9849  -45.4793 O.2       1 UNK        -0.5000 
     67 C          -1.2958  -21.4839  -48.1756 C.2       11 UNK         0.5000 
     68 O          -1.4945  -22.1865  -49.1641 O.2       11 UNK        -0.5000 
     69 N          -2.2807  -21.0389  -47.3805 N.am      12 UNK        -0.5000 
     70 CA         -3.6935  -21.3896  -47.5444 C.3       12 UNK         0.1400 
     71 CB         -4.5639  -20.5552  -46.5944 C.3       12 UNK        -0.1800 
     72 C          -3.9576  -22.8924  -47.3455 C.2       12 UNK         0.5000 
     73 O          -4.7087  -23.4793  -48.1252 O.2       12 UNK        -0.5000 
     74 N          -3.3127  -23.4974  -46.3381 N.am      13 UNK        -0.5000 
     75 CA         -3.3545  -24.9368  -46.0779 C.3       13 UNK         0.1400 
     76 CB         -2.6891  -25.2459  -44.7286 C.3       13 UNK        -0.1800 
     77 C          -2.7172  -25.7550  -47.2160 C.2       13 UNK         0.5000 
     78 O          -3.3240  -26.7233  -47.6755 O.2       13 UNK        -0.5000 
     79 N          -1.5418  -25.3180  -47.6932 N.am      14 UNK        -0.5000 
     80 CA         -0.8383  -25.8920  -48.8464 C.3       14 UNK         0.1400 
     81 CB          0.5399  -25.2290  -48.9867 C.3       14 UNK        -0.1800 
     82 C          -1.6355  -25.7743  -50.1615 C.2       14 UNK         0.5000 
     83 O          -1.5768  -26.6772  -50.9959 O.2       14 UNK        -0.5000 
     84 N          -2.4096  -24.6900  -50.2913 N.am      15 UNK        -0.5000 
     85 CA         -3.3647  -24.4243  -51.3665 C.3       15 UNK         0.1400 
     86 CB         -3.6138  -22.9085  -51.4325 C.3       15 UNK        -0.1800 
     87 C          -4.6947  -25.1991  -51.2349 C.2       15 UNK         0.5000 
     88 O          -5.6276  -24.8973  -51.9806 O.2       15 UNK        -0.5000 
     89 N          -4.7753  -26.1606  -50.3022 N.am      16 UNK        -0.5000 
     90 CA         -5.9160  -27.0362  -50.0186 C.3       16 UNK         0.1400 
     91 CB         -6.2240  -27.9514  -51.2226 C.3       16 UNK        -0.1800 
     92 C          -7.1392  -26.2453  -49.5191 C.2       16 UNK         0.5000 
     93 O          -8.2263  -26.3504  -50.0883 O.2       16 UNK        -0.5000 
     94 N          -6.9105  -25.4460  -48.4675 N.am      17 UNK        -0.5000 
     95 CA         -7.8485  -24.5070  -47.8428 C.3       17 UNK         0.1400 
     96 CB         -9.0705  -25.2361  -47.2449 C.3       17 UNK        -0.1800 
     97 C          -8.2192  -23.3572  -48.8003 C.2       17 UNK         0.5000 
     98 O          -9.3937  -23.0124  -48.9417 O.2       17 UNK        -0.5000 
     99 N          -7.1826  -22.7963  -49.4405 N.am      18 UNK        -0.5000 
    100 CA        -7.2187  -21.6901  -50.4014 C.3       18 UNK         0.1400 
    101 CB        -7.6272  -20.3781  -49.6997 C.3       18 UNK        -0.1800 
    102 C         -8.0531  -21.9891  -51.6668 C.2       18 UNK         0.5000 
    103 O         -8.6677  -21.0807  -52.2280 O.2       18 UNK        -0.5000 
    104 N         -8.0443  -23.2516  -52.1141 N.am      19 UNK        -0.5000 
    105 CA        -8.6411  -23.6780  -53.3798 C.3       19 UNK         0.1400 
    106 CB        -8.9021  -25.1910  -53.3412 C.3       19 UNK        -0.1800 
    107 C         -7.7347  -23.3057  -54.5662 C.2       19 UNK         0.5000 
    108 O         -8.2231  -22.7998  -55.5767 O.2       19 UNK        -0.5000 
    109 N         -6.4247  -23.5226  -54.3968 N.am      20 UNK        -0.5000 
    110 CA        -5.3658  -23.1653  -55.3403 C.3       20 UNK         0.1400 
    111 CB        -4.4389  -24.3817  -55.5177 C.3       20 UNK        -0.1800 
    112 C         -4.6187  -21.9142  -54.8372 C.2       20 UNK         0.5000 
    113 O         -3.3910  -21.9228  -54.7313 O.2       20 UNK        -0.5000 
    114 N         -5.3869  -20.8781  -54.4737 N.am      21 UNK        -0.5000 
    115 CA        -4.9086  -19.6132  -53.9111 C.3       21 UNK         0.1400 
    116 CB        -6.1244  -18.8115  -53.4177 C.3       21 UNK        -0.1800 
    117 C         -4.0673  -18.7701  -54.8918 C.2       21 UNK         0.5000 
    118 O         -4.0432  -19.0417  -56.0950 O.2       21 UNK        -0.5000 
    119 N         -3.4145  -17.7365  -54.3450 N.am      22 UNK        -0.5000 
    120 CA        -2.5315  -16.7970  -55.0593 C.3       22 UNK         0.1400 
    121 C         -3.2101  -15.9426  -56.1731 C.2       22 UNK         0.5000 
    122 N         -4.5305  -15.8091  -56.2021 N.am      22 UNK        -0.7600 
    123 O         -2.5214  -15.3881  -57.0253 O.2       22 UNK        -0.5000 
    124 C124       -1.7743  -15.8602  -54.0802 C.3       23 UNK        -0.0398 
    125 S125       -0.8928  -16.7187  -52.7301 S.3       23 UNK        -0.2404 
    126 C126        0.6558  -17.1832  -53.5627 C.3       23 UNK        -0.0205 
    127 H127        7.1800  -10.5671  -48.7289 H         1 UNK         0.0600 
    128 H128        8.0258  -11.4449  -47.4511 H         1 UNK         0.0600 
    129 H129        6.8132  -10.2306  -47.0337 H         1 UNK         0.0600 
    130 H130        7.2773  -13.4881  -47.2011 H         1 UNK         0.3000 
    131 H131        5.9906  -15.1811  -46.6976 H         1 UNK         0.0600 
    132 H132        4.7635  -16.2128  -48.5754 H         1 UNK         0.0800 
    133 H133        6.3650  -15.6813  -48.9766 H         1 UNK         0.0800 
    134 H134        5.9642  -16.1264  -51.3638 H         1 UNK         0.0800 
    135 H135        5.0854  -15.0897  -52.4524 H         1 UNK         0.0800 
    136 H136        2.7832  -15.5539  -53.0747 H         1 UNK         0.1150 
    137 H137        1.0324  -19.2685  -51.8414 H         1 UNK         0.1150 
    138 H138        4.7402  -17.9692  -50.1254 H         1 UNK         0.1150 
    139 H139        2.3118  -20.7799  -50.4026 H         1 UNK         0.0800 
    140 H140        3.9509  -20.3678  -49.9743 H         1 UNK         0.0800 
    141 H141        0.2958  -19.6955  -49.4254 H         1 UNK         0.0800 
    142 H142        0.1401  -18.9639  -47.8488 H         1 UNK         0.0800 
    143 H143        0.7768  -21.9216  -48.2447 H         1 UNK         0.0600 
    144 H144        0.6288  -20.3676  -45.8703 H         1 UNK         0.3000 
    145 H145        0.0683  -23.1540  -43.6523 H         1 UNK         0.0600 
    146 H146        2.0492  -22.0633  -42.6246 H         1 UNK         0.0600 
    147 H147        2.5084  -22.9560  -44.0675 H         1 UNK         0.0600 
    148 H148        2.3838  -21.2036  -44.1255 H         1 UNK         0.0600 
    149 H149        0.2181  -20.3569  -43.1397 H         1 UNK         0.3000 
    150 H150       -3.3033  -19.6859  -43.4250 H         1 UNK         0.0600 
    151 H151       -2.8914  -20.6248  -41.1453 H         1 UNK         0.0600 
    152 H152       -2.8749  -18.8674  -41.1309 H         1 UNK         0.0600 
    153 H153       -1.3598  -19.7628  -41.0566 H         1 UNK         0.0600 
    154 H154       -1.1624  -17.9549  -42.7718 H         1 UNK         0.3000 
    155 H155       -0.3247  -16.9402  -46.1213 H         1 UNK         0.0600 
    156 H156       -1.7048  -15.6227  -43.7222 H         1 UNK         0.0600 
    157 H157       -2.1950  -15.5280  -45.4064 H         1 UNK         0.0600 
    158 H158       -0.7018  -14.7670  -44.8826 H         1 UNK         0.0600 
    159 H159        0.8778  -16.1894  -43.6974 H         1 UNK         0.3000 
    160 H160        3.2218  -18.9084  -43.3991 H         1 UNK         0.0600 
    161 H161        3.5219  -15.9362  -44.0127 H         1 UNK         0.0600 
    162 H162        4.1807  -17.2338  -45.0012 H         1 UNK         0.0600 
    163 H163        4.7740  -16.9907  -43.3623 H         1 UNK         0.0600 
    164 H164        2.6062  -16.5400  -41.8512 H         1 UNK         0.3000 
    165 H165        0.3996  -18.1458  -39.5657 H         1 UNK         0.0600 
    166 H166        2.0671  -17.2611  -37.9588 H         1 UNK         0.0600 
    167 H167        2.7002  -18.6919  -38.7567 H         1 UNK         0.0600 
    168 H168        3.2650  -17.0980  -39.2431 H         1 UNK         0.0600 
    169 H169        1.4417  -15.4821  -39.7405 H         1 UNK         0.3000 
    170 H170       -1.1038  -14.1529  -41.8497 H         1 UNK         0.0600 
    171 H171       -2.1851  -14.3076  -39.6011 H         1 UNK         0.0600 
    172 H172       -0.6735  -13.8384  -38.8324 H         1 UNK         0.0600 
    173 H173       -1.5204  -12.7083  -39.8897 H         1 UNK         0.0600 
    174 H174        0.9240  -12.8015  -40.4594 H         1 UNK         0.3000 
    175 H175        2.5914  -11.8470  -41.5327 H         1 UNK         0.0600 
    176 H176        4.2843  -14.1453  -42.6549 H         1 UNK         0.0600 
    177 H177        4.8979  -12.6511  -41.9566 H         1 UNK         0.0600 
    178 H178        4.0331  -13.8008  -40.9475 H         1 UNK         0.0600 
    179 H179        3.2340  -12.6733  -44.3168 H         1 UNK         0.3000 
    180 H180        1.2677  -10.0916  -45.7400 H         1 UNK         0.0600 
    181 H181        4.3311  -10.2022  -45.6435 H         1 UNK         0.0600 
    182 H182        3.3432   -8.7925  -45.2778 H         1 UNK         0.0600 
    183 H183        3.3701   -9.4413  -46.9110 H         1 UNK         0.0600 
    184 H184        3.1289  -12.0317  -46.7911 H         1 UNK         0.3000 
    185 H185        1.4645  -14.8692  -46.1645 H         1 UNK         0.0600 
    186 H186        0.8535  -15.5362  -48.4712 H         1 UNK         0.0600 
    187 H187       -0.3673  -14.4616  -47.8123 H         1 UNK         0.0600 
    188 H188        0.8033  -13.8460  -48.9743 H         1 UNK         0.0600 
    189 H189        3.1235  -14.4818  -48.4182 H         1 UNK         0.3000 
    190 H190       -2.0557  -20.4054  -46.6171 H         1 UNK         0.3000 
    191 H191       -3.9819  -21.1345  -48.5655 H         1 UNK         0.0600 
    192 H192       -4.2995  -20.7243  -45.5507 H         1 UNK         0.0600 
    193 H193       -5.6193  -20.8047  -46.7106 H         1 UNK         0.0600 
    194 H194       -4.4579  -19.4896  -46.7979 H         1 UNK         0.0600 
    195 H195       -2.7550  -22.9341  -45.7033 H         1 UNK         0.3000 
    196 H196       -4.4040  -25.2302  -46.0075 H         1 UNK         0.0600 
    197 H197       -2.7370  -26.3124  -44.5053 H         1 UNK         0.0600 
    198 H198       -3.1889  -24.7201  -43.9149 H         1 UNK         0.0600 
    199 H199       -1.6390  -24.9551  -44.7166 H         1 UNK         0.0600 
    200 H200       -1.0879  -24.5360  -47.2276 H         1 UNK         0.3000 
    201 H201       -0.6870  -26.9545  -48.6458 H         1 UNK         0.0600 
    202 H202        1.1313  -25.3509  -48.0790 H         1 UNK         0.0600 
    203 H203        0.4531  -24.1616  -49.1889 H         1 UNK         0.0600 
    204 H204        1.1053  -25.6734  -49.8066 H         1 UNK         0.0600 
    205 H205       -2.3271  -23.9622  -49.5889 H         1 UNK         0.3000 
    206 H206       -2.9161  -24.7329  -52.3123 H         1 UNK         0.0600 
    207 H207       -2.7056  -22.3733  -51.7102 H         1 UNK         0.0600 
    208 H208       -4.3744  -22.6546  -52.1672 H         1 UNK         0.0600 
    209 H209       -3.9522  -22.5163  -50.4762 H         1 UNK         0.0600 
    210 H210       -3.9754  -26.2960  -49.6961 H         1 UNK         0.3000 
    211 H211       -5.6098  -27.6797  -49.1925 H         1 UNK         0.0600 
    212 H212       -6.5644  -27.3876  -52.0908 H         1 UNK         0.0600 
    213 H213       -7.0060  -28.6698  -50.9745 H         1 UNK         0.0600 
    214 H214       -5.3427  -28.5204  -51.5186 H         1 UNK         0.0600 
    215 H215       -5.9552  -25.3697  -48.1416 H         1 UNK         0.3000 
    216 H216       -7.3092  -24.0471  -47.0134 H         1 UNK         0.0600 
    217 H217       -9.6849  -24.5484  -46.6628 H         1 UNK         0.0600 
    218 H218       -8.7617  -26.0400  -46.5769 H         1 UNK         0.0600 
    219 H219       -9.7093  -25.6667  -48.0163 H         1 UNK         0.0600 
    220 H220       -6.2587  -23.1517  -49.2090 H         1 UNK         0.3000 
    221 H221       -6.1945  -21.5604  -50.7508 H         1 UNK         0.0600 
    222 H222       -8.6636  -20.4057  -49.3624 H         1 UNK         0.0600 
    223 H223       -6.9970  -20.1831  -48.8322 H         1 UNK         0.0600 
    224 H224       -7.5254  -19.5234  -50.3689 H         1 UNK         0.0600 
    225 H225       -7.4803  -23.9402  -51.6295 H         1 UNK         0.3000 
    226 H226       -9.6005  -23.1727  -53.5103 H         1 UNK         0.0600 
    227 H227       -9.5707  -25.4536  -52.5211 H         1 UNK         0.0600 
    228 H228       -9.3699  -25.5304  -54.2660 H         1 UNK         0.0600 
    229 H229       -7.9796  -25.7573  -53.2118 H         1 UNK         0.0600 
    230 H230       -6.1212  -23.9468  -53.5230 H         1 UNK         0.3000 
    231 H231       -5.7875  -22.9190  -56.3167 H         1 UNK         0.0600 
    232 H232       -4.9916  -25.2451  -55.8884 H         1 UNK         0.0600 
    233 H233       -3.9657  -24.6677  -54.5779 H         1 UNK         0.0600 
    234 H234       -3.6467  -24.1707  -56.2370 H         1 UNK         0.0600 
    235 H235       -6.3836  -20.9560  -54.6147 H         1 UNK         0.3000 
    236 H236       -4.2770  -19.8510  -53.0524 H         1 UNK         0.0600 
    237 H237       -5.8259  -17.8670  -52.9615 H         1 UNK         0.0600 
    238 H238       -6.8113  -18.5804  -54.2329 H         1 UNK         0.0600 
    239 H239       -6.6776  -19.3650  -52.6614 H         1 UNK         0.0600 
    240 H240       -3.4898  -17.5824  -53.3502 H         1 UNK         0.3000 
    241 H241       -1.7847  -17.4082  -55.5693 H         1 UNK         0.0600 
    242 H242       -4.9576  -15.2563  -56.9289 H         1 UNK         0.3800 
    243 H243       -5.1081  -16.2642  -55.5140 H         1 UNK         0.3800 
    244 H244       -1.0614  -15.2339  -54.6196 H         1 UNK         0.0800 
    245 H245       -2.4779  -15.1681  -53.6143 H         1 UNK         0.0800 
    246 H246        0.9346  -16.4150  -54.2855 H         1 UNK         0.0800 
    247 H247        0.4951  -18.0979  -54.1351 H         1 UNK         0.0800 
@<TRIPOS>BOND
     1    1    2 1    
     2    1  127 1    
     3    1  128 1    
     4    1  129 1    
     5    2    3 2    
     6    2    4 am   BACKBONE|DICT|INTERRES
     7    4    5 1    
     8    4  130 1    
     9    5    6 1    
    10    5   65 1    
    11    5  131 1    
    12    6    7 1    
    13    6  132 1    
    14    6  133 1    
    15    7    8 1    
    16    8    9 1    
    17    8  134 1    
    18    8  135 1    
    19    9   10 ar   
    20    9   14 ar   
    21   10   11 ar   
    22   10  136 1    
    23   11   12 ar   
    24   11  126 1    
    25   12   13 ar   
    26   12  137 1    
    27   13   14 ar   
    28   13   15 1    
    29   14  138 1    
    30   15   16 1    
    31   15  139 1    
    32   15  140 1    
    33   16   17 1    
    34   17   18 1    
    35   17  141 1    
    36   17  142 1    
    37   18   19 1    
    38   18   67 1    
    39   18  143 1    
    40   19   20 am   BACKBONE|DICT|INTERRES
    41   19  144 1    
    42   20   21 2    
    43   20   22 1    
    44   22   23 1    
    45   22   24 1    
    46   22  145 1    
    47   23  146 1    
    48   23  147 1    
    49   23  148 1    
    50   24   25 am   BACKBONE|DICT|INTERRES
    51   24  149 1    
    52   25   26 2    
    53   25   27 1    
    54   27   28 1    
    55   27   29 1    
    56   27  150 1    
    57   28  151 1    
    58   28  152 1    
    59   28  153 1    
    60   29   30 am   BACKBONE|DICT|INTERRES
    61   29  154 1    
    62   30   31 2    
    63   30   32 1    
    64   32   33 1    
    65   32   34 1    
    66   32  155 1    
    67   33  156 1    
    68   33  157 1    
    69   33  158 1    
    70   34   35 am   BACKBONE|DICT|INTERRES
    71   34  159 1    
    72   35   36 2    
    73   35   37 1    
    74   37   38 1    
    75   37   39 1    
    76   37  160 1    
    77   38  161 1    
    78   38  162 1    
    79   38  163 1    
    80   39   40 am   BACKBONE|DICT|INTERRES
    81   39  164 1    
    82   40   41 2    
    83   40   42 1    
    84   42   43 1    
    85   42   44 1    
    86   42  165 1    
    87   43  166 1    
    88   43  167 1    
    89   43  168 1    
    90   44   45 am   BACKBONE|DICT|INTERRES
    91   44  169 1    
    92   45   46 2    
    93   45   47 1    
    94   47   48 1    
    95   47   49 1    
    96   47  170 1    
    97   48  171 1    
    98   48  172 1    
    99   48  173 1    
   100   49   50 am   BACKBONE|DICT|INTERRES
   101   49  174 1    
   102   50   51 2    
   103   50   52 1    
   104   52   53 1    
   105   52   54 1    
   106   52  175 1    
   107   53  176 1    
   108   53  177 1    
   109   53  178 1    
   110   54   55 am   BACKBONE|DICT|INTERRES
   111   54  179 1    
   112   55   56 2    
   113   55   57 1    
   114   57   58 1    
   115   57   59 1    
   116   57  180 1    
   117   58  181 1    
   118   58  182 1    
   119   58  183 1    
   120   59   60 am   BACKBONE|DICT|INTERRES
   121   59  184 1    
   122   60   61 2    
   123   60   62 1    
   124   62   63 1    
   125   62   64 1    
   126   62  185 1    
   127   63  186 1    
   128   63  187 1    
   129   63  188 1    
   130   64   65 am   BACKBONE|DICT|INTERRES
   131   64  189 1    
   132   65   66 2    
   133   67   68 2    
   134   67   69 am   BACKBONE|DICT|INTERRES
   135   69   70 1    
   136   69  190 1    
   137   70   71 1    
   138   70   72 1    
   139   70  191 1    
   140   71  192 1    
   141   71  193 1    
   142   71  194 1    
   143   72   73 2    
   144   72   74 am   BACKBONE|DICT|INTERRES
   145   74   75 1    
   146   74  195 1    
   147   75   76 1    
   148   75   77 1    
   149   75  196 1    
   150   76  197 1    
   151   76  198 1    
   152   76  199 1    
   153   77   78 2    
   154   77   79 am   BACKBONE|DICT|INTERRES
   155   79   80 1    
   156   79  200 1    
   157   80   81 1    
   158   80   82 1    
   159   80  201 1    
   160   81  202 1    
   161   81  203 1    
   162   81  204 1    
   163   82   83 2    
   164   82   84 am   BACKBONE|DICT|INTERRES
   165   84   85 1    
   166   84  205 1    
   167   85   86 1    
   168   85   87 1    
   169   85  206 1    
   170   86  207 1    
   171   86  208 1    
   172   86  209 1    
   173   87   88 2    
   174   87   89 am   BACKBONE|DICT|INTERRES
   175   89   90 1    
   176   89  210 1    
   177   90   91 1    
   178   90   92 1    
   179   90  211 1    
   180   91  212 1    
   181   91  213 1    
   182   91  214 1    
   183   92   93 2    
   184   92   94 am   BACKBONE|DICT|INTERRES
   185   94   95 1    
   186   94  215 1    
   187   95   96 1    
   188   95   97 1    
   189   95  216 1    
   190   96  217 1    
   191   96  218 1    
   192   96  219 1    
   193   97   98 2    
   194   97   99 am   BACKBONE|DICT|INTERRES
   195   99  100 1    
   196   99  220 1    
   197  100  101 1    
   198  100  102 1    
   199  100  221 1    
   200  101  222 1    
   201  101  223 1    
   202  101  224 1    
   203  102  103 2    
   204  102  104 am   BACKBONE|DICT|INTERRES
   205  104  105 1    
   206  104  225 1    
   207  105  106 1    
   208  105  107 1    
   209  105  226 1    
   210  106  227 1    
   211  106  228 1    
   212  106  229 1    
   213  107  108 2    
   214  107  109 am   BACKBONE|DICT|INTERRES
   215  109  110 1    
   216  109  230 1    
   217  110  111 1    
   218  110  112 1    
   219  110  231 1    
   220  111  232 1    
   221  111  233 1    
   222  111  234 1    
   223  112  113 2    
   224  112  114 am   BACKBONE|DICT|INTERRES
   225  114  115 1    
   226  114  235 1    
   227  115  116 1    
   228  115  117 1    
   229  115  236 1    
   230  116  237 1    
   231  116  238 1    
   232  116  239 1    
   233  117  118 2    
   234  117  119 am   BACKBONE|DICT|INTERRES
   235  119  120 1    
   236  119  240 1    
   237  120  121 1    
   238  120  124 1    
   239  120  241 1    
   240  121  122 am   BACKBONE|DICT|INTERRES
   241  121  123 2    
   242  122  242 1    
   243  122  243 1    
   244  124  125 1    
   245  124  244 1    
   246  124  245 1    
   247  125  126 1    
   248  126  246 1    
   249  126  247 1    
@<TRIPOS>SUBSTRUCTURE
     1 UNK         1 GROUP             0       ****    0 ROOT    
