@<TRIPOS>MOLECULE
3R540
247   249    1
SMALL
USER_CHARGES


@<TRIPOS>ATOM
      1 CA          6.3010  -11.5128  -50.2369 C.3       0 UNK        -0.1800 
      2 C           5.5680  -12.6642  -49.5628 C.2       0 UNK         0.5000 
      3 O           6.0348  -13.1761  -48.5449 O.2       0 UNK        -0.5000 
      4 N           4.4292  -13.0789  -50.1306 N.am      1 UNK        -0.5000 
      5 CA          3.5464  -14.1131  -49.5841 C.3       1 UNK         0.1400 
      6 C6          2.5751  -14.6716  -50.6578 C.3       23 UNK        -0.0398 
      7 S7          1.6006  -13.4308  -51.5946 S.3       23 UNK        -0.2404 
      8 C8          0.0315  -13.2921  -50.6715 C.3       23 UNK        -0.0205 
      9 C9         -0.7650  -14.5889  -50.6453 C.ar      23 UNK        -0.0193 
     10 C10        -1.6804  -14.9008  -51.6571 C.ar      23 UNK        -0.1150 
     11 C11        -2.4133  -16.0943  -51.6110 C.ar      23 UNK        -0.0193 
     12 C12        -2.2150  -16.9780  -50.5434 C.ar      23 UNK        -0.1150 
     13 C13        -1.2895  -16.6825  -49.5428 C.ar      23 UNK        -0.0193 
     14 C14        -0.5910  -15.4780  -49.5855 C.ar      23 UNK        -0.1150 
     15 C15        -1.0021  -17.6720  -48.4336 C.3       23 UNK        -0.0205 
     16 S16         0.4850  -18.6417  -48.8392 S.3       23 UNK        -0.2404 
     17 C17         0.8542  -19.3676  -47.2111 C.3       23 UNK        -0.0398 
     18 CA          0.4554  -20.8500  -47.0130 C.3       11 UNK         0.1400 
     19 N           0.7228  -21.2541  -45.6345 N.am      11 UNK        -0.5000 
     20 C           0.6072  -22.4859  -45.1264 C.2       10 UNK         0.5000 
     21 O           0.2984  -23.4774  -45.7858 O.2       10 UNK        -0.5000 
     22 CA          0.8270  -22.6106  -43.6081 C.3       10 UNK         0.1400 
     23 CB          2.3250  -22.6248  -43.2691 C.3       10 UNK        -0.1800 
     24 N           0.1694  -21.5346  -42.8632 N.am      10 UNK        -0.5000 
     25 C          -1.1585  -21.3565  -42.8070 C.2       9 UNK         0.5000 
     26 O          -1.9737  -22.0974  -43.3579 O.2       9 UNK        -0.5000 
     27 CA         -1.6554  -20.1193  -42.0379 C.3       9 UNK         0.1400 
     28 CB         -1.5791  -20.3538  -40.5217 C.3       9 UNK        -0.1800 
     29 N          -0.9174  -18.9031  -42.3814 N.am      9 UNK        -0.5000 
     30 C          -0.9022  -18.3415  -43.5985 C.2       8 UNK         0.5000 
     31 O          -1.5243  -18.7798  -44.5643 O.2       8 UNK        -0.5000 
     32 CA         -0.0004  -17.1100  -43.7883 C.3       8 UNK         0.1400 
     33 CB         -0.6822  -15.8498  -43.2385 C.3       8 UNK        -0.1800 
     34 N           1.3208  -17.2671  -43.1787 N.am      8 UNK        -0.5000 
     35 C           2.1987  -18.2355  -43.4815 C.2       7 UNK         0.5000 
     36 O           1.9920  -19.1147  -44.3145 O.2       7 UNK        -0.5000 
     37 CA          3.5203  -18.2434  -42.7031 C.3       7 UNK         0.1400 
     38 CB          4.4976  -17.2229  -43.2996 C.3       7 UNK        -0.1800 
     39 N           3.3018  -17.9622  -41.2868 N.am      7 UNK        -0.5000 
     40 C           2.7612  -18.8386  -40.4286 C.2       6 UNK         0.5000 
     41 O           2.4433  -19.9899  -40.7313 O.2       6 UNK        -0.5000 
     42 CA          2.4944  -18.3235  -39.0029 C.3       6 UNK         0.1400 
     43 CB          3.7789  -18.3575  -38.1612 C.3       6 UNK        -0.1800 
     44 N           1.9383  -16.9691  -38.9874 N.am      6 UNK        -0.5000 
     45 C           0.7394  -16.6401  -39.4873 C.2       5 UNK         0.5000 
     46 O          -0.0286  -17.4459  -40.0127 O.2       5 UNK        -0.5000 
     47 CA          0.3394  -15.1557  -39.4148 C.3       5 UNK         0.1400 
     48 CB         -0.3262  -14.8480  -38.0650 C.3       5 UNK        -0.1800 
     49 N           1.4356  -14.2077  -39.6387 N.am      5 UNK        -0.5000 
     50 C           2.2179  -14.1524  -40.7257 C.2       4 UNK         0.5000 
     51 O           2.1948  -14.9932  -41.6286 O.2       4 UNK        -0.5000 
     52 CA          3.1453  -12.9243  -40.8122 C.3       4 UNK         0.1400 
     53 CB          4.1937  -12.9024  -39.6794 C.3       4 UNK        -0.1800 
     54 N           3.7491  -12.7733  -42.1413 N.am      4 UNK        -0.5000 
     55 C           4.7710  -13.4482  -42.6834 C.2       3 UNK         0.5000 
     56 O           5.4695  -14.2617  -42.0764 O.2       3 UNK        -0.5000 
     57 CA          5.0274  -13.1754  -44.1820 C.3       3 UNK         0.1400 
     58 CB          6.4259  -13.6350  -44.6314 C.3       3 UNK        -0.1800 
     59 N           4.0297  -13.8293  -45.0313 N.am      3 UNK        -0.5000 
     60 C           2.7485  -13.4608  -45.1649 C.2       2 UNK         0.5000 
     61 O           2.2633  -12.4710  -44.6120 O.2       2 UNK        -0.5000 
     62 CA          1.8880  -14.3532  -46.0860 C.3       2 UNK         0.1400 
     63 CB          0.4270  -13.8683  -46.2177 C.3       2 UNK        -0.1800 
     64 N           2.5050  -14.5684  -47.4044 N.am      2 UNK        -0.5000 
     65 C           2.8198  -13.6252  -48.3086 C.2       1 UNK         0.5000 
     66 O           2.5623  -12.4263  -48.1722 O.2       1 UNK        -0.5000 
     67 C          -1.0041  -21.1489  -47.4148 C.2       11 UNK         0.5000 
     68 O          -1.2261  -21.7913  -48.4403 O.2       11 UNK        -0.5000 
     69 N          -1.9683  -20.7178  -46.5882 N.am      12 UNK        -0.5000 
     70 CA         -3.3987  -20.9445  -46.7986 C.3       12 UNK         0.1400 
     71 CB         -4.2081  -20.1801  -45.7418 C.3       12 UNK        -0.1800 
     72 C          -3.7779  -22.4346  -46.8008 C.2       12 UNK         0.5000 
     73 O          -4.6087  -22.8400  -47.6142 O.2       12 UNK        -0.5000 
     74 N          -3.1405  -23.2239  -45.9245 N.am      13 UNK        -0.5000 
     75 CA         -3.2763  -24.6784  -45.8752 C.3       13 UNK         0.1400 
     76 CB         -2.6254  -25.2184  -44.5929 C.3       13 UNK        -0.1800 
     77 C          -2.6940  -25.3635  -47.1253 C.2       13 UNK         0.5000 
     78 O          -3.3569  -26.2256  -47.7018 O.2       13 UNK        -0.5000 
     79 N          -1.4905  -24.9466  -47.5452 N.am      14 UNK        -0.5000 
     80 CA         -0.7994  -25.4477  -48.7371 C.3       14 UNK         0.1400 
     81 CB          0.6369  -24.9034  -48.7658 C.3       14 UNK        -0.1800 
     82 C          -1.5352  -25.1147  -50.0489 C.2       14 UNK         0.5000 
     83 O          -1.6200  -25.9676  -50.9329 O.2       14 UNK        -0.5000 
     84 N          -2.0837  -23.8959  -50.1360 N.am      15 UNK        -0.5000 
     85 CA         -2.9187  -23.4252  -51.2435 C.3       15 UNK         0.1400 
     86 CB         -2.9395  -21.8869  -51.2251 C.3       15 UNK        -0.1800 
     87 C          -4.3573  -23.9815  -51.2026 C.2       15 UNK         0.5000 
     88 O          -5.1070  -23.7673  -52.1558 O.2       15 UNK        -0.5000 
     89 N          -4.7316  -24.6398  -50.0944 N.am      16 UNK        -0.5000 
     90 CA         -6.0491  -25.2033  -49.7855 C.3       16 UNK         0.1400 
     91 CB         -6.3089  -26.4557  -50.6460 C.3       16 UNK        -0.1800 
     92 C          -7.1724  -24.1493  -49.8724 C.2       16 UNK         0.5000 
     93 O          -8.2056  -24.3895  -50.4970 O.2       16 UNK        -0.5000 
     94 N          -6.9146  -22.9802  -49.2674 N.am      17 UNK        -0.5000 
     95 CA         -7.7338  -21.7637  -49.3016 C.3       17 UNK         0.1400 
     96 CB         -9.0802  -21.9809  -48.5794 C.3       17 UNK        -0.1800 
     97 C          -7.8879  -21.1873  -50.7276 C.2       17 UNK         0.5000 
     98 O          -8.9699  -20.7278  -51.0973 O.2       17 UNK        -0.5000 
     99 N          -6.7844  -21.2197  -51.4909 N.am      18 UNK        -0.5000 
    100 CA        -6.6353  -20.7478  -52.8734 C.3       18 UNK         0.1400 
    101 CB        -6.8635  -19.2242  -52.9638 C.3       18 UNK        -0.1800 
    102 C         -7.4893  -21.5475  -53.8801 C.2       18 UNK         0.5000 
    103 O         -8.0442  -20.9737  -54.8199 O.2       18 UNK        -0.5000 
    104 N         -7.5777  -22.8682  -53.6764 N.am      19 UNK        -0.5000 
    105 CA        -8.2966  -23.7986  -54.5451 C.3       19 UNK         0.1400 
    106 CB        -8.6904  -25.0467  -53.7392 C.3       19 UNK        -0.1800 
    107 C         -7.4349  -24.1427  -55.7722 C.2       19 UNK         0.5000 
    108 O         -6.7183  -25.1453  -55.7599 O.2       19 UNK        -0.5000 
    109 N         -7.4965  -23.2702  -56.7891 N.am      20 UNK        -0.5000 
    110 CA        -6.6984  -23.2908  -58.0220 C.3       20 UNK         0.1400 
    111 CB        -7.0437  -24.5201  -58.8892 C.3       20 UNK        -0.1800 
    112 C         -5.1875  -23.1460  -57.7377 C.2       20 UNK         0.5000 
    113 O         -4.3642  -23.8391  -58.3387 O.2       20 UNK        -0.5000 
    114 N         -4.8612  -22.2423  -56.8088 N.am      21 UNK        -0.5000 
    115 CA        -3.5155  -21.9218  -56.3519 C.3       21 UNK         0.1400 
    116 CB        -3.1838  -22.7794  -55.1187 C.3       21 UNK        -0.1800 
    117 C         -3.4596  -20.4262  -56.0121 C.2       21 UNK         0.5000 
    118 O         -4.5089  -19.8211  -55.7830 O.2       21 UNK        -0.5000 
    119 N         -2.2377  -19.8782  -55.9958 N.am      22 UNK        -0.5000 
    120 CA        -1.8468  -18.4965  -55.6425 C.3       22 UNK         0.1400 
    121 C         -2.4931  -17.3249  -56.4481 C.2       22 UNK         0.5000 
    122 N         -3.2712  -17.5775  -57.4920 N.am      22 UNK        -0.7600 
    123 O         -2.2387  -16.1593  -56.1570 O.2       22 UNK        -0.5000 
    124 C124       -1.7824  -18.2464  -54.1074 C.3       23 UNK        -0.0398 
    125 S125       -3.3924  -18.1532  -53.2511 S.3       23 UNK        -0.2404 
    126 C126       -3.4289  -16.4118  -52.7051 C.3       23 UNK        -0.0205 
    127 H127        5.7793  -11.1676  -51.1300 H         1 UNK         0.0600 
    128 H128        7.3038  -11.8252  -50.5281 H         1 UNK         0.0600 
    129 H129        6.3905  -10.6720  -49.5491 H         1 UNK         0.0600 
    130 H130        4.0736  -12.5996  -50.9457 H         1 UNK         0.3000 
    131 H131        4.1873  -14.9437  -49.2794 H         1 UNK         0.0600 
    132 H132        3.1698  -15.2043  -51.4010 H         1 UNK         0.0800 
    133 H133        1.9312  -15.4409  -50.2382 H         1 UNK         0.0800 
    134 H134        0.2344  -12.9526  -49.6551 H         1 UNK         0.0800 
    135 H135       -0.5713  -12.5073  -51.1307 H         1 UNK         0.0800 
    136 H136       -1.8233  -14.2115  -52.4775 H         1 UNK         0.1150 
    137 H137       -2.7647  -17.9077  -50.5006 H         1 UNK         0.1150 
    138 H138        0.1217  -15.2503  -48.8083 H         1 UNK         0.1150 
    139 H139       -0.8609  -17.1317  -47.4962 H         1 UNK         0.0800 
    140 H140       -1.8514  -18.3401  -48.2844 H         1 UNK         0.0800 
    141 H141        0.3899  -18.7524  -46.4424 H         1 UNK         0.0800 
    142 H142        1.9284  -19.2649  -47.0518 H         1 UNK         0.0800 
    143 H143        1.0953  -21.4567  -47.6569 H         1 UNK         0.0600 
    144 H144        1.0309  -20.5090  -45.0134 H         1 UNK         0.3000 
    145 H145        0.3936  -23.5595  -43.2852 H         1 UNK         0.0600 
    146 H146        2.4854  -22.7819  -42.2023 H         1 UNK         0.0600 
    147 H147        2.8374  -23.4294  -43.7981 H         1 UNK         0.0600 
    148 H148        2.8109  -21.6879  -43.5438 H         1 UNK         0.0600 
    149 H149        0.7708  -20.8725  -42.3909 H         1 UNK         0.3000 
    150 H150       -2.7021  -19.9615  -42.3059 H         1 UNK         0.0600 
    151 H151       -2.1160  -21.2596  -40.2372 H         1 UNK         0.0600 
    152 H152       -2.0266  -19.5246  -39.9735 H         1 UNK         0.0600 
    153 H153       -0.5479  -20.4592  -40.1817 H         1 UNK         0.0600 
    154 H154       -0.4095  -18.4506  -41.6259 H         1 UNK         0.3000 
    155 H155        0.1521  -16.9686  -44.8593 H         1 UNK         0.0600 
    156 H156       -0.9786  -15.9761  -42.1982 H         1 UNK         0.0600 
    157 H157       -0.0259  -14.9819  -43.2951 H         1 UNK         0.0600 
    158 H158       -1.5834  -15.6181  -43.8073 H         1 UNK         0.0600 
    159 H159        1.5936  -16.5623  -42.4980 H         1 UNK         0.3000 
    160 H160        3.9662  -19.2361  -42.7966 H         1 UNK         0.0600 
    161 H161        4.0712  -16.2209  -43.3001 H         1 UNK         0.0600 
    162 H162        4.7419  -17.4746  -44.3322 H         1 UNK         0.0600 
    163 H163        5.4327  -17.1910  -42.7402 H         1 UNK         0.0600 
    164 H164        3.4758  -17.0159  -40.9781 H         1 UNK         0.3000 
    165 H165        1.7653  -18.9922  -38.5403 H         1 UNK         0.0600 
    166 H166        3.5804  -18.0737  -37.1276 H         1 UNK         0.0600 
    167 H167        4.2079  -19.3603  -38.1451 H         1 UNK         0.0600 
    168 H168        4.5387  -17.6815  -38.5554 H         1 UNK         0.0600 
    169 H169        2.5082  -16.2409  -38.5830 H         1 UNK         0.3000 
    170 H170       -0.3999  -14.9791  -40.1970 H         1 UNK         0.0600 
    171 H171        0.3748  -14.9554  -37.2364 H         1 UNK         0.0600 
    172 H172       -0.7219  -13.8325  -38.0416 H         1 UNK         0.0600 
    173 H173       -1.1619  -15.5240  -37.8779 H         1 UNK         0.0600 
    174 H174        1.5307  -13.4801  -38.9451 H         1 UNK         0.3000 
    175 H175        2.5095  -12.0463  -40.6887 H         1 UNK         0.0600 
    176 H176        4.8981  -12.0805  -39.8077 H         1 UNK         0.0600 
    177 H177        4.7639  -13.8304  -39.6302 H         1 UNK         0.0600 
    178 H178        3.7179  -12.7681  -38.7077 H         1 UNK         0.0600 
    179 H179        3.1936  -12.2288  -42.7930 H         1 UNK         0.3000 
    180 H180        4.9668  -12.0965  -44.3400 H         1 UNK         0.0600 
    181 H181        6.5458  -14.7154  -44.5403 H         1 UNK         0.0600 
    182 H182        7.2037  -13.1653  -44.0281 H         1 UNK         0.0600 
    183 H183        6.6140  -13.3639  -45.6707 H         1 UNK         0.0600 
    184 H184        4.3476  -14.6457  -45.5315 H         1 UNK         0.3000 
    185 H185        1.8578  -15.3277  -45.5968 H         1 UNK         0.0600 
    186 H186       -0.0078  -13.6496  -45.2426 H         1 UNK         0.0600 
    187 H187        0.3459  -12.9594  -46.8133 H         1 UNK         0.0600 
    188 H188       -0.2024  -14.6304  -46.6740 H         1 UNK         0.0600 
    189 H189        2.7658  -15.5240  -47.6044 H         1 UNK         0.3000 
    190 H190       -1.7163  -20.1655  -45.7712 H         1 UNK         0.3000 
    191 H191       -3.6554  -20.5401  -47.7799 H         1 UNK         0.0600 
    192 H192       -4.0239  -19.1076  -45.8059 H         1 UNK         0.0600 
    193 H193       -5.2790  -20.3350  -45.8799 H         1 UNK         0.0600 
    194 H194       -3.9549  -20.5030  -44.7312 H         1 UNK         0.0600 
    195 H195       -2.5063  -22.8002  -45.2555 H         1 UNK         0.3000 
    196 H196       -4.3421  -24.9132  -45.8347 H         1 UNK         0.0600 
    197 H197       -2.7355  -26.3014  -44.5255 H         1 UNK         0.0600 
    198 H198       -3.0898  -24.7879  -43.7055 H         1 UNK         0.0600 
    199 H199       -1.5597  -24.9933  -44.5525 H         1 UNK         0.0600 
    200 H200       -0.9910  -24.2552  -46.9920 H         1 UNK         0.3000 
    201 H201       -0.7464  -26.5353  -48.6562 H         1 UNK         0.0600 
    202 H202        1.1927  -25.2130  -47.8806 H         1 UNK         0.0600 
    203 H203        0.6540  -23.8139  -48.8063 H         1 UNK         0.0600 
    204 H204        1.1789  -25.2741  -49.6367 H         1 UNK         0.0600 
    205 H205       -1.9016  -23.2252  -49.3913 H         1 UNK         0.3000 
    206 H206       -2.4684  -23.7503  -52.1835 H         1 UNK         0.0600 
    207 H207       -1.9300  -21.4782  -51.2761 H         1 UNK         0.0600 
    208 H208       -3.4894  -21.4866  -52.0769 H         1 UNK         0.0600 
    209 H209       -3.4078  -21.5025  -50.3181 H         1 UNK         0.0600 
    210 H210       -4.0448  -24.7360  -49.3583 H         1 UNK         0.3000 
    211 H211       -6.0128  -25.5213  -48.7425 H         1 UNK         0.0600 
    212 H212       -6.3077  -26.2227  -51.7101 H         1 UNK         0.0600 
    213 H213       -7.2719  -26.9078  -50.4063 H         1 UNK         0.0600 
    214 H214       -5.5436  -27.2122  -50.4721 H         1 UNK         0.0600 
    215 H215       -6.0397  -22.9062  -48.7491 H         1 UNK         0.3000 
    216 H216       -7.1797  -21.0145  -48.7343 H         1 UNK         0.0600 
    217 H217       -9.6237  -21.0410  -48.4774 H         1 UNK         0.0600 
    218 H218       -8.9291  -22.3776  -47.5755 H         1 UNK         0.0600 
    219 H219       -9.7258  -22.6729  -49.1206 H         1 UNK         0.0600 
    220 H220       -5.9729  -21.6809  -51.1066 H         1 UNK         0.3000 
    221 H221       -5.5969  -20.9349  -53.1492 H         1 UNK         0.0600 
    222 H222       -7.9089  -18.9573  -52.8076 H         1 UNK         0.0600 
    223 H223       -6.2665  -18.6905  -52.2246 H         1 UNK         0.0600 
    224 H224       -6.5734  -18.8476  -53.9456 H         1 UNK         0.0600 
    225 H225       -7.0258  -23.2792  -52.9311 H         1 UNK         0.3000 
    226 H226       -9.2199  -23.3305  -54.8932 H         1 UNK         0.0600 
    227 H227       -9.3677  -24.7898  -52.9249 H         1 UNK         0.0600 
    228 H228       -9.2025  -25.7740  -54.3702 H         1 UNK         0.0600 
    229 H229       -7.8199  -25.5396  -53.3081 H         1 UNK         0.0600 
    230 H230       -8.0745  -22.4492  -56.6584 H         1 UNK         0.3000 
    231 H231       -6.9858  -22.4029  -58.5869 H         1 UNK         0.0600 
    232 H232       -6.7278  -25.4524  -58.4204 H         1 UNK         0.0600 
    233 H233       -6.5513  -24.4617  -59.8605 H         1 UNK         0.0600 
    234 H234       -8.1161  -24.5837  -59.0736 H         1 UNK         0.0600 
    235 H235       -5.5839  -21.6581  -56.4075 H         1 UNK         0.3000 
    236 H236       -2.7940  -22.1228  -57.1467 H         1 UNK         0.0600 
    237 H237       -3.2106  -23.8425  -55.3583 H         1 UNK         0.0600 
    238 H238       -2.1876  -22.5558  -54.7355 H         1 UNK         0.0600 
    239 H239       -3.8952  -22.6040  -54.3115 H         1 UNK         0.0600 
    240 H240       -1.4598  -20.4763  -56.2350 H         1 UNK         0.3000 
    241 H241       -0.8090  -18.4544  -55.9750 H         1 UNK         0.0600 
    242 H242       -3.5266  -18.5255  -57.7166 H         1 UNK         0.3800 
    243 H243       -3.6667  -16.8115  -58.0140 H         1 UNK         0.3800 
    244 H244       -1.2098  -19.0454  -53.6353 H         1 UNK         0.0800 
    245 H245       -1.2154  -17.3362  -53.9059 H         1 UNK         0.0800 
    246 H246       -3.2785  -15.7675  -53.5726 H         1 UNK         0.0800 
    247 H247       -4.4261  -16.1892  -52.3240 H         1 UNK         0.0800 
@<TRIPOS>BOND
     1    1    2 1    
     2    1  127 1    
     3    1  128 1    
     4    1  129 1    
     5    2    3 2    
     6    2    4 am   BACKBONE|DICT|INTERRES
     7    4    5 1    
     8    4  130 1    
     9    5    6 1    
    10    5   65 1    
    11    5  131 1    
    12    6    7 1    
    13    6  132 1    
    14    6  133 1    
    15    7    8 1    
    16    8    9 1    
    17    8  134 1    
    18    8  135 1    
    19    9   10 ar   
    20    9   14 ar   
    21   10   11 ar   
    22   10  136 1    
    23   11   12 ar   
    24   11  126 1    
    25   12   13 ar   
    26   12  137 1    
    27   13   14 ar   
    28   13   15 1    
    29   14  138 1    
    30   15   16 1    
    31   15  139 1    
    32   15  140 1    
    33   16   17 1    
    34   17   18 1    
    35   17  141 1    
    36   17  142 1    
    37   18   19 1    
    38   18   67 1    
    39   18  143 1    
    40   19   20 am   BACKBONE|DICT|INTERRES
    41   19  144 1    
    42   20   21 2    
    43   20   22 1    
    44   22   23 1    
    45   22   24 1    
    46   22  145 1    
    47   23  146 1    
    48   23  147 1    
    49   23  148 1    
    50   24   25 am   BACKBONE|DICT|INTERRES
    51   24  149 1    
    52   25   26 2    
    53   25   27 1    
    54   27   28 1    
    55   27   29 1    
    56   27  150 1    
    57   28  151 1    
    58   28  152 1    
    59   28  153 1    
    60   29   30 am   BACKBONE|DICT|INTERRES
    61   29  154 1    
    62   30   31 2    
    63   30   32 1    
    64   32   33 1    
    65   32   34 1    
    66   32  155 1    
    67   33  156 1    
    68   33  157 1    
    69   33  158 1    
    70   34   35 am   BACKBONE|DICT|INTERRES
    71   34  159 1    
    72   35   36 2    
    73   35   37 1    
    74   37   38 1    
    75   37   39 1    
    76   37  160 1    
    77   38  161 1    
    78   38  162 1    
    79   38  163 1    
    80   39   40 am   BACKBONE|DICT|INTERRES
    81   39  164 1    
    82   40   41 2    
    83   40   42 1    
    84   42   43 1    
    85   42   44 1    
    86   42  165 1    
    87   43  166 1    
    88   43  167 1    
    89   43  168 1    
    90   44   45 am   BACKBONE|DICT|INTERRES
    91   44  169 1    
    92   45   46 2    
    93   45   47 1    
    94   47   48 1    
    95   47   49 1    
    96   47  170 1    
    97   48  171 1    
    98   48  172 1    
    99   48  173 1    
   100   49   50 am   BACKBONE|DICT|INTERRES
   101   49  174 1    
   102   50   51 2    
   103   50   52 1    
   104   52   53 1    
   105   52   54 1    
   106   52  175 1    
   107   53  176 1    
   108   53  177 1    
   109   53  178 1    
   110   54   55 am   BACKBONE|DICT|INTERRES
   111   54  179 1    
   112   55   56 2    
   113   55   57 1    
   114   57   58 1    
   115   57   59 1    
   116   57  180 1    
   117   58  181 1    
   118   58  182 1    
   119   58  183 1    
   120   59   60 am   BACKBONE|DICT|INTERRES
   121   59  184 1    
   122   60   61 2    
   123   60   62 1    
   124   62   63 1    
   125   62   64 1    
   126   62  185 1    
   127   63  186 1    
   128   63  187 1    
   129   63  188 1    
   130   64   65 am   BACKBONE|DICT|INTERRES
   131   64  189 1    
   132   65   66 2    
   133   67   68 2    
   134   67   69 am   BACKBONE|DICT|INTERRES
   135   69   70 1    
   136   69  190 1    
   137   70   71 1    
   138   70   72 1    
   139   70  191 1    
   140   71  192 1    
   141   71  193 1    
   142   71  194 1    
   143   72   73 2    
   144   72   74 am   BACKBONE|DICT|INTERRES
   145   74   75 1    
   146   74  195 1    
   147   75   76 1    
   148   75   77 1    
   149   75  196 1    
   150   76  197 1    
   151   76  198 1    
   152   76  199 1    
   153   77   78 2    
   154   77   79 am   BACKBONE|DICT|INTERRES
   155   79   80 1    
   156   79  200 1    
   157   80   81 1    
   158   80   82 1    
   159   80  201 1    
   160   81  202 1    
   161   81  203 1    
   162   81  204 1    
   163   82   83 2    
   164   82   84 am   BACKBONE|DICT|INTERRES
   165   84   85 1    
   166   84  205 1    
   167   85   86 1    
   168   85   87 1    
   169   85  206 1    
   170   86  207 1    
   171   86  208 1    
   172   86  209 1    
   173   87   88 2    
   174   87   89 am   BACKBONE|DICT|INTERRES
   175   89   90 1    
   176   89  210 1    
   177   90   91 1    
   178   90   92 1    
   179   90  211 1    
   180   91  212 1    
   181   91  213 1    
   182   91  214 1    
   183   92   93 2    
   184   92   94 am   BACKBONE|DICT|INTERRES
   185   94   95 1    
   186   94  215 1    
   187   95   96 1    
   188   95   97 1    
   189   95  216 1    
   190   96  217 1    
   191   96  218 1    
   192   96  219 1    
   193   97   98 2    
   194   97   99 am   BACKBONE|DICT|INTERRES
   195   99  100 1    
   196   99  220 1    
   197  100  101 1    
   198  100  102 1    
   199  100  221 1    
   200  101  222 1    
   201  101  223 1    
   202  101  224 1    
   203  102  103 2    
   204  102  104 am   BACKBONE|DICT|INTERRES
   205  104  105 1    
   206  104  225 1    
   207  105  106 1    
   208  105  107 1    
   209  105  226 1    
   210  106  227 1    
   211  106  228 1    
   212  106  229 1    
   213  107  108 2    
   214  107  109 am   BACKBONE|DICT|INTERRES
   215  109  110 1    
   216  109  230 1    
   217  110  111 1    
   218  110  112 1    
   219  110  231 1    
   220  111  232 1    
   221  111  233 1    
   222  111  234 1    
   223  112  113 2    
   224  112  114 am   BACKBONE|DICT|INTERRES
   225  114  115 1    
   226  114  235 1    
   227  115  116 1    
   228  115  117 1    
   229  115  236 1    
   230  116  237 1    
   231  116  238 1    
   232  116  239 1    
   233  117  118 2    
   234  117  119 am   BACKBONE|DICT|INTERRES
   235  119  120 1    
   236  119  240 1    
   237  120  121 1    
   238  120  124 1    
   239  120  241 1    
   240  121  122 am   BACKBONE|DICT|INTERRES
   241  121  123 2    
   242  122  242 1    
   243  122  243 1    
   244  124  125 1    
   245  124  244 1    
   246  124  245 1    
   247  125  126 1    
   248  126  246 1    
   249  126  247 1    
@<TRIPOS>SUBSTRUCTURE
     1 UNK         1 GROUP             0       ****    0 ROOT    
