@<TRIPOS>MOLECULE
3R540
247   249    1
SMALL
USER_CHARGES


@<TRIPOS>ATOM
      1 CA         -4.6042  -17.7135  -48.0364 C.3       0 UNK        -0.1800 
      2 C          -5.6426  -16.6090  -48.2305 C.2       0 UNK         0.5000 
      3 O          -6.6414  -16.8471  -48.9051 O.2       0 UNK        -0.5000 
      4 N          -5.4805  -15.3915  -47.6921 N.am      1 UNK        -0.5000 
      5 CA         -4.4107  -14.8647  -46.8301 C.3       1 UNK         0.1400 
      6 C6         -2.9840  -14.9291  -47.4519 C.3       23 UNK        -0.0398 
      7 S7         -2.9160  -14.0052  -49.0247 S.3       23 UNK        -0.2404 
      8 C8         -1.1454  -14.0688  -49.4322 C.3       23 UNK        -0.0205 
      9 C9         -0.7943  -15.3026  -50.2497 C.ar      23 UNK        -0.0193 
     10 C10        -1.0729  -15.3362  -51.6192 C.ar      23 UNK        -0.1150 
     11 C11        -0.7132  -16.4452  -52.3898 C.ar      23 UNK        -0.0193 
     12 C12        -0.0681  -17.5256  -51.7830 C.ar      23 UNK        -0.1150 
     13 C13         0.2169  -17.5034  -50.4152 C.ar      23 UNK        -0.0193 
     14 C14        -0.1556  -16.3918  -49.6522 C.ar      23 UNK        -0.1150 
     15 C15         0.9737  -18.6585  -49.7789 C.3       23 UNK        -0.0205 
     16 S16        -0.0044  -20.1908  -49.7200 S.3       23 UNK        -0.2404 
     17 C17        -1.3043  -19.7921  -48.5055 C.3       23 UNK        -0.0398 
     18 CA         -1.6100  -21.0009  -47.5883 C.3       11 UNK         0.1400 
     19 N          -0.5336  -21.2902  -46.6310 N.am      11 UNK        -0.5000 
     20 C          -0.4720  -22.4060  -45.8882 C.2       10 UNK         0.5000 
     21 O          -1.2882  -23.3220  -45.9715 O.2       10 UNK        -0.5000 
     22 CA          0.6417  -22.4949  -44.8291 C.3       10 UNK         0.1400 
     23 CB          1.9779  -22.9278  -45.4508 C.3       10 UNK        -0.1800 
     24 N           0.8045  -21.2437  -44.0888 N.am      10 UNK        -0.5000 
     25 C          -0.1291  -20.7297  -43.2744 C.2       9 UNK         0.5000 
     26 O          -1.1967  -21.2863  -43.0242 O.2       9 UNK        -0.5000 
     27 CA          0.1516  -19.3428  -42.6724 C.3       9 UNK         0.1400 
     28 CB          1.0568  -19.4710  -41.4366 C.3       9 UNK        -0.1800 
     29 N           0.7585  -18.4301  -43.6400 N.am      9 UNK        -0.5000 
     30 C           0.1859  -18.0199  -44.7808 C.2       8 UNK         0.5000 
     31 O          -0.9654  -18.3010  -45.1106 O.2       8 UNK        -0.5000 
     32 CA          1.0789  -17.2411  -45.7622 C.3       8 UNK         0.1400 
     33 CB          1.0738  -15.7323  -45.4875 C.3       8 UNK        -0.1800 
     34 N           2.4556  -17.7317  -45.7722 N.am      8 UNK        -0.5000 
     35 C           2.8204  -18.9311  -46.2443 C.2       7 UNK         0.5000 
     36 O           2.0289  -19.7423  -46.7221 O.2       7 UNK        -0.5000 
     37 CA          4.3102  -19.2930  -46.1218 C.3       7 UNK         0.1400 
     38 CB          5.1210  -18.6425  -47.2524 C.3       7 UNK        -0.1800 
     39 N           4.8649  -18.8939  -44.8272 N.am      7 UNK        -0.5000 
     40 C           4.5301  -19.4676  -43.6631 C.2       6 UNK         0.5000 
     41 O           3.7620  -20.4254  -43.5723 O.2       6 UNK        -0.5000 
     42 CA          5.1162  -18.8353  -42.3853 C.3       6 UNK         0.1400 
     43 CB          6.5129  -19.4036  -42.0934 C.3       6 UNK        -0.1800 
     44 N           5.1849  -17.3690  -42.4266 N.am      6 UNK        -0.5000 
     45 C           4.1210  -16.5656  -42.5508 C.2       5 UNK         0.5000 
     46 O           2.9688  -16.9808  -42.7006 O.2       5 UNK        -0.5000 
     47 CA          4.3763  -15.0521  -42.5353 C.3       5 UNK         0.1400 
     48 CB          4.9631  -14.5754  -43.8753 C.3       5 UNK        -0.1800 
     49 N           3.0947  -14.4004  -42.3025 N.am      5 UNK        -0.5000 
     50 C           2.8776  -13.2061  -41.7441 C.2       4 UNK         0.5000 
     51 O           3.7763  -12.4422  -41.3899 O.2       4 UNK        -0.5000 
     52 CA          1.4021  -12.7985  -41.5452 C.3       4 UNK         0.1400 
     53 CB          0.9642  -11.8181  -42.6440 C.3       4 UNK        -0.1800 
     54 N           0.4936  -13.9480  -41.5584 N.am      4 UNK        -0.5000 
     55 C           0.3166  -14.8132  -40.5542 C.2       3 UNK         0.5000 
     56 O           0.8282  -14.6673  -39.4429 O.2       3 UNK        -0.5000 
     57 CA         -0.5545  -16.0557  -40.8576 C.3       3 UNK         0.1400 
     58 CB         -0.7549  -16.9562  -39.6249 C.3       3 UNK        -0.1800 
     59 N          -1.8710  -15.7639  -41.4348 N.am      3 UNK        -0.5000 
     60 C          -2.1135  -15.3097  -42.6699 C.2       2 UNK         0.5000 
     61 O          -1.2268  -14.9950  -43.4664 O.2       2 UNK        -0.5000 
     62 CA         -3.5877  -15.1667  -43.0742 C.3       2 UNK         0.1400 
     63 CB         -4.2745  -14.0419  -42.2806 C.3       2 UNK        -0.1800 
     64 N          -3.6612  -14.8515  -44.4988 N.am      2 UNK        -0.5000 
     65 C          -4.4967  -15.4046  -45.3829 C.2       1 UNK         0.5000 
     66 O          -5.3340  -16.2581  -45.0805 O.2       1 UNK        -0.5000 
     67 C          -2.9831  -20.8488  -46.9011 C.2       11 UNK         0.5000 
     68 O          -3.9797  -21.3386  -47.4364 O.2       11 UNK        -0.5000 
     69 N          -3.0125  -20.2133  -45.7215 N.am      12 UNK        -0.5000 
     70 CA         -4.2005  -20.0874  -44.8775 C.3       12 UNK         0.1400 
     71 CB         -3.9163  -19.1126  -43.7251 C.3       12 UNK        -0.1800 
     72 C          -4.6845  -21.4499  -44.3475 C.2       12 UNK         0.5000 
     73 O          -5.8737  -21.7505  -44.4508 O.2       12 UNK        -0.5000 
     74 N          -3.7529  -22.2708  -43.8396 N.am      13 UNK        -0.5000 
     75 CA         -4.0028  -23.6341  -43.3601 C.3       13 UNK         0.1400 
     76 CB         -2.7369  -24.1808  -42.6839 C.3       13 UNK        -0.1800 
     77 C          -4.4802  -24.5896  -44.4705 C.2       13 UNK         0.5000 
     78 O          -5.3277  -25.4453  -44.2148 O.2       13 UNK        -0.5000 
     79 N          -3.9648  -24.3946  -45.6914 N.am      14 UNK        -0.5000 
     80 CA         -4.3865  -25.0835  -46.9121 C.3       14 UNK         0.1400 
     81 CB         -3.2842  -24.9316  -47.9750 C.3       14 UNK        -0.1800 
     82 C          -5.7389  -24.5896  -47.4680 C.2       14 UNK         0.5000 
     83 O          -6.1897  -25.1217  -48.4817 O.2       14 UNK        -0.5000 
     84 N          -6.3480  -23.5707  -46.8406 N.am      15 UNK        -0.5000 
     85 CA         -7.6082  -22.9239  -47.2221 C.3       15 UNK         0.1400 
     86 CB         -8.7977  -23.8846  -47.0158 C.3       15 UNK        -0.1800 
     87 C          -7.5541  -22.3190  -48.6403 C.2       15 UNK         0.5000 
     88 O          -8.5206  -22.4197  -49.3977 O.2       15 UNK        -0.5000 
     89 N          -6.3981  -21.7250  -48.9710 N.am      16 UNK        -0.5000 
     90 CA         -6.0373  -21.1094  -50.2494 C.3       16 UNK         0.1400 
     91 CB         -7.0041  -19.9674  -50.6212 C.3       16 UNK        -0.1800 
     92 C          -5.8424  -22.1054  -51.4111 C.2       16 UNK         0.5000 
     93 O          -5.6678  -21.6612  -52.5447 O.2       16 UNK        -0.5000 
     94 N          -5.8032  -23.4214  -51.1446 N.am      17 UNK        -0.5000 
     95 CA         -5.5149  -24.4433  -52.1622 C.3       17 UNK         0.1400 
     96 CB         -5.7768  -25.8413  -51.5848 C.3       17 UNK        -0.1800 
     97 C          -4.0779  -24.3495  -52.7163 C.2       17 UNK         0.5000 
     98 O          -3.8387  -24.7016  -53.8715 O.2       17 UNK        -0.5000 
     99 N          -3.1581  -23.8363  -51.8890 N.am      18 UNK        -0.5000 
    100 CA        -1.7613  -23.5730  -52.2300 C.3       18 UNK         0.1400 
    101 CB        -0.9359  -23.5862  -50.9355 C.3       18 UNK        -0.1800 
    102 C         -1.5513  -22.2576  -53.0116 C.2       18 UNK         0.5000 
    103 O         -0.4273  -21.9964  -53.4426 O.2       18 UNK        -0.5000 
    104 N         -2.6129  -21.4592  -53.2262 N.am      19 UNK        -0.5000 
    105 CA        -2.5617  -20.1867  -53.9611 C.3       19 UNK         0.1400 
    106 CB        -3.8599  -19.3957  -53.7494 C.3       19 UNK        -0.1800 
    107 C         -2.2431  -20.3308  -55.4653 C.2       19 UNK         0.5000 
    108 O         -1.9496  -19.3312  -56.1240 O.2       19 UNK        -0.5000 
    109 N         -2.2207  -21.5730  -55.9699 N.am      20 UNK        -0.5000 
    110 CA        -1.6668  -21.9674  -57.2679 C.3       20 UNK         0.1400 
    111 CB        -1.8884  -23.4756  -57.4578 C.3       20 UNK        -0.1800 
    112 C         -0.1719  -21.6122  -57.4440 C.2       20 UNK         0.5000 
    113 O          0.2985  -21.5484  -58.5800 O.2       20 UNK        -0.5000 
    114 N          0.5373  -21.3509  -56.3333 N.am      21 UNK        -0.5000 
    115 CA         1.8733  -20.7540  -56.3069 C.3       21 UNK         0.1400 
    116 CB         2.3902  -20.7474  -54.8601 C.3       21 UNK        -0.1800 
    117 C          1.9122  -19.3278  -56.8975 C.2       21 UNK         0.5000 
    118 O          2.9124  -18.9650  -57.5187 O.2       21 UNK        -0.5000 
    119 N          0.8285  -18.5594  -56.7164 N.am      22 UNK        -0.5000 
    120 CA         0.6094  -17.2673  -57.3853 C.3       22 UNK         0.1400 
    121 C         -0.0585  -17.4687  -58.7706 C.2       22 UNK         0.5000 
    122 N         -1.1037  -18.2842  -58.8603 N.am      22 UNK        -0.7600 
    123 O          0.3682  -16.8845  -59.7626 O.2       22 UNK        -0.5000 
    124 C124       -0.2354  -16.2766  -56.5429 C.3       23 UNK        -0.0398 
    125 S125        0.4239  -15.9823  -54.8676 S.3       23 UNK        -0.2404 
    126 C126       -1.0172  -16.4775  -53.8767 C.3       23 UNK        -0.0205 
    127 H127       -4.1297  -17.6793  -47.0576 H         1 UNK         0.0600 
    128 H128       -5.0775  -18.6913  -48.1291 H         1 UNK         0.0600 
    129 H129       -3.8351  -17.6414  -48.8049 H         1 UNK         0.0600 
    130 H130       -6.2209  -14.7252  -47.8573 H         1 UNK         0.3000 
    131 H131       -4.6537  -13.8055  -46.7289 H         1 UNK         0.0600 
    132 H132       -2.2523  -14.4770  -46.7811 H         1 UNK         0.0800 
    133 H133       -2.6441  -15.9507  -47.6135 H         1 UNK         0.0800 
    134 H134       -0.5470  -14.0188  -48.5212 H         1 UNK         0.0800 
    135 H135       -0.8900  -13.1779  -50.0078 H         1 UNK         0.0800 
    136 H136       -1.5631  -14.4931  -52.0857 H         1 UNK         0.1150 
    137 H137        0.2249  -18.3803  -52.3769 H         1 UNK         0.1150 
    138 H138        0.0727  -16.3558  -48.5989 H         1 UNK         0.1150 
    139 H139        1.3074  -18.3947  -48.7781 H         1 UNK         0.0800 
    140 H140        1.8793  -18.8478  -50.3568 H         1 UNK         0.0800 
    141 H141       -2.1872  -19.4999  -49.0769 H         1 UNK         0.0800 
    142 H142       -1.0179  -18.9222  -47.9129 H         1 UNK         0.0800 
    143 H143       -1.7034  -21.8813  -48.2246 H         1 UNK         0.0600 
    144 H144        0.2126  -20.6065  -46.5501 H         1 UNK         0.3000 
    145 H145        0.3503  -23.2636  -44.1104 H         1 UNK         0.0600 
    146 H146        2.7580  -23.0063  -44.6934 H         1 UNK         0.0600 
    147 H147        1.8839  -23.9055  -45.9247 H         1 UNK         0.0600 
    148 H148        2.3218  -22.2308  -46.2134 H         1 UNK         0.0600 
    149 H149        1.6744  -20.7418  -44.2192 H         1 UNK         0.3000 
    150 H150       -0.8005  -18.9089  -42.3610 H         1 UNK         0.0600 
    151 H151        1.9826  -19.9978  -41.6655 H         1 UNK         0.0600 
    152 H152        0.5535  -20.0275  -40.6454 H         1 UNK         0.0600 
    153 H153        1.3288  -18.4985  -41.0295 H         1 UNK         0.0600 
    154 H154        1.6935  -18.0945  -43.4223 H         1 UNK         0.3000 
    155 H155        0.6660  -17.4003  -46.7568 H         1 UNK         0.0600 
    156 H156        1.3603  -15.5054  -44.4609 H         1 UNK         0.0600 
    157 H157        0.0807  -15.3169  -45.6571 H         1 UNK         0.0600 
    158 H158        1.7570  -15.2044  -46.1529 H         1 UNK         0.0600 
    159 H159        3.1543  -17.1429  -45.3459 H         1 UNK         0.3000 
    160 H160        4.3996  -20.3774  -46.2171 H         1 UNK         0.0600 
    161 H161        5.0920  -17.5535  -47.1980 H         1 UNK         0.0600 
    162 H162        4.7300  -18.9330  -48.2286 H         1 UNK         0.0600 
    163 H163        6.1654  -18.9527  -47.2165 H         1 UNK         0.0600 
    164 H164        5.5063  -18.1148  -44.8179 H         1 UNK         0.3000 
    165 H165        4.4593  -19.1103  -41.5574 H         1 UNK         0.0600 
    166 H166        6.8948  -19.0409  -41.1389 H         1 UNK         0.0600 
    167 H167        7.2300  -19.1304  -42.8685 H         1 UNK         0.0600 
    168 H168        6.4876  -20.4929  -42.0384 H         1 UNK         0.0600 
    169 H169        6.1010  -16.9582  -42.3170 H         1 UNK         0.3000 
    170 H170        5.0622  -14.8202  -41.7181 H         1 UNK         0.0600 
    171 H171        5.9218  -15.0534  -44.0793 H         1 UNK         0.0600 
    172 H172        4.2967  -14.8010  -44.7088 H         1 UNK         0.0600 
    173 H173        5.1345  -13.4989  -43.8689 H         1 UNK         0.0600 
    174 H174        2.3012  -14.9950  -42.5035 H         1 UNK         0.3000 
    175 H175        1.3216  -12.2947  -40.5798 H         1 UNK         0.0600 
    176 H176        1.0154  -12.2750  -43.6334 H         1 UNK         0.0600 
    177 H177       -0.0595  -11.4791  -42.4842 H         1 UNK         0.0600 
    178 H178        1.6016  -10.9331  -42.6562 H         1 UNK         0.0600 
    179 H179        0.0039  -14.1427  -42.4294 H         1 UNK         0.3000 
    180 H180        0.0044  -16.6283  -41.5979 H         1 UNK         0.0600 
    181 H181       -1.3278  -16.4496  -38.8474 H         1 UNK         0.0600 
    182 H182        0.2009  -17.2501  -39.1893 H         1 UNK         0.0600 
    183 H183       -1.2823  -17.8736  -39.8873 H         1 UNK         0.0600 
    184 H184       -2.6588  -15.9514  -40.8318 H         1 UNK         0.3000 
    185 H185       -4.0853  -16.1150  -42.8627 H         1 UNK         0.0600 
    186 H186       -5.3157  -13.9284  -42.5832 H         1 UNK         0.0600 
    187 H187       -4.2720  -14.2508  -41.2103 H         1 UNK         0.0600 
    188 H188       -3.7771  -13.0827  -42.4303 H         1 UNK         0.0600 
    189 H189       -2.9478  -14.2074  -44.8126 H         1 UNK         0.3000 
    190 H190       -2.1636  -19.7717  -45.3791 H         1 UNK         0.3000 
    191 H191       -4.9987  -19.6614  -45.4893 H         1 UNK         0.0600 
    192 H192       -4.8225  -18.9133  -43.1521 H         1 UNK         0.0600 
    193 H193       -3.5525  -18.1579  -44.1031 H         1 UNK         0.0600 
    194 H194       -3.1692  -19.5014  -43.0343 H         1 UNK         0.0600 
    195 H195       -2.7988  -21.9294  -43.7466 H         1 UNK         0.3000 
    196 H196       -4.7935  -23.5808  -42.6090 H         1 UNK         0.0600 
    197 H197       -1.8990  -24.2292  -43.3798 H         1 UNK         0.0600 
    198 H198       -2.4375  -23.5548  -41.8431 H         1 UNK         0.0600 
    199 H199       -2.9026  -25.1872  -42.2975 H         1 UNK         0.0600 
    200 H200       -3.2074  -23.7255  -45.7937 H         1 UNK         0.3000 
    201 H201       -4.4985  -26.1460  -46.6877 H         1 UNK         0.0600 
    202 H202       -3.1400  -23.8887  -48.2567 H         1 UNK         0.0600 
    203 H203       -3.5280  -25.4864  -48.8815 H         1 UNK         0.0600 
    204 H204       -2.3305  -25.3150  -47.6120 H         1 UNK         0.0600 
    205 H205       -5.8928  -23.1700  -46.0289 H         1 UNK         0.3000 
    206 H206       -7.7408  -22.0838  -46.5391 H         1 UNK         0.0600 
    207 H207       -8.8092  -24.2833  -46.0014 H         1 UNK         0.0600 
    208 H208       -9.7467  -23.3708  -47.1726 H         1 UNK         0.0600 
    209 H209       -8.7641  -24.7272  -47.7071 H         1 UNK         0.0600 
    210 H210       -5.6539  -21.7130  -48.2762 H         1 UNK         0.3000 
    211 H211       -5.0579  -20.6587  -50.0824 H         1 UNK         0.0600 
    212 H212       -6.5966  -19.3585  -51.4290 H         1 UNK         0.0600 
    213 H213       -7.1786  -19.3065  -49.7733 H         1 UNK         0.0600 
    214 H214       -7.9707  -20.3447  -50.9556 H         1 UNK         0.0600 
    215 H215       -5.9807  -23.7489  -50.2024 H         1 UNK         0.3000 
    216 H216       -6.2013  -24.2886  -52.9974 H         1 UNK         0.0600 
    217 H217       -5.0931  -26.0749  -50.7684 H         1 UNK         0.0600 
    218 H218       -5.6471  -26.6087  -52.3489 H         1 UNK         0.0600 
    219 H219       -6.7953  -25.9285  -51.2058 H         1 UNK         0.0600 
    220 H220       -3.4536  -23.5721  -50.9615 H         1 UNK         0.3000 
    221 H221       -1.3972  -24.3815  -52.8673 H         1 UNK         0.0600 
    222 H222       -1.0010  -24.5522  -50.4343 H         1 UNK         0.0600 
    223 H223       -1.2824  -22.8250  -50.2399 H         1 UNK         0.0600 
    224 H224        0.1192  -23.3940  -51.1350 H         1 UNK         0.0600 
    225 H225       -3.5253  -21.7441  -52.8917 H         1 UNK         0.3000 
    226 H226       -1.7471  -19.6100  -53.5214 H         1 UNK         0.0600 
    227 H227       -4.7108  -19.8886  -54.2200 H         1 UNK         0.0600 
    228 H228       -4.0813  -19.2710  -52.6892 H         1 UNK         0.0600 
    229 H229       -3.7837  -18.3978  -54.1830 H         1 UNK         0.0600 
    230 H230       -2.4903  -22.3274  -55.3554 H         1 UNK         0.3000 
    231 H231       -2.2220  -21.4343  -58.0421 H         1 UNK         0.0600 
    232 H232       -1.3719  -24.0565  -56.6926 H         1 UNK         0.0600 
    233 H233       -1.5178  -23.8070  -58.4288 H         1 UNK         0.0600 
    234 H234       -2.9481  -23.7281  -57.4125 H         1 UNK         0.0600 
    235 H235        0.0938  -21.4869  -55.4316 H         1 UNK         0.3000 
    236 H236        2.5341  -21.3828  -56.9070 H         1 UNK         0.0600 
    237 H237        2.4307  -21.7570  -54.4508 H         1 UNK         0.0600 
    238 H238        3.3978  -20.3331  -54.8061 H         1 UNK         0.0600 
    239 H239        1.7524  -20.1485  -54.2081 H         1 UNK         0.0600 
    240 H240        0.0227  -18.9467  -56.2414 H         1 UNK         0.3000 
    241 H241        1.5777  -16.7926  -57.5564 H         1 UNK         0.0600 
    242 H242       -1.5473  -18.4285  -59.7534 H         1 UNK         0.3800 
    243 H243       -1.4779  -18.7285  -58.0302 H         1 UNK         0.3800 
    244 H244       -1.2668  -16.6261  -56.4692 H         1 UNK         0.0800 
    245 H245       -0.2866  -15.3102  -57.0474 H         1 UNK         0.0800 
    246 H246       -1.8582  -15.8211  -54.1060 H         1 UNK         0.0800 
    247 H247       -1.3225  -17.4803  -54.1681 H         1 UNK         0.0800 
@<TRIPOS>BOND
     1    1    2 1    
     2    1  127 1    
     3    1  128 1    
     4    1  129 1    
     5    2    3 2    
     6    2    4 am   BACKBONE|DICT|INTERRES
     7    4    5 1    
     8    4  130 1    
     9    5    6 1    
    10    5   65 1    
    11    5  131 1    
    12    6    7 1    
    13    6  132 1    
    14    6  133 1    
    15    7    8 1    
    16    8    9 1    
    17    8  134 1    
    18    8  135 1    
    19    9   10 ar   
    20    9   14 ar   
    21   10   11 ar   
    22   10  136 1    
    23   11   12 ar   
    24   11  126 1    
    25   12   13 ar   
    26   12  137 1    
    27   13   14 ar   
    28   13   15 1    
    29   14  138 1    
    30   15   16 1    
    31   15  139 1    
    32   15  140 1    
    33   16   17 1    
    34   17   18 1    
    35   17  141 1    
    36   17  142 1    
    37   18   19 1    
    38   18   67 1    
    39   18  143 1    
    40   19   20 am   BACKBONE|DICT|INTERRES
    41   19  144 1    
    42   20   21 2    
    43   20   22 1    
    44   22   23 1    
    45   22   24 1    
    46   22  145 1    
    47   23  146 1    
    48   23  147 1    
    49   23  148 1    
    50   24   25 am   BACKBONE|DICT|INTERRES
    51   24  149 1    
    52   25   26 2    
    53   25   27 1    
    54   27   28 1    
    55   27   29 1    
    56   27  150 1    
    57   28  151 1    
    58   28  152 1    
    59   28  153 1    
    60   29   30 am   BACKBONE|DICT|INTERRES
    61   29  154 1    
    62   30   31 2    
    63   30   32 1    
    64   32   33 1    
    65   32   34 1    
    66   32  155 1    
    67   33  156 1    
    68   33  157 1    
    69   33  158 1    
    70   34   35 am   BACKBONE|DICT|INTERRES
    71   34  159 1    
    72   35   36 2    
    73   35   37 1    
    74   37   38 1    
    75   37   39 1    
    76   37  160 1    
    77   38  161 1    
    78   38  162 1    
    79   38  163 1    
    80   39   40 am   BACKBONE|DICT|INTERRES
    81   39  164 1    
    82   40   41 2    
    83   40   42 1    
    84   42   43 1    
    85   42   44 1    
    86   42  165 1    
    87   43  166 1    
    88   43  167 1    
    89   43  168 1    
    90   44   45 am   BACKBONE|DICT|INTERRES
    91   44  169 1    
    92   45   46 2    
    93   45   47 1    
    94   47   48 1    
    95   47   49 1    
    96   47  170 1    
    97   48  171 1    
    98   48  172 1    
    99   48  173 1    
   100   49   50 am   BACKBONE|DICT|INTERRES
   101   49  174 1    
   102   50   51 2    
   103   50   52 1    
   104   52   53 1    
   105   52   54 1    
   106   52  175 1    
   107   53  176 1    
   108   53  177 1    
   109   53  178 1    
   110   54   55 am   BACKBONE|DICT|INTERRES
   111   54  179 1    
   112   55   56 2    
   113   55   57 1    
   114   57   58 1    
   115   57   59 1    
   116   57  180 1    
   117   58  181 1    
   118   58  182 1    
   119   58  183 1    
   120   59   60 am   BACKBONE|DICT|INTERRES
   121   59  184 1    
   122   60   61 2    
   123   60   62 1    
   124   62   63 1    
   125   62   64 1    
   126   62  185 1    
   127   63  186 1    
   128   63  187 1    
   129   63  188 1    
   130   64   65 am   BACKBONE|DICT|INTERRES
   131   64  189 1    
   132   65   66 2    
   133   67   68 2    
   134   67   69 am   BACKBONE|DICT|INTERRES
   135   69   70 1    
   136   69  190 1    
   137   70   71 1    
   138   70   72 1    
   139   70  191 1    
   140   71  192 1    
   141   71  193 1    
   142   71  194 1    
   143   72   73 2    
   144   72   74 am   BACKBONE|DICT|INTERRES
   145   74   75 1    
   146   74  195 1    
   147   75   76 1    
   148   75   77 1    
   149   75  196 1    
   150   76  197 1    
   151   76  198 1    
   152   76  199 1    
   153   77   78 2    
   154   77   79 am   BACKBONE|DICT|INTERRES
   155   79   80 1    
   156   79  200 1    
   157   80   81 1    
   158   80   82 1    
   159   80  201 1    
   160   81  202 1    
   161   81  203 1    
   162   81  204 1    
   163   82   83 2    
   164   82   84 am   BACKBONE|DICT|INTERRES
   165   84   85 1    
   166   84  205 1    
   167   85   86 1    
   168   85   87 1    
   169   85  206 1    
   170   86  207 1    
   171   86  208 1    
   172   86  209 1    
   173   87   88 2    
   174   87   89 am   BACKBONE|DICT|INTERRES
   175   89   90 1    
   176   89  210 1    
   177   90   91 1    
   178   90   92 1    
   179   90  211 1    
   180   91  212 1    
   181   91  213 1    
   182   91  214 1    
   183   92   93 2    
   184   92   94 am   BACKBONE|DICT|INTERRES
   185   94   95 1    
   186   94  215 1    
   187   95   96 1    
   188   95   97 1    
   189   95  216 1    
   190   96  217 1    
   191   96  218 1    
   192   96  219 1    
   193   97   98 2    
   194   97   99 am   BACKBONE|DICT|INTERRES
   195   99  100 1    
   196   99  220 1    
   197  100  101 1    
   198  100  102 1    
   199  100  221 1    
   200  101  222 1    
   201  101  223 1    
   202  101  224 1    
   203  102  103 2    
   204  102  104 am   BACKBONE|DICT|INTERRES
   205  104  105 1    
   206  104  225 1    
   207  105  106 1    
   208  105  107 1    
   209  105  226 1    
   210  106  227 1    
   211  106  228 1    
   212  106  229 1    
   213  107  108 2    
   214  107  109 am   BACKBONE|DICT|INTERRES
   215  109  110 1    
   216  109  230 1    
   217  110  111 1    
   218  110  112 1    
   219  110  231 1    
   220  111  232 1    
   221  111  233 1    
   222  111  234 1    
   223  112  113 2    
   224  112  114 am   BACKBONE|DICT|INTERRES
   225  114  115 1    
   226  114  235 1    
   227  115  116 1    
   228  115  117 1    
   229  115  236 1    
   230  116  237 1    
   231  116  238 1    
   232  116  239 1    
   233  117  118 2    
   234  117  119 am   BACKBONE|DICT|INTERRES
   235  119  120 1    
   236  119  240 1    
   237  120  121 1    
   238  120  124 1    
   239  120  241 1    
   240  121  122 am   BACKBONE|DICT|INTERRES
   241  121  123 2    
   242  122  242 1    
   243  122  243 1    
   244  124  125 1    
   245  124  244 1    
   246  124  245 1    
   247  125  126 1    
   248  126  246 1    
   249  126  247 1    
@<TRIPOS>SUBSTRUCTURE
     1 UNK         1 GROUP             0       ****    0 ROOT    
