@<TRIPOS>MOLECULE
3R540
247   249    1
SMALL
USER_CHARGES


@<TRIPOS>ATOM
      1 CA         -3.1026  -11.3027  -52.7981 C.3       0 UNK        -0.1800 
      2 C          -1.9164  -12.1718  -52.4055 C.2       0 UNK         0.5000 
      3 O          -1.8011  -13.2990  -52.8872 O.2       0 UNK        -0.5000 
      4 N          -1.0430  -11.6503  -51.5374 N.am      1 UNK        -0.5000 
      5 CA          0.1630  -12.3282  -51.0525 C.3       1 UNK         0.1400 
      6 C6         -0.1177  -13.4379  -50.0041 C.3       23 UNK        -0.0398 
      7 S7         -0.9708  -12.8779  -48.4850 S.3       23 UNK        -0.2404 
      8 C8         -2.6780  -13.4415  -48.7726 C.3       23 UNK        -0.0205 
      9 C9         -2.8126  -14.9533  -48.6651 C.ar      23 UNK        -0.0193 
     10 C10        -2.8493  -15.7424  -49.8192 C.ar      23 UNK        -0.1150 
     11 C11        -2.9826  -17.1300  -49.7266 C.ar      23 UNK        -0.0193 
     12 C12        -3.1018  -17.7249  -48.4686 C.ar      23 UNK        -0.1150 
     13 C13        -3.0631  -16.9489  -47.3087 C.ar      23 UNK        -0.0193 
     14 C14        -2.9179  -15.5625  -47.4105 C.ar      23 UNK        -0.1150 
     15 C15        -3.1639  -17.6248  -45.9540 C.3       23 UNK        -0.0205 
     16 S16        -1.5317  -18.2297  -45.4341 S.3       23 UNK        -0.2404 
     17 C17        -1.9882  -19.6881  -44.4403 C.3       23 UNK        -0.0398 
     18 CA         -2.1125  -20.9572  -45.3170 C.3       11 UNK         0.1400 
     19 N          -0.8963  -21.2529  -46.0780 N.am      11 UNK        -0.5000 
     20 C          -0.8463  -22.0460  -47.1561 C.2       10 UNK         0.5000 
     21 O          -1.8305  -22.6002  -47.6455 O.2       10 UNK        -0.5000 
     22 CA          0.5415  -22.2876  -47.7746 C.3       10 UNK         0.1400 
     23 CB          0.8536  -21.2169  -48.8255 C.3       10 UNK        -0.1800 
     24 N           1.6089  -22.3220  -46.7732 N.am      10 UNK        -0.5000 
     25 C           1.7516  -23.3056  -45.8744 C.2       9 UNK         0.5000 
     26 O           1.0063  -24.2814  -45.8093 O.2       9 UNK        -0.5000 
     27 CA          2.8889  -23.1549  -44.8501 C.3       9 UNK         0.1400 
     28 CB          4.2154  -23.6589  -45.4379 C.3       9 UNK        -0.1800 
     29 N           3.0643  -21.7873  -44.3536 N.am      9 UNK        -0.5000 
     30 C           2.1351  -21.0902  -43.6873 C.2       8 UNK         0.5000 
     31 O           0.9768  -21.4780  -43.5130 O.2       8 UNK        -0.5000 
     32 CA          2.5701  -19.7242  -43.1316 C.3       8 UNK         0.1400 
     33 CB          1.9843  -18.5789  -43.9667 C.3       8 UNK        -0.1800 
     34 N           2.1425  -19.5806  -41.7418 N.am      8 UNK        -0.5000 
     35 C           2.7291  -20.2029  -40.7089 C.2       7 UNK         0.5000 
     36 O           3.7326  -20.9084  -40.8319 O.2       7 UNK        -0.5000 
     37 CA          2.0892  -20.0268  -39.3128 C.3       7 UNK         0.1400 
     38 CB          3.1210  -20.1187  -38.1684 C.3       7 UNK        -0.1800 
     39 N           1.2668  -18.8193  -39.1761 N.am      7 UNK        -0.5000 
     40 C           1.6661  -17.5434  -39.2746 C.2       6 UNK         0.5000 
     41 O           2.8270  -17.1877  -39.4865 O.2       6 UNK        -0.5000 
     42 CA          0.5538  -16.4860  -39.1438 C.3       6 UNK         0.1400 
     43 CB          0.9628  -15.3577  -38.1823 C.3       6 UNK        -0.1800 
     44 N           0.1853  -15.8984  -40.4317 N.am      6 UNK        -0.5000 
     45 C          -0.2434  -16.5554  -41.5199 C.2       5 UNK         0.5000 
     46 O          -0.3648  -17.7800  -41.5795 O.2       5 UNK        -0.5000 
     47 CA         -0.6293  -15.6989  -42.7419 C.3       5 UNK         0.1400 
     48 CB         -2.1583  -15.6194  -42.8707 C.3       5 UNK        -0.1800 
     49 N          -0.0940  -14.3359  -42.6829 N.am      5 UNK        -0.5000 
     50 C           1.1552  -14.0007  -43.0252 C.2       4 UNK         0.5000 
     51 O           1.9950  -14.8026  -43.4393 O.2       4 UNK        -0.5000 
     52 CA          1.5407  -12.5223  -42.8404 C.3       4 UNK         0.1400 
     53 CB          2.3727  -12.3387  -41.5612 C.3       4 UNK        -0.1800 
     54 N           2.3056  -12.0358  -43.9872 N.am      4 UNK        -0.5000 
     55 C           1.7682  -11.7531  -45.1792 C.2       3 UNK         0.5000 
     56 O           0.5564  -11.7897  -45.4100 O.2       3 UNK        -0.5000 
     57 CA          2.7499  -11.3721  -46.2967 C.3       3 UNK         0.1400 
     58 CB          3.4528  -12.6175  -46.8648 C.3       3 UNK        -0.1800 
     59 N           2.0180  -10.7063  -47.3683 N.am      3 UNK        -0.5000 
     60 C           2.4881   -9.7267  -48.1483 C.2       2 UNK         0.5000 
     61 O           3.6248   -9.2607  -48.0464 O.2       2 UNK        -0.5000 
     62 CA          1.5159   -9.1912  -49.2241 C.3       2 UNK         0.1400 
     63 CB          2.2082   -8.3121  -50.2875 C.3       2 UNK        -0.1800 
     64 N           0.7265  -10.2566  -49.8575 N.am      2 UNK        -0.5000 
     65 C           1.1996  -11.3069  -50.5518 C.2       1 UNK         0.5000 
     66 O           2.3905  -11.4836  -50.8116 O.2       1 UNK        -0.5000 
     67 C          -2.5383  -22.1786  -44.4837 C.2       11 UNK         0.5000 
     68 O          -3.7200  -22.5246  -44.4792 O.2       11 UNK        -0.5000 
     69 N          -1.5617  -22.8543  -43.8587 N.am      12 UNK        -0.5000 
     70 CA         -1.7398  -24.1280  -43.1553 C.3       12 UNK         0.1400 
     71 CB         -0.4296  -24.5038  -42.4473 C.3       12 UNK        -0.1800 
     72 C          -2.2088  -25.2657  -44.0861 C.2       12 UNK         0.5000 
     73 O          -2.9959  -26.1132  -43.6650 O.2       12 UNK        -0.5000 
     74 N          -1.7634  -25.2261  -45.3490 N.am      13 UNK        -0.5000 
     75 CA         -2.1902  -26.1029  -46.4402 C.3       13 UNK         0.1400 
     76 CB         -1.0646  -26.1785  -47.4864 C.3       13 UNK        -0.1800 
     77 C          -3.5264  -25.6823  -47.0924 C.2       13 UNK         0.5000 
     78 O          -3.8605  -26.2217  -48.1469 O.2       13 UNK        -0.5000 
     79 N          -4.2639  -24.7402  -46.4838 N.am      14 UNK        -0.5000 
     80 CA         -5.5755  -24.2335  -46.9002 C.3       14 UNK         0.1400 
     81 CB         -6.6464  -25.3414  -46.8093 C.3       14 UNK        -0.1800 
     82 C          -5.5256  -23.5553  -48.2821 C.2       14 UNK         0.5000 
     83 O          -6.1849  -24.0020  -49.2221 O.2       14 UNK        -0.5000 
     84 N          -4.7061  -22.4995  -48.3757 N.am      15 UNK        -0.5000 
     85 CA         -4.4253  -21.7043  -49.5761 C.3       15 UNK         0.1400 
     86 CB         -5.6803  -20.9376  -50.0442 C.3       15 UNK        -0.1800 
     87 C          -3.7784  -22.5521  -50.6874 C.2       15 UNK         0.5000 
     88 O          -4.2046  -22.4966  -51.8431 O.2       15 UNK        -0.5000 
     89 N          -2.7712  -23.3430  -50.2889 N.am      16 UNK        -0.5000 
     90 CA         -2.0121  -24.2894  -51.1102 C.3       16 UNK         0.1400 
     91 CB         -1.1229  -23.5251  -52.1151 C.3       16 UNK        -0.1800 
     92 C          -2.9276  -25.3348  -51.7824 C.2       16 UNK         0.5000 
     93 O          -2.9174  -25.4699  -53.0058 O.2       16 UNK        -0.5000 
     94 N          -3.7409  -26.0209  -50.9654 N.am      17 UNK        -0.5000 
     95 CA         -4.7770  -26.9845  -51.3546 C.3       17 UNK         0.1400 
     96 CB         -4.1464  -28.2563  -51.9594 C.3       17 UNK        -0.1800 
     97 C          -5.8598  -26.3507  -52.2538 C.2       17 UNK         0.5000 
     98 O          -6.2657  -26.9430  -53.2554 O.2       17 UNK        -0.5000 
     99 N          -6.2846  -25.1366  -51.8761 N.am      18 UNK        -0.5000 
    100 CA        -7.2629  -24.2706  -52.5397 C.3       18 UNK         0.1400 
    101 CB        -8.6635  -24.9172  -52.5223 C.3       18 UNK        -0.1800 
    102 C         -6.8516  -23.7845  -53.9477 C.2       18 UNK         0.5000 
    103 O         -7.7077  -23.2979  -54.6890 O.2       18 UNK        -0.5000 
    104 N         -5.5617  -23.8929  -54.2985 N.am      19 UNK        -0.5000 
    105 CA        -5.0113  -23.3982  -55.5620 C.3       19 UNK         0.1400 
    106 CB        -3.6588  -24.0736  -55.8325 C.3       19 UNK        -0.1800 
    107 C         -4.8487  -21.8677  -55.5745 C.2       19 UNK         0.5000 
    108 O         -4.9157  -21.2645  -56.6458 O.2       19 UNK        -0.5000 
    109 N         -4.6201  -21.2777  -54.3904 N.am      20 UNK        -0.5000 
    110 CA        -4.4058  -19.8505  -54.1273 C.3       20 UNK         0.1400 
    111 CB        -5.6719  -19.0310  -54.4468 C.3       20 UNK        -0.1800 
    112 C         -3.1336  -19.2704  -54.7838 C.2       20 UNK         0.5000 
    113 O         -3.0191  -18.0517  -54.9303 O.2       20 UNK        -0.5000 
    114 N         -2.1729  -20.1461  -55.1194 N.am      21 UNK        -0.5000 
    115 CA        -0.8763  -19.8198  -55.7286 C.3       21 UNK         0.1400 
    116 CB        -0.1525  -21.1313  -56.0703 C.3       21 UNK        -0.1800 
    117 C          0.0177  -18.9195  -54.8497 C.2       21 UNK         0.5000 
    118 O          0.9106  -18.2458  -55.3645 O.2       21 UNK        -0.5000 
    119 N         -0.2677  -18.9174  -53.5449 N.am      22 UNK        -0.5000 
    120 CA         0.2352  -17.9965  -52.5210 C.3       22 UNK         0.1400 
    121 C         -0.0853  -16.4920  -52.7539 C.2       22 UNK         0.5000 
    122 N         -1.1126  -16.1261  -53.5112 N.am      22 UNK        -0.7600 
    123 O          0.6274  -15.6405  -52.2328 O.2       22 UNK        -0.5000 
    124 C124       -0.2000  -18.4419  -51.0920 C.3       23 UNK        -0.0398 
    125 S125       -1.8047  -19.3290  -50.9893 S.3       23 UNK        -0.2404 
    126 C126       -3.0310  -17.9804  -50.9855 C.3       23 UNK        -0.0205 
    127 H127       -3.0807  -10.3342  -52.2979 H         1 UNK         0.0600 
    128 H128       -4.0348  -11.8012  -52.5326 H         1 UNK         0.0600 
    129 H129       -3.1012  -11.1304  -53.8743 H         1 UNK         0.0600 
    130 H130       -1.1640  -10.6971  -51.2283 H         1 UNK         0.3000 
    131 H131        0.6248  -12.8122  -51.9163 H         1 UNK         0.0600 
    132 H132       -0.6996  -14.2280  -50.4722 H         1 UNK         0.0800 
    133 H133        0.8176  -13.9164  -49.7089 H         1 UNK         0.0800 
    134 H134       -3.0209  -13.0926  -49.7473 H         1 UNK         0.0800 
    135 H135       -3.3300  -12.9688  -48.0367 H         1 UNK         0.0800 
    136 H136       -2.7733  -15.2753  -50.7918 H         1 UNK         0.1150 
    137 H137       -3.2081  -18.7971  -48.3897 H         1 UNK         0.1150 
    138 H138       -2.8814  -14.9575  -46.5153 H         1 UNK         0.1150 
    139 H139       -3.5582  -16.9363  -45.2060 H         1 UNK         0.0800 
    140 H140       -3.8724  -18.4520  -46.0160 H         1 UNK         0.0800 
    141 H141       -2.9223  -19.4830  -43.9142 H         1 UNK         0.0800 
    142 H142       -1.2293  -19.8235  -43.6677 H         1 UNK         0.0800 
    143 H143       -2.9118  -20.7744  -46.0386 H         1 UNK         0.0600 
    144 H144       -0.0383  -20.8615  -45.7191 H         1 UNK         0.3000 
    145 H145        0.5172  -23.2553  -48.2796 H         1 UNK         0.0600 
    146 H146        0.8637  -20.2153  -48.3934 H         1 UNK         0.0600 
    147 H147        1.8202  -21.3928  -49.2977 H         1 UNK         0.0600 
    148 H148        0.1012  -21.2308  -49.6144 H         1 UNK         0.0600 
    149 H149        2.2598  -21.5507  -46.7605 H         1 UNK         0.3000 
    150 H150        2.6391  -23.7834  -43.9928 H         1 UNK         0.0600 
    151 H151        4.1179  -24.6835  -45.7996 H         1 UNK         0.0600 
    152 H152        5.0062  -23.6555  -44.6874 H         1 UNK         0.0600 
    153 H153        4.5449  -23.0446  -46.2767 H         1 UNK         0.0600 
    154 H154        3.9876  -21.3917  -44.4572 H         1 UNK         0.3000 
    155 H155        3.6590  -19.6499  -43.1720 H         1 UNK         0.0600 
    156 H156        2.2703  -18.6660  -45.0155 H         1 UNK         0.0600 
    157 H157        2.3380  -17.6113  -43.6104 H         1 UNK         0.0600 
    158 H158        0.8971  -18.5711  -43.9202 H         1 UNK         0.0600 
    159 H159        1.2960  -19.0461  -41.5789 H         1 UNK         0.3000 
    160 H160        1.4034  -20.8674  -39.1987 H         1 UNK         0.0600 
    161 H161        2.6428  -20.0042  -37.1957 H         1 UNK         0.0600 
    162 H162        3.8925  -19.3533  -38.2557 H         1 UNK         0.0600 
    163 H163        3.6221  -21.0874  -38.1683 H         1 UNK         0.0600 
    164 H164        0.2779  -18.9908  -39.0557 H         1 UNK         0.3000 
    165 H165       -0.3375  -16.9653  -38.7338 H         1 UNK         0.0600 
    166 H166        1.8105  -14.7877  -38.5652 H         1 UNK         0.0600 
    167 H167        0.1396  -14.6627  -38.0155 H         1 UNK         0.0600 
    168 H168        1.2499  -15.7593  -37.2096 H         1 UNK         0.0600 
    169 H169        0.2659  -14.8957  -40.4983 H         1 UNK         0.3000 
    170 H170       -0.2357  -16.1976  -43.6297 H         1 UNK         0.0600 
    171 H171       -2.6087  -15.0988  -42.0248 H         1 UNK         0.0600 
    172 H172       -2.4489  -15.0970  -43.7824 H         1 UNK         0.0600 
    173 H173       -2.5994  -16.6161  -42.9127 H         1 UNK         0.0600 
    174 H174       -0.7282  -13.6172  -42.3640 H         1 UNK         0.3000 
    175 H175        0.6324  -11.9226  -42.7466 H         1 UNK         0.0600 
    176 H176        3.3006  -12.9111  -41.5976 H         1 UNK         0.0600 
    177 H177        2.6303  -11.2910  -41.4050 H         1 UNK         0.0600 
    178 H178        1.8178  -12.6704  -40.6826 H         1 UNK         0.0600 
    179 H179        3.3098  -12.0239  -43.8834 H         1 UNK         0.3000 
    180 H180        3.4930  -10.6916  -45.8755 H         1 UNK         0.0600 
    181 H181        2.7357  -13.3218  -47.2890 H         1 UNK         0.0600 
    182 H182        4.0125  -13.1434  -46.0905 H         1 UNK         0.0600 
    183 H183        4.1593  -12.3476  -47.6499 H         1 UNK         0.0600 
    184 H184        1.0563  -11.0080  -47.4647 H         1 UNK         0.3000 
    185 H185        0.8033   -8.5580  -48.6938 H         1 UNK         0.0600 
    186 H186        2.9853   -8.8573  -50.8237 H         1 UNK         0.0600 
    187 H187        1.4913   -7.9423  -51.0204 H         1 UNK         0.0600 
    188 H188        2.6787   -7.4420  -49.8282 H         1 UNK         0.0600 
    189 H189       -0.2593  -10.2407  -49.6397 H         1 UNK         0.3000 
    190 H190       -0.6182  -22.4750  -43.8776 H         1 UNK         0.3000 
    191 H191       -2.5101  -23.9829  -42.3951 H         1 UNK         0.0600 
    192 H192        0.3814  -24.6606  -43.1585 H         1 UNK         0.0600 
    193 H193       -0.1182  -23.7230  -41.7530 H         1 UNK         0.0600 
    194 H194       -0.5459  -25.4239  -41.8735 H         1 UNK         0.0600 
    195 H195       -1.0566  -24.5386  -45.5836 H         1 UNK         0.3000 
    196 H196       -2.3391  -27.1074  -46.0394 H         1 UNK         0.0600 
    197 H197       -0.1303  -26.5139  -47.0360 H         1 UNK         0.0600 
    198 H198       -0.8839  -25.2092  -47.9494 H         1 UNK         0.0600 
    199 H199       -1.3072  -26.8836  -48.2824 H         1 UNK         0.0600 
    200 H200       -3.8872  -24.3102  -45.6479 H         1 UNK         0.3000 
    201 H201       -5.8487  -23.4578  -46.1833 H         1 UNK         0.0600 
    202 H202       -7.6375  -24.9411  -47.0253 H         1 UNK         0.0600 
    203 H203       -6.6812  -25.7735  -45.8093 H         1 UNK         0.0600 
    204 H204       -6.4620  -26.1498  -47.5174 H         1 UNK         0.0600 
    205 H205       -4.1215  -22.2909  -47.5775 H         1 UNK         0.3000 
    206 H206       -3.6774  -20.9668  -49.2853 H         1 UNK         0.0600 
    207 H207       -6.4806  -21.6107  -50.3508 H         1 UNK         0.0600 
    208 H208       -5.4546  -20.2987  -50.8975 H         1 UNK         0.0600 
    209 H209       -6.0662  -20.2962  -49.2521 H         1 UNK         0.0600 
    210 H210       -2.5015  -23.2848  -49.3105 H         1 UNK         0.3000 
    211 H211       -1.3551  -24.8377  -50.4339 H         1 UNK         0.0600 
    212 H212       -0.4682  -22.8194  -51.6038 H         1 UNK         0.0600 
    213 H213       -0.4873  -24.2120  -52.6747 H         1 UNK         0.0600 
    214 H214       -1.7149  -22.9646  -52.8393 H         1 UNK         0.0600 
    215 H215       -3.6904  -25.8516  -49.9629 H         1 UNK         0.3000 
    216 H216       -5.2819  -27.2753  -50.4322 H         1 UNK         0.0600 
    217 H217       -4.9031  -29.0226  -52.1307 H         1 UNK         0.0600 
    218 H218       -3.6629  -28.0558  -52.9159 H         1 UNK         0.0600 
    219 H219       -3.4003  -28.6821  -51.2885 H         1 UNK         0.0600 
    220 H220       -5.9172  -24.7551  -51.0083 H         1 UNK         0.3000 
    221 H221       -7.3136  -23.3708  -51.9257 H         1 UNK         0.0600 
    222 H222       -8.7143  -25.7916  -53.1715 H         1 UNK         0.0600 
    223 H223       -8.9401  -25.2292  -51.5151 H         1 UNK         0.0600 
    224 H224       -9.4252  -24.2145  -52.8617 H         1 UNK         0.0600 
    225 H225       -4.9066  -24.2877  -53.6351 H         1 UNK         0.3000 
    226 H226       -5.6936  -23.6713  -56.3697 H         1 UNK         0.0600 
    227 H227       -3.7503  -25.1600  -55.8247 H         1 UNK         0.0600 
    228 H228       -3.2678  -23.7859  -56.8092 H         1 UNK         0.0600 
    229 H229       -2.9130  -23.7944  -55.0875 H         1 UNK         0.0600 
    230 H230       -4.5625  -21.8729  -53.5651 H         1 UNK         0.3000 
    231 H231       -4.2374  -19.7804  -53.0532 H         1 UNK         0.0600 
    232 H232       -5.5705  -18.0022  -54.0995 H         1 UNK         0.0600 
    233 H233       -6.5480  -19.4530  -53.9542 H         1 UNK         0.0600 
    234 H234       -5.8723  -18.9956  -55.5178 H         1 UNK         0.0600 
    235 H235       -2.3560  -21.1241  -54.9529 H         1 UNK         0.3000 
    236 H236       -1.0716  -19.2789  -56.6566 H         1 UNK         0.0600 
    237 H237       -0.7417  -21.7407  -56.7560 H         1 UNK         0.0600 
    238 H238        0.8058  -20.9352  -56.5531 H         1 UNK         0.0600 
    239 H239        0.0450  -21.7256  -55.1770 H         1 UNK         0.0600 
    240 H240       -1.0154  -19.5185  -53.2310 H         1 UNK         0.3000 
    241 H241        1.3239  -18.0636  -52.5645 H         1 UNK         0.0600 
    242 H242       -1.3237  -15.1361  -53.5783 H         1 UNK         0.3800 
    243 H243       -1.7024  -16.8044  -53.9793 H         1 UNK         0.3800 
    244 H244        0.5546  -19.1316  -50.7166 H         1 UNK         0.0800 
    245 H245       -0.1961  -17.6152  -50.3783 H         1 UNK         0.0800 
    246 H246       -4.0279  -18.4130  -51.0599 H         1 UNK         0.0800 
    247 H247       -2.9018  -17.3701  -51.8788 H         1 UNK         0.0800 
@<TRIPOS>BOND
     1    1    2 1    
     2    1  127 1    
     3    1  128 1    
     4    1  129 1    
     5    2    3 2    
     6    2    4 am   BACKBONE|DICT|INTERRES
     7    4    5 1    
     8    4  130 1    
     9    5    6 1    
    10    5   65 1    
    11    5  131 1    
    12    6    7 1    
    13    6  132 1    
    14    6  133 1    
    15    7    8 1    
    16    8    9 1    
    17    8  134 1    
    18    8  135 1    
    19    9   10 ar   
    20    9   14 ar   
    21   10   11 ar   
    22   10  136 1    
    23   11   12 ar   
    24   11  126 1    
    25   12   13 ar   
    26   12  137 1    
    27   13   14 ar   
    28   13   15 1    
    29   14  138 1    
    30   15   16 1    
    31   15  139 1    
    32   15  140 1    
    33   16   17 1    
    34   17   18 1    
    35   17  141 1    
    36   17  142 1    
    37   18   19 1    
    38   18   67 1    
    39   18  143 1    
    40   19   20 am   BACKBONE|DICT|INTERRES
    41   19  144 1    
    42   20   21 2    
    43   20   22 1    
    44   22   23 1    
    45   22   24 1    
    46   22  145 1    
    47   23  146 1    
    48   23  147 1    
    49   23  148 1    
    50   24   25 am   BACKBONE|DICT|INTERRES
    51   24  149 1    
    52   25   26 2    
    53   25   27 1    
    54   27   28 1    
    55   27   29 1    
    56   27  150 1    
    57   28  151 1    
    58   28  152 1    
    59   28  153 1    
    60   29   30 am   BACKBONE|DICT|INTERRES
    61   29  154 1    
    62   30   31 2    
    63   30   32 1    
    64   32   33 1    
    65   32   34 1    
    66   32  155 1    
    67   33  156 1    
    68   33  157 1    
    69   33  158 1    
    70   34   35 am   BACKBONE|DICT|INTERRES
    71   34  159 1    
    72   35   36 2    
    73   35   37 1    
    74   37   38 1    
    75   37   39 1    
    76   37  160 1    
    77   38  161 1    
    78   38  162 1    
    79   38  163 1    
    80   39   40 am   BACKBONE|DICT|INTERRES
    81   39  164 1    
    82   40   41 2    
    83   40   42 1    
    84   42   43 1    
    85   42   44 1    
    86   42  165 1    
    87   43  166 1    
    88   43  167 1    
    89   43  168 1    
    90   44   45 am   BACKBONE|DICT|INTERRES
    91   44  169 1    
    92   45   46 2    
    93   45   47 1    
    94   47   48 1    
    95   47   49 1    
    96   47  170 1    
    97   48  171 1    
    98   48  172 1    
    99   48  173 1    
   100   49   50 am   BACKBONE|DICT|INTERRES
   101   49  174 1    
   102   50   51 2    
   103   50   52 1    
   104   52   53 1    
   105   52   54 1    
   106   52  175 1    
   107   53  176 1    
   108   53  177 1    
   109   53  178 1    
   110   54   55 am   BACKBONE|DICT|INTERRES
   111   54  179 1    
   112   55   56 2    
   113   55   57 1    
   114   57   58 1    
   115   57   59 1    
   116   57  180 1    
   117   58  181 1    
   118   58  182 1    
   119   58  183 1    
   120   59   60 am   BACKBONE|DICT|INTERRES
   121   59  184 1    
   122   60   61 2    
   123   60   62 1    
   124   62   63 1    
   125   62   64 1    
   126   62  185 1    
   127   63  186 1    
   128   63  187 1    
   129   63  188 1    
   130   64   65 am   BACKBONE|DICT|INTERRES
   131   64  189 1    
   132   65   66 2    
   133   67   68 2    
   134   67   69 am   BACKBONE|DICT|INTERRES
   135   69   70 1    
   136   69  190 1    
   137   70   71 1    
   138   70   72 1    
   139   70  191 1    
   140   71  192 1    
   141   71  193 1    
   142   71  194 1    
   143   72   73 2    
   144   72   74 am   BACKBONE|DICT|INTERRES
   145   74   75 1    
   146   74  195 1    
   147   75   76 1    
   148   75   77 1    
   149   75  196 1    
   150   76  197 1    
   151   76  198 1    
   152   76  199 1    
   153   77   78 2    
   154   77   79 am   BACKBONE|DICT|INTERRES
   155   79   80 1    
   156   79  200 1    
   157   80   81 1    
   158   80   82 1    
   159   80  201 1    
   160   81  202 1    
   161   81  203 1    
   162   81  204 1    
   163   82   83 2    
   164   82   84 am   BACKBONE|DICT|INTERRES
   165   84   85 1    
   166   84  205 1    
   167   85   86 1    
   168   85   87 1    
   169   85  206 1    
   170   86  207 1    
   171   86  208 1    
   172   86  209 1    
   173   87   88 2    
   174   87   89 am   BACKBONE|DICT|INTERRES
   175   89   90 1    
   176   89  210 1    
   177   90   91 1    
   178   90   92 1    
   179   90  211 1    
   180   91  212 1    
   181   91  213 1    
   182   91  214 1    
   183   92   93 2    
   184   92   94 am   BACKBONE|DICT|INTERRES
   185   94   95 1    
   186   94  215 1    
   187   95   96 1    
   188   95   97 1    
   189   95  216 1    
   190   96  217 1    
   191   96  218 1    
   192   96  219 1    
   193   97   98 2    
   194   97   99 am   BACKBONE|DICT|INTERRES
   195   99  100 1    
   196   99  220 1    
   197  100  101 1    
   198  100  102 1    
   199  100  221 1    
   200  101  222 1    
   201  101  223 1    
   202  101  224 1    
   203  102  103 2    
   204  102  104 am   BACKBONE|DICT|INTERRES
   205  104  105 1    
   206  104  225 1    
   207  105  106 1    
   208  105  107 1    
   209  105  226 1    
   210  106  227 1    
   211  106  228 1    
   212  106  229 1    
   213  107  108 2    
   214  107  109 am   BACKBONE|DICT|INTERRES
   215  109  110 1    
   216  109  230 1    
   217  110  111 1    
   218  110  112 1    
   219  110  231 1    
   220  111  232 1    
   221  111  233 1    
   222  111  234 1    
   223  112  113 2    
   224  112  114 am   BACKBONE|DICT|INTERRES
   225  114  115 1    
   226  114  235 1    
   227  115  116 1    
   228  115  117 1    
   229  115  236 1    
   230  116  237 1    
   231  116  238 1    
   232  116  239 1    
   233  117  118 2    
   234  117  119 am   BACKBONE|DICT|INTERRES
   235  119  120 1    
   236  119  240 1    
   237  120  121 1    
   238  120  124 1    
   239  120  241 1    
   240  121  122 am   BACKBONE|DICT|INTERRES
   241  121  123 2    
   242  122  242 1    
   243  122  243 1    
   244  124  125 1    
   245  124  244 1    
   246  124  245 1    
   247  125  126 1    
   248  126  246 1    
   249  126  247 1    
@<TRIPOS>SUBSTRUCTURE
     1 UNK         1 GROUP             0       ****    0 ROOT    
