@<TRIPOS>MOLECULE
3R540
247   249    1
SMALL
USER_CHARGES


@<TRIPOS>ATOM
      1 CA         -0.7726  -17.9113  -46.3459 C.3       0 UNK        -0.1800 
      2 C          -1.9442  -17.0917  -46.8684 C.2       0 UNK         0.5000 
      3 O          -3.0952  -17.3950  -46.5582 O.2       0 UNK        -0.5000 
      4 N          -1.6499  -16.0533  -47.6601 N.am      1 UNK        -0.5000 
      5 CA         -2.6365  -15.1893  -48.3274 C.3       1 UNK         0.1400 
      6 C6         -2.0439  -14.5189  -49.5926 C.3       23 UNK        -0.0398 
      7 S7         -1.5126  -15.7552  -50.8234 S.3       23 UNK        -0.2404 
      8 C8          0.3002  -15.7007  -50.6651 C.3       23 UNK        -0.0205 
      9 C9          0.9315  -17.0417  -51.0127 C.ar      23 UNK        -0.0193 
     10 C10         0.8838  -17.5230  -52.3241 C.ar      23 UNK        -0.1150 
     11 C11         1.4639  -18.7499  -52.6541 C.ar      23 UNK        -0.0193 
     12 C12         2.1297  -19.4811  -51.6675 C.ar      23 UNK        -0.1150 
     13 C13         2.1880  -19.0137  -50.3508 C.ar      23 UNK        -0.0193 
     14 C14         1.5786  -17.7966  -50.0283 C.ar      23 UNK        -0.1150 
     15 C15         2.9418  -19.8025  -49.2871 C.3       23 UNK        -0.0205 
     16 S16         2.3630  -21.5236  -49.1330 S.3       23 UNK        -0.2404 
     17 C17         0.6963  -21.2920  -48.4328 C.3       23 UNK        -0.0398 
     18 CA          0.2387  -22.5296  -47.6236 C.3       11 UNK         0.1400 
     19 N           1.1462  -22.8273  -46.5106 N.am      11 UNK        -0.5000 
     20 C           1.0328  -23.8358  -45.6339 C.2       10 UNK         0.5000 
     21 O           0.1231  -24.6644  -45.6634 O.2       10 UNK        -0.5000 
     22 CA          2.0948  -23.9159  -44.5192 C.3       10 UNK         0.1400 
     23 CB          3.0909  -25.0477  -44.8112 C.3       10 UNK        -0.1800 
     24 N           2.8340  -22.6627  -44.3350 N.am      10 UNK        -0.5000 
     25 C           2.3153  -21.5376  -43.8256 C.2       9 UNK         0.5000 
     26 O           1.1578  -21.4379  -43.4129 O.2       9 UNK        -0.5000 
     27 CA          3.2210  -20.2972  -43.8703 C.3       9 UNK         0.1400 
     28 CB          2.7159  -19.3147  -44.9407 C.3       9 UNK        -0.1800 
     29 N           3.2873  -19.6163  -42.5802 N.am      9 UNK        -0.5000 
     30 C           3.9419  -20.0781  -41.5068 C.2       8 UNK         0.5000 
     31 O           4.5293  -21.1609  -41.4864 O.2       8 UNK        -0.5000 
     32 CA          3.9809  -19.1839  -40.2557 C.3       8 UNK         0.1400 
     33 CB          5.1115  -18.1486  -40.3702 C.3       8 UNK        -0.1800 
     34 N           2.7167  -18.4841  -40.0207 N.am      8 UNK        -0.5000 
     35 C           2.0552  -18.4763  -38.8536 C.2       7 UNK         0.5000 
     36 O           2.4383  -19.0782  -37.8491 O.2       7 UNK        -0.5000 
     37 CA          0.7501  -17.6543  -38.7691 C.3       7 UNK         0.1400 
     38 CB          1.0108  -16.3078  -38.0759 C.3       7 UNK        -0.1800 
     39 N           0.1258  -17.3954  -40.0645 N.am      7 UNK        -0.5000 
     40 C          -0.3867  -18.3265  -40.8783 C.2       6 UNK         0.5000 
     41 O          -0.4950  -19.5139  -40.5729 O.2       6 UNK        -0.5000 
     42 CA         -0.8263  -17.8600  -42.2794 C.3       6 UNK         0.1400 
     43 CB         -2.3521  -17.6960  -42.3290 C.3       6 UNK        -0.1800 
     44 N          -0.2060  -16.6115  -42.7390 N.am      6 UNK        -0.5000 
     45 C           1.1070  -16.3847  -42.8900 C.2       5 UNK         0.5000 
     46 O           1.9816  -17.1912  -42.5795 O.2       5 UNK        -0.5000 
     47 CA          1.5085  -15.0067  -43.4330 C.3       5 UNK         0.1400 
     48 CB          1.2277  -14.9049  -44.9416 C.3       5 UNK        -0.1800 
     49 N           0.8011  -13.9477  -42.7167 N.am      5 UNK        -0.5000 
     50 C           1.1700  -13.4767  -41.5167 C.2       4 UNK         0.5000 
     51 O           2.1938  -13.8272  -40.9297 O.2       4 UNK        -0.5000 
     52 CA          0.2316  -12.4531  -40.8489 C.3       4 UNK         0.1400 
     53 CB          0.6339  -11.0220  -41.2361 C.3       4 UNK        -0.1800 
     54 N          -1.1778  -12.6607  -41.1844 N.am      4 UNK        -0.5000 
     55 C          -1.9097  -13.7124  -40.7907 C.2       3 UNK         0.5000 
     56 O          -1.4830  -14.6135  -40.0688 O.2       3 UNK        -0.5000 
     57 CA         -3.3498  -13.7879  -41.3356 C.3       3 UNK         0.1400 
     58 CB         -4.3140  -13.0326  -40.4089 C.3       3 UNK        -0.1800 
     59 N          -3.4973  -13.2800  -42.7052 N.am      3 UNK        -0.5000 
     60 C          -2.8410  -13.7498  -43.7740 C.2       2 UNK         0.5000 
     61 O          -1.9866  -14.6389  -43.7177 O.2       2 UNK        -0.5000 
     62 CA         -3.1538  -13.0890  -45.1214 C.3       2 UNK         0.1400 
     63 CB         -2.4376  -11.7337  -45.2479 C.3       2 UNK        -0.1800 
     64 N          -2.6949  -13.9801  -46.1793 N.am      2 UNK        -0.5000 
     65 C          -3.2511  -14.1284  -47.3854 C.2       1 UNK         0.5000 
     66 O          -4.2143  -13.4644  -47.7717 O.2       1 UNK        -0.5000 
     67 C          -1.2259  -22.3679  -47.1709 C.2       11 UNK         0.5000 
     68 O          -2.1244  -22.8349  -47.8677 O.2       11 UNK        -0.5000 
     69 N          -1.4374  -21.7725  -45.9880 N.am      12 UNK        -0.5000 
     70 CA         -2.7573  -21.5960  -45.3819 C.3       12 UNK         0.1400 
     71 CB         -2.6354  -20.6522  -44.1789 C.3       12 UNK        -0.1800 
     72 C          -3.4190  -22.9242  -44.9668 C.2       12 UNK         0.5000 
     73 O          -4.6357  -23.0585  -45.0964 O.2       12 UNK        -0.5000 
     74 N          -2.6102  -23.8873  -44.5027 N.am      13 UNK        -0.5000 
     75 CA         -3.0546  -25.2356  -44.1440 C.3       13 UNK         0.1400 
     76 CB         -2.0323  -25.8771  -43.1929 C.3       13 UNK        -0.1800 
     77 C          -3.2741  -26.1137  -45.3889 C.2       13 UNK         0.5000 
     78 O          -4.2124  -26.9105  -45.4158 O.2       13 UNK        -0.5000 
     79 N          -2.4211  -25.9306  -46.4062 N.am      14 UNK        -0.5000 
     80 CA         -2.5046  -26.5963  -47.7084 C.3       14 UNK         0.1400 
     81 CB         -1.1587  -26.4275  -48.4308 C.3       14 UNK        -0.1800 
     82 C          -3.6547  -26.0780  -48.5982 C.2       14 UNK         0.5000 
     83 O          -4.0010  -26.7437  -49.5746 O.2       14 UNK        -0.5000 
     84 N          -4.2027  -24.9020  -48.2572 N.am      15 UNK        -0.5000 
     85 CA         -5.2059  -24.1269  -48.9944 C.3       15 UNK         0.1400 
     86 CB         -6.5415  -24.8922  -49.1032 C.3       15 UNK        -0.1800 
     87 C          -4.6744  -23.6172  -50.3517 C.2       15 UNK         0.5000 
     88 O          -5.4125  -23.5814  -51.3376 O.2       15 UNK        -0.5000 
     89 N          -3.3963  -23.2246  -50.3657 N.am      16 UNK        -0.5000 
     90 CA         -2.7081  -22.5963  -51.4863 C.3       16 UNK         0.1400 
     91 CB         -1.2853  -23.1708  -51.5629 C.3       16 UNK        -0.1800 
     92 C          -2.6812  -21.0764  -51.2570 C.2       16 UNK         0.5000 
     93 O          -2.5343  -20.6324  -50.1160 O.2       16 UNK        -0.5000 
     94 N          -2.8196  -20.3032  -52.3362 N.am      17 UNK        -0.5000 
     95 CA         -2.8492  -18.8462  -52.3212 C.3       17 UNK         0.1400 
     96 CB         -4.1963  -18.3417  -51.7662 C.3       17 UNK        -0.1800 
     97 C          -2.6236  -18.3152  -53.7417 C.2       17 UNK         0.5000 
     98 O          -2.8264  -19.0448  -54.7165 O.2       17 UNK        -0.5000 
     99 N          -2.2441  -17.0346  -53.8293 N.am      18 UNK        -0.5000 
    100 CA        -1.9559  -16.3125  -55.0717 C.3       18 UNK         0.1400 
    101 CB        -1.3889  -14.9283  -54.7199 C.3       18 UNK        -0.1800 
    102 C         -3.1674  -16.1707  -56.0143 C.2       18 UNK         0.5000 
    103 O         -2.9809  -15.9936  -57.2192 O.2       18 UNK        -0.5000 
    104 N         -4.3843  -16.2796  -55.4638 N.am      19 UNK        -0.5000 
    105 CA        -5.6599  -16.2998  -56.1796 C.3       19 UNK         0.1400 
    106 CB        -6.7832  -15.9555  -55.1851 C.3       19 UNK        -0.1800 
    107 C         -5.8920  -17.6487  -56.8969 C.2       19 UNK         0.5000 
    108 O         -6.8409  -18.3667  -56.5800 O.2       19 UNK        -0.5000 
    109 N         -4.9873  -17.9797  -57.8277 N.am      20 UNK        -0.5000 
    110 CA        -4.9394  -19.1468  -58.7196 C.3       20 UNK         0.1400 
    111 CB        -6.1842  -19.1937  -59.6268 C.3       20 UNK        -0.1800 
    112 C         -4.6994  -20.5138  -58.0432 C.2       20 UNK         0.5000 
    113 O         -4.3127  -21.4543  -58.7383 O.2       20 UNK        -0.5000 
    114 N         -4.9025  -20.6218  -56.7243 N.am      21 UNK        -0.5000 
    115 CA        -4.7897  -21.8597  -55.9474 C.3       21 UNK         0.1400 
    116 CB        -5.3318  -21.6184  -54.5315 C.3       21 UNK        -0.1800 
    117 C         -3.3735  -22.4730  -55.9235 C.2       21 UNK         0.5000 
    118 O         -3.2513  -23.6945  -55.8276 O.2       21 UNK        -0.5000 
    119 N         -2.3380  -21.6338  -56.0555 N.am      22 UNK        -0.5000 
    120 CA        -0.9460  -22.0543  -56.3043 C.3       22 UNK         0.1400 
    121 C         -0.6766  -22.5975  -57.7421 C.2       22 UNK         0.5000 
    122 N         -1.6066  -22.5261  -58.6873 N.am      22 UNK        -0.7600 
    123 O          0.4075  -23.1102  -58.0068 O.2       22 UNK        -0.5000 
    124 C124        0.0714  -20.9404  -55.9424 C.3       23 UNK        -0.0398 
    125 S125        0.1209  -20.6162  -54.1540 S.3       23 UNK        -0.2404 
    126 C126        1.3624  -19.2932  -54.0698 C.3       23 UNK        -0.0205 
    127 H127        0.1754  -17.5922  -46.7792 H         1 UNK         0.0600 
    128 H128       -0.9189  -18.9634  -46.5870 H         1 UNK         0.0600 
    129 H129       -0.7025  -17.8141  -45.2644 H         1 UNK         0.0600 
    130 H130       -0.6851  -15.8566  -47.8779 H         1 UNK         0.3000 
    131 H131       -3.4672  -15.8203  -48.6520 H         1 UNK         0.0600 
    132 H132       -1.2136  -13.8588  -49.3363 H         1 UNK         0.0800 
    133 H133       -2.7920  -13.8882  -50.0765 H         1 UNK         0.0800 
    134 H134        0.5787  -15.4079  -49.6523 H         1 UNK         0.0800 
    135 H135        0.6945  -14.9285  -51.3271 H         1 UNK         0.0800 
    136 H136        0.3854  -16.9449  -53.0870 H         1 UNK         0.1150 
    137 H137        2.5911  -20.4248  -51.9228 H         1 UNK         0.1150 
    138 H138        1.6256  -17.4272  -49.0138 H         1 UNK         0.1150 
    139 H139        2.8771  -19.3109  -48.3158 H         1 UNK         0.0800 
    140 H140        3.9998  -19.8147  -49.5521 H         1 UNK         0.0800 
    141 H141        0.6917  -20.4004  -47.8041 H         1 UNK         0.0800 
    142 H142        0.0128  -21.0882  -49.2588 H         1 UNK         0.0800 
    143 H143        0.2687  -23.3933  -48.2899 H         1 UNK         0.0600 
    144 H144        1.9485  -22.2224  -46.4260 H         1 UNK         0.3000 
    145 H145        1.5735  -24.1480  -43.5881 H         1 UNK         0.0600 
    146 H146        2.5751  -26.0024  -44.9245 H         1 UNK         0.0600 
    147 H147        3.8076  -25.1623  -43.9978 H         1 UNK         0.0600 
    148 H148        3.6498  -24.8658  -45.7301 H         1 UNK         0.0600 
    149 H149        3.7947  -22.6619  -44.6471 H         1 UNK         0.3000 
    150 H150        4.2338  -20.6016  -44.1431 H         1 UNK         0.0600 
    151 H151        1.7020  -18.9735  -44.7278 H         1 UNK         0.0600 
    152 H152        2.7036  -19.7825  -45.9252 H         1 UNK         0.0600 
    153 H153        3.3573  -18.4355  -45.0055 H         1 UNK         0.0600 
    154 H154        2.8171  -18.7146  -42.5338 H         1 UNK         0.3000 
    155 H155        4.2125  -19.8411  -39.4150 H         1 UNK         0.0600 
    156 H156        5.2109  -17.5726  -39.4500 H         1 UNK         0.0600 
    157 H157        4.9322  -17.4472  -41.1862 H         1 UNK         0.0600 
    158 H158        6.0707  -18.6336  -40.5558 H         1 UNK         0.0600 
    159 H159        2.3287  -17.9721  -40.8062 H         1 UNK         0.3000 
    160 H160        0.0425  -18.2228  -38.1624 H         1 UNK         0.0600 
    161 H161        0.0844  -15.7503  -37.9356 H         1 UNK         0.0600 
    162 H162        1.6924  -15.6839  -38.6559 H         1 UNK         0.0600 
    163 H163        1.4546  -16.4527  -37.0902 H         1 UNK         0.0600 
    164 H164        0.1147  -16.4343  -40.3779 H         1 UNK         0.3000 
    165 H165       -0.5365  -18.6459  -42.9793 H         1 UNK         0.0600 
    166 H166       -2.6923  -17.4326  -43.3310 H         1 UNK         0.0600 
    167 H167       -2.8564  -18.6198  -42.0437 H         1 UNK         0.0600 
    168 H168       -2.6878  -16.9185  -41.6442 H         1 UNK         0.0600 
    169 H169       -0.8522  -15.8766  -43.0193 H         1 UNK         0.3000 
    170 H170        2.5838  -14.8847  -43.2847 H         1 UNK         0.0600 
    171 H171        1.5422  -13.9382  -45.3349 H         1 UNK         0.0600 
    172 H172        0.1708  -15.0310  -45.1732 H         1 UNK         0.0600 
    173 H173        1.7752  -15.6727  -45.4898 H         1 UNK         0.0600 
    174 H174       -0.0891  -13.6599  -43.0987 H         1 UNK         0.3000 
    175 H175        0.3422  -12.5597  -39.7676 H         1 UNK         0.0600 
    176 H176        1.6755  -10.8260  -40.9781 H         1 UNK         0.0600 
    177 H177        0.5224  -10.8477  -42.3071 H         1 UNK         0.0600 
    178 H178        0.0263  -10.2853  -40.7102 H         1 UNK         0.0600 
    179 H179       -1.6130  -11.9685  -41.7759 H         1 UNK         0.3000 
    180 H180       -3.6446  -14.8380  -41.3424 H         1 UNK         0.0600 
    181 H181       -4.0980  -11.9637  -40.3869 H         1 UNK         0.0600 
    182 H182       -4.2428  -13.4032  -39.3853 H         1 UNK         0.0600 
    183 H183       -5.3489  -13.1603  -40.7270 H         1 UNK         0.0600 
    184 H184       -4.1711  -12.5389  -42.8347 H         1 UNK         0.3000 
    185 H185       -4.2344  -12.9487  -45.1932 H         1 UNK         0.0600 
    186 H186       -2.7622  -11.0411  -44.4705 H         1 UNK         0.0600 
    187 H187       -1.3554  -11.8417  -45.1633 H         1 UNK         0.0600 
    188 H188       -2.6515  -11.2641  -46.2082 H         1 UNK         0.0600 
    189 H189       -1.9645  -14.6193  -45.8953 H         1 UNK         0.3000 
    190 H190       -0.6426  -21.4642  -45.4458 H         1 UNK         0.3000 
    191 H191       -3.4064  -21.1211  -46.1211 H         1 UNK         0.0600 
    192 H192       -2.2910  -19.6684  -44.4938 H         1 UNK         0.0600 
    193 H193       -3.6003  -20.5143  -43.6894 H         1 UNK         0.0600 
    194 H194       -1.9366  -21.0326  -43.4322 H         1 UNK         0.0600 
    195 H195       -1.6138  -23.7204  -44.4839 H         1 UNK         0.3000 
    196 H196       -4.0066  -25.1617  -43.6137 H         1 UNK         0.0600 
    197 H197       -1.0559  -25.9952  -43.6634 H         1 UNK         0.0600 
    198 H198       -2.3641  -26.8669  -42.8771 H         1 UNK         0.0600 
    199 H199       -1.9004  -25.2764  -42.2930 H         1 UNK         0.0600 
    200 H200       -1.6335  -25.3051  -46.2656 H         1 UNK         0.3000 
    201 H201       -2.6723  -27.6618  -47.5386 H         1 UNK         0.0600 
    202 H202       -1.1469  -26.9819  -49.3700 H         1 UNK         0.0600 
    203 H203       -0.3325  -26.7974  -47.8233 H         1 UNK         0.0600 
    204 H204       -0.9611  -25.3821  -48.6668 H         1 UNK         0.0600 
    205 H205       -3.7850  -24.4214  -47.4716 H         1 UNK         0.3000 
    206 H206       -5.3908  -23.2354  -48.3933 H         1 UNK         0.0600 
    207 H207       -6.8790  -25.2362  -48.1255 H         1 UNK         0.0600 
    208 H208       -7.3246  -24.2512  -49.5095 H         1 UNK         0.0600 
    209 H209       -6.4619  -25.7611  -49.7568 H         1 UNK         0.0600 
    210 H210       -2.9038  -23.1821  -49.4750 H         1 UNK         0.3000 
    211 H211       -3.2240  -22.8157  -52.4232 H         1 UNK         0.0600 
    212 H212       -0.7433  -22.7639  -52.4152 H         1 UNK         0.0600 
    213 H213       -1.3057  -24.2544  -51.6810 H         1 UNK         0.0600 
    214 H214       -0.7081  -22.9450  -50.6663 H         1 UNK         0.0600 
    215 H215       -2.8524  -20.7054  -53.2640 H         1 UNK         0.3000 
    216 H216       -2.0303  -18.4943  -51.6912 H         1 UNK         0.0600 
    217 H217       -4.2418  -17.2521  -51.7673 H         1 UNK         0.0600 
    218 H218       -4.3494  -18.6630  -50.7360 H         1 UNK         0.0600 
    219 H219       -5.0356  -18.7075  -52.3590 H         1 UNK         0.0600 
    220 H220       -2.1124  -16.5127  -52.9721 H         1 UNK         0.3000 
    221 H221       -1.1893  -16.8733  -55.6105 H         1 UNK         0.0600 
    222 H222       -0.4742  -15.0083  -54.1331 H         1 UNK         0.0600 
    223 H223       -1.1446  -14.3644  -55.6211 H         1 UNK         0.0600 
    224 H224       -2.1032  -14.3366  -54.1458 H         1 UNK         0.0600 
    225 H225       -4.4301  -16.4475  -54.4703 H         1 UNK         0.3000 
    226 H226       -5.6441  -15.5228  -56.9467 H         1 UNK         0.0600 
    227 H227       -6.6257  -14.9742  -54.7371 H         1 UNK         0.0600 
    228 H228       -6.8458  -16.6865  -54.3778 H         1 UNK         0.0600 
    229 H229       -7.7532  -15.9309  -55.6834 H         1 UNK         0.0600 
    230 H230       -4.2109  -17.3323  -57.9328 H         1 UNK         0.3000 
    231 H231       -4.0744  -18.9802  -59.3634 H         1 UNK         0.0600 
    232 H232       -7.0945  -19.3887  -59.0592 H         1 UNK         0.0600 
    233 H233       -6.0931  -19.9833  -60.3738 H         1 UNK         0.0600 
    234 H234       -6.3172  -18.2545  -60.1638 H         1 UNK         0.0600 
    235 H235       -5.2447  -19.8054  -56.2355 H         1 UNK         0.3000 
    236 H236       -5.4372  -22.5985  -56.4242 H         1 UNK         0.0600 
    237 H237       -4.8378  -20.7787  -54.0474 H         1 UNK         0.0600 
    238 H238       -6.3993  -21.3992  -54.5562 H         1 UNK         0.0600 
    239 H239       -5.1984  -22.4978  -53.9007 H         1 UNK         0.0600 
    240 H240       -2.5180  -20.6361  -56.0415 H         1 UNK         0.3000 
    241 H241       -0.7434  -22.9006  -55.6449 H         1 UNK         0.0600 
    242 H242       -2.5251  -22.1310  -58.5112 H         1 UNK         0.3800 
    243 H243       -1.3996  -22.8928  -59.6026 H         1 UNK         0.3800 
    244 H244       -0.1698  -20.0162  -56.4700 H         1 UNK         0.0800 
    245 H245        1.0828  -21.2169  -56.2459 H         1 UNK         0.0800 
    246 H246        2.3316  -19.6783  -54.3899 H         1 UNK         0.0800 
    247 H247        1.0935  -18.4976  -54.7665 H         1 UNK         0.0800 
@<TRIPOS>BOND
     1    1    2 1    
     2    1  127 1    
     3    1  128 1    
     4    1  129 1    
     5    2    3 2    
     6    2    4 am   BACKBONE|DICT|INTERRES
     7    4    5 1    
     8    4  130 1    
     9    5    6 1    
    10    5   65 1    
    11    5  131 1    
    12    6    7 1    
    13    6  132 1    
    14    6  133 1    
    15    7    8 1    
    16    8    9 1    
    17    8  134 1    
    18    8  135 1    
    19    9   10 ar   
    20    9   14 ar   
    21   10   11 ar   
    22   10  136 1    
    23   11   12 ar   
    24   11  126 1    
    25   12   13 ar   
    26   12  137 1    
    27   13   14 ar   
    28   13   15 1    
    29   14  138 1    
    30   15   16 1    
    31   15  139 1    
    32   15  140 1    
    33   16   17 1    
    34   17   18 1    
    35   17  141 1    
    36   17  142 1    
    37   18   19 1    
    38   18   67 1    
    39   18  143 1    
    40   19   20 am   BACKBONE|DICT|INTERRES
    41   19  144 1    
    42   20   21 2    
    43   20   22 1    
    44   22   23 1    
    45   22   24 1    
    46   22  145 1    
    47   23  146 1    
    48   23  147 1    
    49   23  148 1    
    50   24   25 am   BACKBONE|DICT|INTERRES
    51   24  149 1    
    52   25   26 2    
    53   25   27 1    
    54   27   28 1    
    55   27   29 1    
    56   27  150 1    
    57   28  151 1    
    58   28  152 1    
    59   28  153 1    
    60   29   30 am   BACKBONE|DICT|INTERRES
    61   29  154 1    
    62   30   31 2    
    63   30   32 1    
    64   32   33 1    
    65   32   34 1    
    66   32  155 1    
    67   33  156 1    
    68   33  157 1    
    69   33  158 1    
    70   34   35 am   BACKBONE|DICT|INTERRES
    71   34  159 1    
    72   35   36 2    
    73   35   37 1    
    74   37   38 1    
    75   37   39 1    
    76   37  160 1    
    77   38  161 1    
    78   38  162 1    
    79   38  163 1    
    80   39   40 am   BACKBONE|DICT|INTERRES
    81   39  164 1    
    82   40   41 2    
    83   40   42 1    
    84   42   43 1    
    85   42   44 1    
    86   42  165 1    
    87   43  166 1    
    88   43  167 1    
    89   43  168 1    
    90   44   45 am   BACKBONE|DICT|INTERRES
    91   44  169 1    
    92   45   46 2    
    93   45   47 1    
    94   47   48 1    
    95   47   49 1    
    96   47  170 1    
    97   48  171 1    
    98   48  172 1    
    99   48  173 1    
   100   49   50 am   BACKBONE|DICT|INTERRES
   101   49  174 1    
   102   50   51 2    
   103   50   52 1    
   104   52   53 1    
   105   52   54 1    
   106   52  175 1    
   107   53  176 1    
   108   53  177 1    
   109   53  178 1    
   110   54   55 am   BACKBONE|DICT|INTERRES
   111   54  179 1    
   112   55   56 2    
   113   55   57 1    
   114   57   58 1    
   115   57   59 1    
   116   57  180 1    
   117   58  181 1    
   118   58  182 1    
   119   58  183 1    
   120   59   60 am   BACKBONE|DICT|INTERRES
   121   59  184 1    
   122   60   61 2    
   123   60   62 1    
   124   62   63 1    
   125   62   64 1    
   126   62  185 1    
   127   63  186 1    
   128   63  187 1    
   129   63  188 1    
   130   64   65 am   BACKBONE|DICT|INTERRES
   131   64  189 1    
   132   65   66 2    
   133   67   68 2    
   134   67   69 am   BACKBONE|DICT|INTERRES
   135   69   70 1    
   136   69  190 1    
   137   70   71 1    
   138   70   72 1    
   139   70  191 1    
   140   71  192 1    
   141   71  193 1    
   142   71  194 1    
   143   72   73 2    
   144   72   74 am   BACKBONE|DICT|INTERRES
   145   74   75 1    
   146   74  195 1    
   147   75   76 1    
   148   75   77 1    
   149   75  196 1    
   150   76  197 1    
   151   76  198 1    
   152   76  199 1    
   153   77   78 2    
   154   77   79 am   BACKBONE|DICT|INTERRES
   155   79   80 1    
   156   79  200 1    
   157   80   81 1    
   158   80   82 1    
   159   80  201 1    
   160   81  202 1    
   161   81  203 1    
   162   81  204 1    
   163   82   83 2    
   164   82   84 am   BACKBONE|DICT|INTERRES
   165   84   85 1    
   166   84  205 1    
   167   85   86 1    
   168   85   87 1    
   169   85  206 1    
   170   86  207 1    
   171   86  208 1    
   172   86  209 1    
   173   87   88 2    
   174   87   89 am   BACKBONE|DICT|INTERRES
   175   89   90 1    
   176   89  210 1    
   177   90   91 1    
   178   90   92 1    
   179   90  211 1    
   180   91  212 1    
   181   91  213 1    
   182   91  214 1    
   183   92   93 2    
   184   92   94 am   BACKBONE|DICT|INTERRES
   185   94   95 1    
   186   94  215 1    
   187   95   96 1    
   188   95   97 1    
   189   95  216 1    
   190   96  217 1    
   191   96  218 1    
   192   96  219 1    
   193   97   98 2    
   194   97   99 am   BACKBONE|DICT|INTERRES
   195   99  100 1    
   196   99  220 1    
   197  100  101 1    
   198  100  102 1    
   199  100  221 1    
   200  101  222 1    
   201  101  223 1    
   202  101  224 1    
   203  102  103 2    
   204  102  104 am   BACKBONE|DICT|INTERRES
   205  104  105 1    
   206  104  225 1    
   207  105  106 1    
   208  105  107 1    
   209  105  226 1    
   210  106  227 1    
   211  106  228 1    
   212  106  229 1    
   213  107  108 2    
   214  107  109 am   BACKBONE|DICT|INTERRES
   215  109  110 1    
   216  109  230 1    
   217  110  111 1    
   218  110  112 1    
   219  110  231 1    
   220  111  232 1    
   221  111  233 1    
   222  111  234 1    
   223  112  113 2    
   224  112  114 am   BACKBONE|DICT|INTERRES
   225  114  115 1    
   226  114  235 1    
   227  115  116 1    
   228  115  117 1    
   229  115  236 1    
   230  116  237 1    
   231  116  238 1    
   232  116  239 1    
   233  117  118 2    
   234  117  119 am   BACKBONE|DICT|INTERRES
   235  119  120 1    
   236  119  240 1    
   237  120  121 1    
   238  120  124 1    
   239  120  241 1    
   240  121  122 am   BACKBONE|DICT|INTERRES
   241  121  123 2    
   242  122  242 1    
   243  122  243 1    
   244  124  125 1    
   245  124  244 1    
   246  124  245 1    
   247  125  126 1    
   248  126  246 1    
   249  126  247 1    
@<TRIPOS>SUBSTRUCTURE
     1 UNK         1 GROUP             0       ****    0 ROOT    
