@<TRIPOS>MOLECULE
3R540
247   249    1
SMALL
USER_CHARGES


@<TRIPOS>ATOM
      1 CA         -0.3115  -11.6035  -43.8779 C.3       0 UNK        -0.1800 
      2 C          -0.6485  -11.2115  -45.3098 C.2       0 UNK         0.5000 
      3 O          -0.0064  -10.3231  -45.8684 O.2       0 UNK        -0.5000 
      4 N          -1.6525  -11.8695  -45.9030 N.am      1 UNK        -0.5000 
      5 CA         -2.0673  -11.6971  -47.3027 C.3       1 UNK         0.1400 
      6 C6         -3.5174  -12.1918  -47.5410 C.3       23 UNK        -0.0398 
      7 S7         -3.8673  -13.8702  -46.8970 S.3       23 UNK        -0.2404 
      8 C8         -4.4920  -14.7373  -48.3702 C.3       23 UNK        -0.0205 
      9 C9         -3.3701  -15.3523  -49.1907 C.ar      23 UNK        -0.0193 
     10 C10        -2.8350  -14.6724  -50.2868 C.ar      23 UNK        -0.1150 
     11 C11        -1.8235  -15.2531  -51.0567 C.ar      23 UNK        -0.0193 
     12 C12        -1.3579  -16.5303  -50.7306 C.ar      23 UNK        -0.1150 
     13 C13        -1.8847  -17.2229  -49.6358 C.ar      23 UNK        -0.0193 
     14 C14        -2.8832  -16.6201  -48.8640 C.ar      23 UNK        -0.1150 
     15 C15        -1.3436  -18.6001  -49.2727 C.3       23 UNK        -0.0205 
     16 S16        -2.6535  -19.8654  -49.1909 S.3       23 UNK        -0.2404 
     17 C17        -3.0837  -19.8600  -47.4191 C.3       23 UNK        -0.0398 
     18 CA         -2.9456  -21.2732  -46.7837 C.3       11 UNK         0.1400 
     19 N          -1.9047  -21.3069  -45.7483 N.am      11 UNK        -0.5000 
     20 C          -1.4234  -22.4022  -45.1436 C.2       10 UNK         0.5000 
     21 O          -1.7857  -23.5449  -45.4140 O.2       10 UNK        -0.5000 
     22 CA         -0.4192  -22.1873  -43.9960 C.3       10 UNK         0.1400 
     23 CB          1.0209  -22.3117  -44.5140 C.3       10 UNK        -0.1800 
     24 N          -0.5925  -20.9103  -43.2945 N.am      10 UNK        -0.5000 
     25 C          -1.6980  -20.5524  -42.6224 C.2       9 UNK         0.5000 
     26 O          -2.6882  -21.2753  -42.5110 O.2       9 UNK        -0.5000 
     27 CA         -1.7240  -19.1382  -42.0138 C.3       9 UNK         0.1400 
     28 CB         -0.9442  -19.0943  -40.6912 C.3       9 UNK        -0.1800 
     29 N          -1.1993  -18.1262  -42.9303 N.am      9 UNK        -0.5000 
     30 C          -1.7855  -17.7626  -44.0803 C.2       8 UNK         0.5000 
     31 O          -2.8776  -18.1877  -44.4563 O.2       8 UNK        -0.5000 
     32 CA         -0.9917  -16.8048  -44.9895 C.3       8 UNK         0.1400 
     33 CB         -1.1671  -15.3456  -44.5458 C.3       8 UNK        -0.1800 
     34 N           0.4338  -17.1342  -45.0354 N.am      8 UNK        -0.5000 
     35 C           0.9310  -18.2812  -45.5203 C.2       7 UNK         0.5000 
     36 O           0.2402  -19.1649  -46.0256 O.2       7 UNK        -0.5000 
     37 CA          2.4456  -18.5004  -45.3619 C.3       7 UNK         0.1400 
     38 CB          3.2343  -17.8316  -46.4985 C.3       7 UNK        -0.1800 
     39 N           2.9343  -18.0214  -44.0685 N.am      7 UNK        -0.5000 
     40 C           2.6592  -18.6111  -42.8962 C.2       6 UNK         0.5000 
     41 O           1.9970  -19.6422  -42.7902 O.2       6 UNK        -0.5000 
     42 CA          3.1714  -17.9057  -41.6273 C.3       6 UNK         0.1400 
     43 CB          4.6413  -18.2644  -41.3634 C.3       6 UNK        -0.1800 
     44 N           3.0324  -16.4510  -41.7013 N.am      6 UNK        -0.5000 
     45 C           1.8603  -15.8016  -41.7491 C.2       5 UNK         0.5000 
     46 O           0.7671  -16.3613  -41.6793 O.2       5 UNK        -0.5000 
     47 CA          1.9214  -14.2781  -41.9710 C.3       5 UNK         0.1400 
     48 CB          1.9928  -13.5350  -40.6295 C.3       5 UNK        -0.1800 
     49 N           3.0457  -13.8670  -42.8183 N.am      5 UNK        -0.5000 
     50 C           3.1938  -14.2278  -44.0989 C.2       4 UNK         0.5000 
     51 O           2.3764  -14.9219  -44.7115 O.2       4 UNK        -0.5000 
     52 CA          4.4953  -13.7972  -44.7868 C.3       4 UNK         0.1400 
     53 CB          5.6660  -14.6957  -44.3473 C.3       4 UNK        -0.1800 
     54 N           4.3076  -13.9034  -46.2267 N.am      4 UNK        -0.5000 
     55 C           4.9956  -13.2476  -47.1676 C.2       3 UNK         0.5000 
     56 O           5.9362  -12.4910  -46.9225 O.2       3 UNK        -0.5000 
     57 CA          4.5618  -13.4681  -48.6336 C.3       3 UNK         0.1400 
     58 CB          5.5124  -14.4556  -49.3282 C.3       3 UNK        -0.1800 
     59 N           3.1868  -13.9590  -48.7771 N.am      3 UNK        -0.5000 
     60 C           2.0872  -13.2591  -48.4654 C.2       2 UNK         0.5000 
     61 O           2.1236  -12.0889  -48.0791 O.2       2 UNK        -0.5000 
     62 CA          0.7429  -14.0083  -48.5851 C.3       2 UNK         0.1400 
     63 CB          0.8383  -15.4465  -48.0473 C.3       2 UNK        -0.1800 
     64 N          -0.3085  -13.3233  -47.8406 N.am      2 UNK        -0.5000 
     65 C          -1.0751  -12.3292  -48.3042 C.2       1 UNK         0.5000 
     66 O          -1.0252  -11.9024  -49.4593 O.2       1 UNK        -0.5000 
     67 C          -4.3191  -21.8186  -46.3227 C.2       11 UNK         0.5000 
     68 O          -5.1761  -22.0662  -47.1703 O.2       11 UNK        -0.5000 
     69 N          -4.5183  -22.0180  -45.0115 N.am      12 UNK        -0.5000 
     70 CA         -5.6861  -22.7014  -44.4525 C.3       12 UNK         0.1400 
     71 CB         -5.8031  -22.3461  -42.9622 C.3       12 UNK        -0.1800 
     72 C          -5.6455  -24.2350  -44.6398 C.2       12 UNK         0.5000 
     73 O          -6.6639  -24.8888  -44.4091 O.2       12 UNK        -0.5000 
     74 N          -4.4900  -24.7884  -45.0305 N.am      13 UNK        -0.5000 
     75 CA         -4.2489  -26.2156  -45.2203 C.3       13 UNK         0.1400 
     76 CB         -3.6290  -26.7855  -43.9293 C.3       13 UNK        -0.1800 
     77 C          -3.3533  -26.4375  -46.4536 C.2       13 UNK         0.5000 
     78 O          -3.1671  -25.5188  -47.2559 O.2       13 UNK        -0.5000 
     79 N          -2.8312  -27.6657  -46.5972 N.am      14 UNK        -0.5000 
     80 CA         -1.8494  -28.0990  -47.6021 C.3       14 UNK         0.1400 
     81 CB         -0.4724  -27.4750  -47.2913 C.3       14 UNK        -0.1800 
     82 C          -2.3010  -27.8504  -49.0571 C.2       14 UNK         0.5000 
     83 O          -1.5078  -27.3908  -49.8801 O.2       14 UNK        -0.5000 
     84 N          -3.5871  -28.1199  -49.3313 N.am      15 UNK        -0.5000 
     85 CA         -4.2858  -27.8568  -50.5969 C.3       15 UNK         0.1400 
     86 CB         -3.7521  -28.7726  -51.7193 C.3       15 UNK        -0.1800 
     87 C          -4.2571  -26.3603  -50.9762 C.2       15 UNK         0.5000 
     88 O          -3.9772  -26.0164  -52.1246 O.2       15 UNK        -0.5000 
     89 N          -4.5045  -25.5024  -49.9760 N.am      16 UNK        -0.5000 
     90 CA         -4.3973  -24.0411  -50.0096 C.3       16 UNK         0.1400 
     91 CB         -5.4568  -23.4239  -50.9451 C.3       16 UNK        -0.1800 
     92 C          -2.9613  -23.5831  -50.3275 C.2       16 UNK         0.5000 
     93 O          -2.7549  -22.8061  -51.2602 O.2       16 UNK        -0.5000 
     94 N          -1.9988  -24.1300  -49.5684 N.am      17 UNK        -0.5000 
     95 CA         -0.5463  -23.9758  -49.7202 C.3       17 UNK         0.1400 
     96 CB         -0.0897  -22.5954  -49.2085 C.3       17 UNK        -0.1800 
     97 C          -0.0618  -24.2800  -51.1552 C.2       17 UNK         0.5000 
     98 O           0.6269  -23.4618  -51.7673 O.2       17 UNK        -0.5000 
     99 N          -0.4636  -25.4545  -51.6617 N.am      18 UNK        -0.5000 
    100 CA        -0.2485  -25.9596  -53.0200 C.3       18 UNK         0.1400 
    101 CB         1.2469  -26.2487  -53.2685 C.3       18 UNK        -0.1800 
    102 C         -0.8860  -25.0529  -54.0951 C.2       18 UNK         0.5000 
    103 O         -0.2158  -24.6513  -55.0487 O.2       18 UNK        -0.5000 
    104 N         -2.1830  -24.7665  -53.9137 N.am      19 UNK        -0.5000 
    105 CA        -3.0600  -23.9790  -54.7832 C.3       19 UNK         0.1400 
    106 CB        -3.3165  -24.7262  -56.1089 C.3       19 UNK        -0.1800 
    107 C         -2.5839  -22.5252  -54.9840 C.2       19 UNK         0.5000 
    108 O         -2.5246  -22.0435  -56.1176 O.2       19 UNK        -0.5000 
    109 N         -2.2570  -21.8531  -53.8739 N.am      20 UNK        -0.5000 
    110 CA        -1.9292  -20.4326  -53.8223 C.3       20 UNK         0.1400 
    111 CB        -0.9054  -20.1932  -52.6981 C.3       20 UNK        -0.1800 
    112 C         -3.2301  -19.6197  -53.6730 C.2       20 UNK         0.5000 
    113 O         -3.9214  -19.4114  -54.6711 O.2       20 UNK        -0.5000 
    114 N         -3.5419  -19.1696  -52.4483 N.am      21 UNK        -0.5000 
    115 CA        -4.7262  -18.4162  -51.9995 C.3       21 UNK         0.1400 
    116 CB        -6.0114  -19.2401  -52.2022 C.3       21 UNK        -0.1800 
    117 C         -4.8925  -16.9950  -52.5798 C.2       21 UNK         0.5000 
    118 O         -5.4123  -16.1244  -51.8818 O.2       21 UNK        -0.5000 
    119 N         -4.4642  -16.7829  -53.8289 N.am      22 UNK        -0.5000 
    120 CA        -4.4411  -15.5024  -54.5578 C.3       22 UNK         0.1400 
    121 C         -5.8432  -14.8922  -54.8700 C.2       22 UNK         0.5000 
    122 N         -6.9258  -15.6582  -54.8101 N.am      22 UNK        -0.7600 
    123 O         -5.9550  -13.7165  -55.2079 O.2       22 UNK        -0.5000 
    124 C124       -3.4608  -14.4703  -53.9321 C.3       23 UNK        -0.0398 
    125 S125       -1.7496  -15.1052  -53.8368 S.3       23 UNK        -0.2404 
    126 C126       -1.2035  -14.4860  -52.2150 C.3       23 UNK        -0.0205 
    127 H127        0.7301  -11.9182  -43.8145 H         1 UNK         0.0600 
    128 H128       -0.9374  -12.4219  -43.5216 H         1 UNK         0.0600 
    129 H129       -0.4522  -10.7523  -43.2119 H         1 UNK         0.0600 
    130 H130       -2.1707  -12.5680  -45.3887 H         1 UNK         0.3000 
    131 H131       -2.0615  -10.6255  -47.5141 H         1 UNK         0.0600 
    132 H132       -4.2068  -11.5107  -47.0405 H         1 UNK         0.0800 
    133 H133       -3.7754  -12.1298  -48.5994 H         1 UNK         0.0800 
    134 H134       -5.1705  -15.5269  -48.0442 H         1 UNK         0.0800 
    135 H135       -5.0943  -14.0645  -48.9824 H         1 UNK         0.0800 
    136 H136       -3.2014  -13.6872  -50.5367 H         1 UNK         0.1150 
    137 H137       -0.5726  -16.9748  -51.3251 H         1 UNK         0.1150 
    138 H138       -3.2918  -17.1379  -48.0093 H         1 UNK         0.1150 
    139 H139       -0.6077  -18.9234  -50.0091 H         1 UNK         0.0800 
    140 H140       -0.8033  -18.5393  -48.3291 H         1 UNK         0.0800 
    141 H141       -4.0943  -19.4563  -47.3302 H         1 UNK         0.0800 
    142 H142       -2.4537  -19.1394  -46.8991 H         1 UNK         0.0800 
    143 H143       -2.6180  -21.9788  -47.5489 H         1 UNK         0.0600 
    144 H144       -1.4975  -20.4155  -45.4924 H         1 UNK         0.3000 
    145 H145       -0.5849  -22.9836  -43.2676 H         1 UNK         0.0600 
    146 H146        1.7431  -22.2291  -43.7019 H         1 UNK         0.0600 
    147 H147        1.1799  -23.2790  -44.9923 H         1 UNK         0.0600 
    148 H148        1.2508  -21.5430  -45.2508 H         1 UNK         0.0600 
    149 H149        0.2064  -20.2832  -43.2947 H         1 UNK         0.3000 
    150 H150       -2.7653  -18.8886  -41.7994 H         1 UNK         0.0600 
    151 H151       -1.3330  -19.8279  -39.9841 H         1 UNK         0.0600 
    152 H152       -1.0236  -18.1142  -40.2205 H         1 UNK         0.0600 
    153 H153        0.1146  -19.3081  -40.8381 H         1 UNK         0.0600 
    154 H154       -0.3313  -17.6738  -42.6603 H         1 UNK         0.3000 
    155 H155       -1.3881  -16.9005  -46.0026 H         1 UNK         0.0600 
    156 H156       -2.2163  -15.0521  -44.5874 H         1 UNK         0.0600 
    157 H157       -0.6080  -14.6679  -45.1895 H         1 UNK         0.0600 
    158 H158       -0.8271  -15.1915  -43.5225 H         1 UNK         0.0600 
    159 H159        1.0791  -16.4384  -44.6763 H         1 UNK         0.3000 
    160 H160        2.6300  -19.5748  -45.4192 H         1 UNK         0.0600 
    161 H161        3.1729  -16.7458  -46.4559 H         1 UNK         0.0600 
    162 H162        2.8577  -18.1455  -47.4729 H         1 UNK         0.0600 
    163 H163        4.2888  -18.1043  -46.4552 H         1 UNK         0.0600 
    164 H164        3.4390  -17.1484  -44.0675 H         1 UNK         0.3000 
    165 H165        2.5751  -18.2615  -40.7843 H         1 UNK         0.0600 
    166 H166        4.9902  -17.8318  -40.4256 H         1 UNK         0.0600 
    167 H167        4.7715  -19.3450  -41.2897 H         1 UNK         0.0600 
    168 H168        5.2944  -17.9084  -42.1613 H         1 UNK         0.0600 
    169 H169        3.8835  -15.9122  -41.7568 H         1 UNK         0.3000 
    170 H170        0.9979  -13.9847  -42.4724 H         1 UNK         0.0600 
    171 H171        1.1554  -13.8097  -39.9866 H         1 UNK         0.0600 
    172 H172        2.9116  -13.7651  -40.0887 H         1 UNK         0.0600 
    173 H173        1.9484  -12.4554  -40.7745 H         1 UNK         0.0600 
    174 H174        3.7578  -13.3008  -42.3795 H         1 UNK         0.3000 
    175 H175        4.7002  -12.7579  -44.5218 H         1 UNK         0.0600 
    176 H176        5.4894  -15.7406  -44.6057 H         1 UNK         0.0600 
    177 H177        6.5985  -14.3897  -44.8216 H         1 UNK         0.0600 
    178 H178        5.8227  -14.6436  -43.2694 H         1 UNK         0.0600 
    179 H179        3.5106  -14.4647  -46.4955 H         1 UNK         0.3000 
    180 H180        4.6336  -12.5056  -49.1442 H         1 UNK         0.0600 
    181 H181        5.4715  -15.4440  -48.8685 H         1 UNK         0.0600 
    182 H182        6.5455  -14.1099  -49.2710 H         1 UNK         0.0600 
    183 H183        5.2666  -14.5645  -50.3847 H         1 UNK         0.0600 
    184 H184        3.0842  -14.9105  -49.0983 H         1 UNK         0.3000 
    185 H185        0.4712  -14.0477  -49.6411 H         1 UNK         0.0600 
    186 H186        1.4360  -16.0844  -48.6986 H         1 UNK         0.0600 
    187 H187        1.2835  -15.4651  -47.0547 H         1 UNK         0.0600 
    188 H188       -0.1456  -15.9048  -47.9674 H         1 UNK         0.0600 
    189 H189       -0.3947  -13.5631  -46.8660 H         1 UNK         0.3000 
    190 H190       -3.7825  -21.7768  -44.3575 H         1 UNK         0.3000 
    191 H191       -6.5808  -22.3325  -44.9583 H         1 UNK         0.0600 
    192 H192       -5.8335  -21.2667  -42.8127 H         1 UNK         0.0600 
    193 H193       -6.7160  -22.7599  -42.5323 H         1 UNK         0.0600 
    194 H194       -4.9639  -22.7415  -42.3888 H         1 UNK         0.0600 
    195 H195       -3.6970  -24.1952  -45.2596 H         1 UNK         0.3000 
    196 H196       -5.1916  -26.7284  -45.4206 H         1 UNK         0.0600 
    197 H197       -3.5234  -27.8695  -43.9756 H         1 UNK         0.0600 
    198 H198       -4.2540  -26.5660  -43.0633 H         1 UNK         0.0600 
    199 H199       -2.6413  -26.3618  -43.7414 H         1 UNK         0.0600 
    200 H200       -3.0721  -28.3629  -45.9067 H         1 UNK         0.3000 
    201 H201       -1.7519  -29.1805  -47.4987 H         1 UNK         0.0600 
    202 H202       -0.1468  -27.7270  -46.2821 H         1 UNK         0.0600 
    203 H203       -0.4946  -26.3880  -47.3704 H         1 UNK         0.0600 
    204 H204        0.2924  -27.8406  -47.9775 H         1 UNK         0.0600 
    205 H205       -4.1581  -28.4853  -48.5821 H         1 UNK         0.3000 
    206 H206       -5.3340  -28.1112  -50.4342 H         1 UNK         0.0600 
    207 H207       -3.7960  -29.8214  -51.4261 H         1 UNK         0.0600 
    208 H208       -4.3479  -28.6645  -52.6264 H         1 UNK         0.0600 
    209 H209       -2.7191  -28.5402  -51.9795 H         1 UNK         0.0600 
    210 H210       -4.6416  -25.8917  -49.0536 H         1 UNK         0.3000 
    211 H211       -4.6109  -23.7024  -48.9980 H         1 UNK         0.0600 
    212 H212       -5.2828  -23.6817  -51.9899 H         1 UNK         0.0600 
    213 H213       -5.4429  -22.3369  -50.8700 H         1 UNK         0.0600 
    214 H214       -6.4600  -23.7553  -50.6782 H         1 UNK         0.0600 
    215 H215       -2.2972  -24.7500  -48.8193 H         1 UNK         0.3000 
    216 H216       -0.0885  -24.7292  -49.0788 H         1 UNK         0.0600 
    217 H217        0.9958  -22.5019  -49.2513 H         1 UNK         0.0600 
    218 H218       -0.3833  -22.4391  -48.1714 H         1 UNK         0.0600 
    219 H219       -0.5095  -21.7876  -49.8059 H         1 UNK         0.0600 
    220 H220       -0.9952  -26.0728  -51.0507 H         1 UNK         0.3000 
    221 H221       -0.7771  -26.9125  -53.0733 H         1 UNK         0.0600 
    222 H222        1.8448  -25.3370  -53.2658 H         1 UNK         0.0600 
    223 H223        1.6500  -26.9167  -52.5073 H         1 UNK         0.0600 
    224 H224        1.3939  -26.7321  -54.2349 H         1 UNK         0.0600 
    225 H225       -2.6522  -25.1611  -53.1008 H         1 UNK         0.3000 
    226 H226       -4.0147  -23.9113  -54.2598 H         1 UNK         0.0600 
    227 H227       -3.6954  -25.7318  -55.9262 H         1 UNK         0.0600 
    228 H228       -4.0601  -24.2054  -56.7132 H         1 UNK         0.0600 
    229 H229       -2.4097  -24.8126  -56.7082 H         1 UNK         0.0600 
    230 H230       -2.3649  -22.3137  -52.9705 H         1 UNK         0.3000 
    231 H231       -1.4617  -20.1256  -54.7600 H         1 UNK         0.0600 
    232 H232       -1.2588  -20.5689  -51.7392 H         1 UNK         0.0600 
    233 H233       -0.6799  -19.1320  -52.5879 H         1 UNK         0.0600 
    234 H234        0.0335  -20.7024  -52.9162 H         1 UNK         0.0600 
    235 H235       -2.8972  -19.3946  -51.7023 H         1 UNK         0.3000 
    236 H236       -4.5932  -18.2836  -50.9250 H         1 UNK         0.0600 
    237 H237       -5.9419  -20.2041  -51.7008 H         1 UNK         0.0600 
    238 H238       -6.8761  -18.7211  -51.7867 H         1 UNK         0.0600 
    239 H239       -6.2174  -19.4236  -53.2568 H         1 UNK         0.0600 
    240 H240       -4.1237  -17.5931  -54.3384 H         1 UNK         0.3000 
    241 H241       -4.0441  -15.7518  -55.5421 H         1 UNK         0.0600 
    242 H242       -7.8280  -15.2628  -55.0238 H         1 UNK         0.3800 
    243 H243       -6.8509  -16.6263  -54.5421 H         1 UNK         0.3800 
    244 H244       -3.4294  -13.5574  -54.5286 H         1 UNK         0.0800 
    245 H245       -3.8089  -14.1724  -52.9431 H         1 UNK         0.0800 
    246 H246       -0.1178  -14.5735  -52.1571 H         1 UNK         0.0800 
    247 H247       -1.4238  -13.4199  -52.1367 H         1 UNK         0.0800 
@<TRIPOS>BOND
     1    1    2 1    
     2    1  127 1    
     3    1  128 1    
     4    1  129 1    
     5    2    3 2    
     6    2    4 am   BACKBONE|DICT|INTERRES
     7    4    5 1    
     8    4  130 1    
     9    5    6 1    
    10    5   65 1    
    11    5  131 1    
    12    6    7 1    
    13    6  132 1    
    14    6  133 1    
    15    7    8 1    
    16    8    9 1    
    17    8  134 1    
    18    8  135 1    
    19    9   10 ar   
    20    9   14 ar   
    21   10   11 ar   
    22   10  136 1    
    23   11   12 ar   
    24   11  126 1    
    25   12   13 ar   
    26   12  137 1    
    27   13   14 ar   
    28   13   15 1    
    29   14  138 1    
    30   15   16 1    
    31   15  139 1    
    32   15  140 1    
    33   16   17 1    
    34   17   18 1    
    35   17  141 1    
    36   17  142 1    
    37   18   19 1    
    38   18   67 1    
    39   18  143 1    
    40   19   20 am   BACKBONE|DICT|INTERRES
    41   19  144 1    
    42   20   21 2    
    43   20   22 1    
    44   22   23 1    
    45   22   24 1    
    46   22  145 1    
    47   23  146 1    
    48   23  147 1    
    49   23  148 1    
    50   24   25 am   BACKBONE|DICT|INTERRES
    51   24  149 1    
    52   25   26 2    
    53   25   27 1    
    54   27   28 1    
    55   27   29 1    
    56   27  150 1    
    57   28  151 1    
    58   28  152 1    
    59   28  153 1    
    60   29   30 am   BACKBONE|DICT|INTERRES
    61   29  154 1    
    62   30   31 2    
    63   30   32 1    
    64   32   33 1    
    65   32   34 1    
    66   32  155 1    
    67   33  156 1    
    68   33  157 1    
    69   33  158 1    
    70   34   35 am   BACKBONE|DICT|INTERRES
    71   34  159 1    
    72   35   36 2    
    73   35   37 1    
    74   37   38 1    
    75   37   39 1    
    76   37  160 1    
    77   38  161 1    
    78   38  162 1    
    79   38  163 1    
    80   39   40 am   BACKBONE|DICT|INTERRES
    81   39  164 1    
    82   40   41 2    
    83   40   42 1    
    84   42   43 1    
    85   42   44 1    
    86   42  165 1    
    87   43  166 1    
    88   43  167 1    
    89   43  168 1    
    90   44   45 am   BACKBONE|DICT|INTERRES
    91   44  169 1    
    92   45   46 2    
    93   45   47 1    
    94   47   48 1    
    95   47   49 1    
    96   47  170 1    
    97   48  171 1    
    98   48  172 1    
    99   48  173 1    
   100   49   50 am   BACKBONE|DICT|INTERRES
   101   49  174 1    
   102   50   51 2    
   103   50   52 1    
   104   52   53 1    
   105   52   54 1    
   106   52  175 1    
   107   53  176 1    
   108   53  177 1    
   109   53  178 1    
   110   54   55 am   BACKBONE|DICT|INTERRES
   111   54  179 1    
   112   55   56 2    
   113   55   57 1    
   114   57   58 1    
   115   57   59 1    
   116   57  180 1    
   117   58  181 1    
   118   58  182 1    
   119   58  183 1    
   120   59   60 am   BACKBONE|DICT|INTERRES
   121   59  184 1    
   122   60   61 2    
   123   60   62 1    
   124   62   63 1    
   125   62   64 1    
   126   62  185 1    
   127   63  186 1    
   128   63  187 1    
   129   63  188 1    
   130   64   65 am   BACKBONE|DICT|INTERRES
   131   64  189 1    
   132   65   66 2    
   133   67   68 2    
   134   67   69 am   BACKBONE|DICT|INTERRES
   135   69   70 1    
   136   69  190 1    
   137   70   71 1    
   138   70   72 1    
   139   70  191 1    
   140   71  192 1    
   141   71  193 1    
   142   71  194 1    
   143   72   73 2    
   144   72   74 am   BACKBONE|DICT|INTERRES
   145   74   75 1    
   146   74  195 1    
   147   75   76 1    
   148   75   77 1    
   149   75  196 1    
   150   76  197 1    
   151   76  198 1    
   152   76  199 1    
   153   77   78 2    
   154   77   79 am   BACKBONE|DICT|INTERRES
   155   79   80 1    
   156   79  200 1    
   157   80   81 1    
   158   80   82 1    
   159   80  201 1    
   160   81  202 1    
   161   81  203 1    
   162   81  204 1    
   163   82   83 2    
   164   82   84 am   BACKBONE|DICT|INTERRES
   165   84   85 1    
   166   84  205 1    
   167   85   86 1    
   168   85   87 1    
   169   85  206 1    
   170   86  207 1    
   171   86  208 1    
   172   86  209 1    
   173   87   88 2    
   174   87   89 am   BACKBONE|DICT|INTERRES
   175   89   90 1    
   176   89  210 1    
   177   90   91 1    
   178   90   92 1    
   179   90  211 1    
   180   91  212 1    
   181   91  213 1    
   182   91  214 1    
   183   92   93 2    
   184   92   94 am   BACKBONE|DICT|INTERRES
   185   94   95 1    
   186   94  215 1    
   187   95   96 1    
   188   95   97 1    
   189   95  216 1    
   190   96  217 1    
   191   96  218 1    
   192   96  219 1    
   193   97   98 2    
   194   97   99 am   BACKBONE|DICT|INTERRES
   195   99  100 1    
   196   99  220 1    
   197  100  101 1    
   198  100  102 1    
   199  100  221 1    
   200  101  222 1    
   201  101  223 1    
   202  101  224 1    
   203  102  103 2    
   204  102  104 am   BACKBONE|DICT|INTERRES
   205  104  105 1    
   206  104  225 1    
   207  105  106 1    
   208  105  107 1    
   209  105  226 1    
   210  106  227 1    
   211  106  228 1    
   212  106  229 1    
   213  107  108 2    
   214  107  109 am   BACKBONE|DICT|INTERRES
   215  109  110 1    
   216  109  230 1    
   217  110  111 1    
   218  110  112 1    
   219  110  231 1    
   220  111  232 1    
   221  111  233 1    
   222  111  234 1    
   223  112  113 2    
   224  112  114 am   BACKBONE|DICT|INTERRES
   225  114  115 1    
   226  114  235 1    
   227  115  116 1    
   228  115  117 1    
   229  115  236 1    
   230  116  237 1    
   231  116  238 1    
   232  116  239 1    
   233  117  118 2    
   234  117  119 am   BACKBONE|DICT|INTERRES
   235  119  120 1    
   236  119  240 1    
   237  120  121 1    
   238  120  124 1    
   239  120  241 1    
   240  121  122 am   BACKBONE|DICT|INTERRES
   241  121  123 2    
   242  122  242 1    
   243  122  243 1    
   244  124  125 1    
   245  124  244 1    
   246  124  245 1    
   247  125  126 1    
   248  126  246 1    
   249  126  247 1    
@<TRIPOS>SUBSTRUCTURE
     1 UNK         1 GROUP             0       ****    0 ROOT    
