@<TRIPOS>MOLECULE
3R540
247   249    1
SMALL
USER_CHARGES


@<TRIPOS>ATOM
      1 CA          2.2648  -16.5435  -46.9724 C.3       0 UNK        -0.1800 
      2 C           1.2366  -15.8531  -46.0929 C.2       0 UNK         0.5000 
      3 O           1.5074  -15.5907  -44.9209 O.2       0 UNK        -0.5000 
      4 N           0.0701  -15.5477  -46.6729 N.am      1 UNK        -0.5000 
      5 CA         -0.9955  -14.7409  -46.0602 C.3       1 UNK         0.1400 
      6 C6         -2.4134  -15.2348  -46.4441 C.3       23 UNK        -0.0398 
      7 S7         -2.6820  -17.0022  -46.0727 S.3       23 UNK        -0.2404 
      8 C8         -2.9187  -17.7219  -47.7305 C.3       23 UNK        -0.0205 
      9 C9         -1.6485  -17.6829  -48.5687 C.ar      23 UNK        -0.0193 
     10 C10        -1.4405  -16.6518  -49.4890 C.ar      23 UNK        -0.1150 
     11 C11        -0.2591  -16.5869  -50.2314 C.ar      23 UNK        -0.0193 
     12 C12         0.7070  -17.5858  -50.0722 C.ar      23 UNK        -0.1150 
     13 C13         0.4998  -18.6397  -49.1767 C.ar      23 UNK        -0.0193 
     14 C14        -0.6759  -18.6746  -48.4191 C.ar      23 UNK        -0.1150 
     15 C15         1.5724  -19.7054  -48.9884 C.3       23 UNK        -0.0205 
     16 S16         1.4918  -21.0383  -50.2328 S.3       23 UNK        -0.2404 
     17 C17        -0.0760  -21.8805  -49.8255 C.3       23 UNK        -0.0398 
     18 CA          0.0573  -23.1419  -48.9361 C.3       11 UNK         0.1400 
     19 N           0.9194  -22.9014  -47.7752 N.am      11 UNK        -0.5000 
     20 C           1.2777  -23.7876  -46.8368 C.2       10 UNK         0.5000 
     21 O           0.9320  -24.9684  -46.8417 O.2       10 UNK        -0.5000 
     22 CA          2.1133  -23.2354  -45.6644 C.3       10 UNK         0.1400 
     23 CB          3.6114  -23.4490  -45.9245 C.3       10 UNK        -0.1800 
     24 N           1.8747  -21.8123  -45.3930 N.am      10 UNK        -0.5000 
     25 C           0.7018  -21.2687  -45.0429 C.2       9 UNK         0.5000 
     26 O          -0.3279  -21.9328  -44.9212 O.2       9 UNK        -0.5000 
     27 CA          0.6600  -19.7359  -44.8394 C.3       9 UNK         0.1400 
     28 CB         -0.6389  -19.2787  -44.1590 C.3       9 UNK        -0.1800 
     29 N           1.7954  -19.1780  -44.0981 N.am      9 UNK        -0.5000 
     30 C           3.0482  -19.0361  -44.5505 C.2       8 UNK         0.5000 
     31 O           3.4251  -19.4696  -45.6405 O.2       8 UNK        -0.5000 
     32 CA          4.0180  -18.2631  -43.6431 C.3       8 UNK         0.1400 
     33 CB          5.3036  -17.8170  -44.3676 C.3       8 UNK        -0.1800 
     34 N           3.3459  -17.1040  -43.0545 N.am      8 UNK        -0.5000 
     35 C           3.6567  -16.5665  -41.8691 C.2       7 UNK         0.5000 
     36 O           4.5438  -16.9989  -41.1317 O.2       7 UNK        -0.5000 
     37 CA          2.8349  -15.3445  -41.4233 C.3       7 UNK         0.1400 
     38 CB          3.4259  -14.0511  -42.0046 C.3       7 UNK        -0.1800 
     39 N           1.4236  -15.4296  -41.7937 N.am      7 UNK        -0.5000 
     40 C           0.5305  -16.2779  -41.2733 C.2       6 UNK         0.5000 
     41 O           0.8105  -17.1206  -40.4190 O.2       6 UNK        -0.5000 
     42 CA         -0.9231  -16.1247  -41.7718 C.3       6 UNK         0.1400 
     43 CB         -1.8480  -17.2433  -41.2588 C.3       6 UNK        -0.1800 
     44 N          -1.5048  -14.8362  -41.3891 N.am      6 UNK        -0.5000 
     45 C          -1.2223  -13.6599  -41.9576 C.2       5 UNK         0.5000 
     46 O          -0.4078  -13.5202  -42.8759 O.2       5 UNK        -0.5000 
     47 CA         -1.9585  -12.4311  -41.4096 C.3       5 UNK         0.1400 
     48 CB         -1.2457  -11.8741  -40.1642 C.3       5 UNK        -0.1800 
     49 N          -1.9499  -11.4504  -42.4805 N.am      5 UNK        -0.5000 
     50 C          -2.6540  -10.3222  -42.5930 C.2       4 UNK         0.5000 
     51 O          -3.4667   -9.9302  -41.7541 O.2       4 UNK        -0.5000 
     52 CA         -2.4000   -9.5180  -43.8859 C.3       4 UNK         0.1400 
     53 CB         -2.7002   -8.0110  -43.7431 C.3       4 UNK        -0.1800 
     54 N          -1.0585   -9.7701  -44.4324 N.am      4 UNK        -0.5000 
     55 C           0.1252   -9.3906  -43.9209 C.2       3 UNK         0.5000 
     56 O           0.2423   -8.6300  -42.9597 O.2       3 UNK        -0.5000 
     57 CA          1.4025   -9.9928  -44.5525 C.3       3 UNK         0.1400 
     58 CB          2.2012  -10.7828  -43.5019 C.3       3 UNK        -0.1800 
     59 N           1.1367  -10.8851  -45.6823 N.am      3 UNK        -0.5000 
     60 C           0.7687  -10.5006  -46.9108 C.2       2 UNK         0.5000 
     61 O           0.7027   -9.3223  -47.2616 O.2       2 UNK        -0.5000 
     62 CA          0.3732  -11.6106  -47.9065 C.3       2 UNK         0.1400 
     63 CB          1.4494  -11.7705  -48.9919 C.3       2 UNK        -0.1800 
     64 N           0.1182  -12.9266  -47.3090 N.am      2 UNK        -0.5000 
     65 C          -0.8390  -13.2437  -46.4213 C.2       1 UNK         0.5000 
     66 O          -1.5857  -12.4085  -45.9079 O.2       1 UNK        -0.5000 
     67 C          -1.3576  -23.6379  -48.5522 C.2       11 UNK         0.5000 
     68 O          -2.0122  -24.2943  -49.3636 O.2       11 UNK        -0.5000 
     69 N          -1.8149  -23.3124  -47.3318 N.am      12 UNK        -0.5000 
     70 CA         -3.1132  -23.7199  -46.7941 C.3       12 UNK         0.1400 
     71 CB         -3.3973  -22.9431  -45.5011 C.3       12 UNK        -0.1800 
     72 C          -3.2241  -25.2368  -46.5505 C.2       12 UNK         0.5000 
     73 O          -4.3333  -25.7692  -46.5951 O.2       12 UNK        -0.5000 
     74 N          -2.0834  -25.9114  -46.3331 N.am      13 UNK        -0.5000 
     75 CA         -1.9977  -27.3564  -46.1031 C.3       13 UNK         0.1400 
     76 CB         -0.5714  -27.7193  -45.6650 C.3       13 UNK        -0.1800 
     77 C          -2.4167  -28.1982  -47.3236 C.2       13 UNK         0.5000 
     78 O          -2.8894  -29.3216  -47.1503 O.2       13 UNK        -0.5000 
     79 N          -2.2919  -27.6301  -48.5308 N.am      14 UNK        -0.5000 
     80 CA         -2.7310  -28.2177  -49.7976 C.3       14 UNK         0.1400 
     81 CB         -1.8327  -27.6748  -50.9227 C.3       14 UNK        -0.1800 
     82 C          -4.2291  -27.9467  -50.0581 C.2       14 UNK         0.5000 
     83 O          -4.5978  -27.5378  -51.1600 O.2       14 UNK        -0.5000 
     84 N          -5.0636  -28.1216  -49.0208 N.am      15 UNK        -0.5000 
     85 CA         -6.5181  -27.9005  -48.9840 C.3       15 UNK         0.1400 
     86 CB         -7.2358  -28.9909  -49.8056 C.3       15 UNK        -0.1800 
     87 C          -6.9482  -26.4742  -49.4012 C.2       15 UNK         0.5000 
     88 O          -8.0555  -26.2871  -49.9074 O.2       15 UNK        -0.5000 
     89 N          -6.0375  -25.5060  -49.2202 N.am      16 UNK        -0.5000 
     90 CA         -6.0874  -24.1158  -49.6854 C.3       16 UNK         0.1400 
     91 CB         -7.2002  -23.3319  -48.9624 C.3       16 UNK        -0.1800 
     92 C          -6.1445  -23.9439  -51.2214 C.2       16 UNK         0.5000 
     93 O          -6.3602  -22.8256  -51.6914 O.2       16 UNK        -0.5000 
     94 N          -5.9056  -25.0184  -51.9887 N.am      17 UNK        -0.5000 
     95 CA         -5.8858  -24.9936  -53.4519 C.3       17 UNK         0.1400 
     96 CB         -5.9750  -26.4265  -53.9977 C.3       17 UNK        -0.1800 
     97 C          -4.6364  -24.2781  -53.9890 C.2       17 UNK         0.5000 
     98 O          -4.7326  -23.5362  -54.9666 O.2       17 UNK        -0.5000 
     99 N          -3.4961  -24.4779  -53.3115 N.am      18 UNK        -0.5000 
    100 CA        -2.2519  -23.7627  -53.5899 C.3       18 UNK         0.1400 
    101 CB        -1.0690  -24.4895  -52.9348 C.3       18 UNK        -0.1800 
    102 C         -2.3166  -22.3017  -53.1172 C.2       18 UNK         0.5000 
    103 O         -1.7895  -21.4272  -53.8021 O.2       18 UNK        -0.5000 
    104 N         -2.9767  -22.0562  -51.9738 N.am      19 UNK        -0.5000 
    105 CA        -3.1366  -20.7334  -51.3571 C.3       19 UNK         0.1400 
    106 CB        -3.8335  -20.8760  -49.9963 C.3       19 UNK        -0.1800 
    107 C         -3.8893  -19.7251  -52.2405 C.2       19 UNK         0.5000 
    108 O         -3.5744  -18.5371  -52.2010 O.2       19 UNK        -0.5000 
    109 N         -4.8209  -20.2222  -53.0649 N.am      20 UNK        -0.5000 
    110 CA        -5.5548  -19.4465  -54.0669 C.3       20 UNK         0.1400 
    111 CB        -6.6474  -20.3377  -54.6766 C.3       20 UNK        -0.1800 
    112 C         -4.6598  -18.8511  -55.1763 C.2       20 UNK         0.5000 
    113 O         -5.0478  -17.8561  -55.7896 O.2       20 UNK        -0.5000 
    114 N         -3.4879  -19.4581  -55.4072 N.am      21 UNK        -0.5000 
    115 CA        -2.4802  -19.0236  -56.3756 C.3       21 UNK         0.1400 
    116 CB        -2.1829  -20.2069  -57.3125 C.3       21 UNK        -0.1800 
    117 C         -1.1848  -18.5344  -55.6946 C.2       21 UNK         0.5000 
    118 O         -0.2475  -18.1583  -56.4003 O.2       21 UNK        -0.5000 
    119 N         -1.1369  -18.5673  -54.3547 N.am      22 UNK        -0.5000 
    120 CA         0.0540  -18.3393  -53.5161 C.3       22 UNK         0.1400 
    121 C          1.2056  -19.3638  -53.7639 C.2       22 UNK         0.5000 
    122 N          0.8957  -20.6109  -54.0942 N.am      22 UNK        -0.7600 
    123 O          2.3853  -19.0408  -53.6493 O.2       22 UNK        -0.5000 
    124 C124        0.5371  -16.8624  -53.5302 C.3       23 UNK        -0.0398 
    125 S125       -0.7029  -15.7177  -52.8369 S.3       23 UNK        -0.2404 
    126 C126       -0.0217  -15.4157  -51.1748 C.3       23 UNK        -0.0205 
    127 H127        3.2711  -16.3761  -46.5903 H         1 UNK         0.0600 
    128 H128        2.2271  -16.1640  -47.9933 H         1 UNK         0.0600 
    129 H129        2.0793  -17.6146  -46.9967 H         1 UNK         0.0600 
    130 H130       -0.1165  -15.8740  -47.6117 H         1 UNK         0.3000 
    131 H131       -0.9146  -14.8195  -44.9770 H         1 UNK         0.0600 
    132 H132       -2.6252  -15.0403  -47.4953 H         1 UNK         0.0800 
    133 H133       -3.1646  -14.6736  -45.8855 H         1 UNK         0.0800 
    134 H134       -3.7343  -17.2086  -48.2423 H         1 UNK         0.0800 
    135 H135       -3.2403  -18.7561  -47.6058 H         1 UNK         0.0800 
    136 H136       -2.1934  -15.8878  -49.6217 H         1 UNK         0.1150 
    137 H137        1.6254  -17.5427  -50.6407 H         1 UNK         0.1150 
    138 H138       -0.8381  -19.4696  -47.7056 H         1 UNK         0.1150 
    139 H139        2.5560  -19.2373  -49.0519 H         1 UNK         0.0800 
    140 H140        1.5160  -20.1286  -47.9866 H         1 UNK         0.0800 
    141 H141       -0.5227  -22.1649  -50.7769 H         1 UNK         0.0800 
    142 H142       -0.7604  -21.1624  -49.3785 H         1 UNK         0.0800 
    143 H143        0.5283  -23.9309  -49.5259 H         1 UNK         0.0600 
    144 H144        1.2881  -21.9675  -47.6924 H         1 UNK         0.3000 
    145 H145        1.8337  -23.7967  -44.7706 H         1 UNK         0.0600 
    146 H146        4.2085  -23.1397  -45.0664 H         1 UNK         0.0600 
    147 H147        3.8305  -24.5015  -46.1098 H         1 UNK         0.0600 
    148 H148        3.9532  -22.8833  -46.7923 H         1 UNK         0.0600 
    149 H149        2.6631  -21.1805  -45.5066 H         1 UNK         0.3000 
    150 H150        0.6725  -19.2922  -45.8352 H         1 UNK         0.0600 
    151 H151       -1.5147  -19.5816  -44.7346 H         1 UNK         0.0600 
    152 H152       -0.6742  -18.1938  -44.0728 H         1 UNK         0.0600 
    153 H153       -0.7372  -19.7071  -43.1615 H         1 UNK         0.0600 
    154 H154        1.5914  -18.8333  -43.1714 H         1 UNK         0.3000 
    155 H155        4.2984  -18.9574  -42.8483 H         1 UNK         0.0600 
    156 H156        5.0861  -17.1202  -45.1769 H         1 UNK         0.0600 
    157 H157        5.8299  -18.6699  -44.7977 H         1 UNK         0.0600 
    158 H158        5.9947  -17.3267  -43.6820 H         1 UNK         0.0600 
    159 H159        2.6186  -16.6655  -43.6145 H         1 UNK         0.3000 
    160 H160        2.8944  -15.2858  -40.3345 H         1 UNK         0.0600 
    161 H161        3.3380  -14.0220  -43.0917 H         1 UNK         0.0600 
    162 H162        4.4837  -13.9560  -41.7561 H         1 UNK         0.0600 
    163 H163        2.9184  -13.1739  -41.6034 H         1 UNK         0.0600 
    164 H164        1.0902  -14.7634  -42.4848 H         1 UNK         0.3000 
    165 H165       -0.8979  -16.1850  -42.8617 H         1 UNK         0.0600 
    166 H166       -2.8320  -17.1836  -41.7243 H         1 UNK         0.0600 
    167 H167       -1.4428  -18.2288  -41.4859 H         1 UNK         0.0600 
    168 H168       -1.9833  -17.1900  -40.1779 H         1 UNK         0.0600 
    169 H169       -2.1562  -14.8583  -40.6178 H         1 UNK         0.3000 
    170 H170       -2.9898  -12.6990  -41.1720 H         1 UNK         0.0600 
    171 H171       -1.2145  -12.6161  -39.3657 H         1 UNK         0.0600 
    172 H172       -0.2172  -11.5866  -40.3875 H         1 UNK         0.0600 
    173 H173       -1.7591  -10.9971  -39.7700 H         1 UNK         0.0600 
    174 H174       -1.3311  -11.7121  -43.2397 H         1 UNK         0.3000 
    175 H175       -3.0968   -9.9172  -44.6243 H         1 UNK         0.0600 
    176 H176       -2.1308   -7.5545  -42.9335 H         1 UNK         0.0600 
    177 H177       -2.4702   -7.4734  -44.6630 H         1 UNK         0.0600 
    178 H178       -3.7562   -7.8459  -43.5265 H         1 UNK         0.0600 
    179 H179       -1.0378  -10.4343  -45.1976 H         1 UNK         0.3000 
    180 H180        2.0183   -9.1612  -44.9009 H         1 UNK         0.0600 
    181 H181        3.1213  -11.1873  -43.9243 H         1 UNK         0.0600 
    182 H182        1.6207  -11.6153  -43.1024 H         1 UNK         0.0600 
    183 H183        2.4845  -10.1482  -42.6613 H         1 UNK         0.0600 
    184 H184        1.1530  -11.8751  -45.4842 H         1 UNK         0.3000 
    185 H185       -0.5516  -11.2876  -48.3884 H         1 UNK         0.0600 
    186 H186        1.1358  -12.4790  -49.7589 H         1 UNK         0.0600 
    187 H187        1.6472  -10.8215  -49.4921 H         1 UNK         0.0600 
    188 H188        2.3925  -12.1233  -48.5727 H         1 UNK         0.0600 
    189 H189        0.6975  -13.6803  -47.6467 H         1 UNK         0.3000 
    190 H190       -1.2157  -22.7943  -46.6994 H         1 UNK         0.3000 
    191 H191       -3.8771  -23.4439  -47.5207 H         1 UNK         0.0600 
    192 H192       -4.3991  -23.1606  -45.1284 H         1 UNK         0.0600 
    193 H193       -3.3368  -21.8666  -45.6633 H         1 UNK         0.0600 
    194 H194       -2.6913  -23.2041  -44.7119 H         1 UNK         0.0600 
    195 H195       -1.2053  -25.4070  -46.3516 H         1 UNK         0.3000 
    196 H196       -2.6780  -27.6030  -45.2853 H         1 UNK         0.0600 
    197 H197        0.1532  -27.5279  -46.4572 H         1 UNK         0.0600 
    198 H198       -0.2684  -27.1482  -44.7872 H         1 UNK         0.0600 
    199 H199       -0.5004  -28.7764  -45.4060 H         1 UNK         0.0600 
    200 H200       -1.9409  -26.6832  -48.5782 H         1 UNK         0.3000 
    201 H201       -2.6011  -29.3012  -49.7596 H         1 UNK         0.0600 
    202 H202       -1.9385  -26.5954  -51.0264 H         1 UNK         0.0600 
    203 H203       -2.0853  -28.1258  -51.8832 H         1 UNK         0.0600 
    204 H204       -0.7820  -27.8916  -50.7296 H         1 UNK         0.0600 
    205 H205       -4.6514  -28.4473  -48.1550 H         1 UNK         0.3000 
    206 H206       -6.8194  -28.0140  -47.9418 H         1 UNK         0.0600 
    207 H207       -6.9311  -29.9882  -49.4882 H         1 UNK         0.0600 
    208 H208       -8.3176  -28.9303  -49.6815 H         1 UNK         0.0600 
    209 H209       -7.0221  -28.8982  -50.8711 H         1 UNK         0.0600 
    210 H210       -5.1845  -25.7754  -48.7475 H         1 UNK         0.3000 
    211 H211       -5.1351  -23.6769  -49.3915 H         1 UNK         0.0600 
    212 H212       -7.1450  -22.2673  -49.1925 H         1 UNK         0.0600 
    213 H213       -7.1126  -23.4326  -47.8806 H         1 UNK         0.0600 
    214 H214       -8.1928  -23.6763  -49.2533 H         1 UNK         0.0600 
    215 H215       -5.6820  -25.9059  -51.5491 H         1 UNK         0.3000 
    216 H216       -6.7641  -24.4442  -53.7979 H         1 UNK         0.0600 
    217 H217       -5.0989  -27.0180  -53.7303 H         1 UNK         0.0600 
    218 H218       -6.0465  -26.4232  -55.0860 H         1 UNK         0.0600 
    219 H219       -6.8563  -26.9410  -53.6142 H         1 UNK         0.0600 
    220 H220       -3.5018  -25.1181  -52.5306 H         1 UNK         0.3000 
    221 H221       -2.0882  -23.7576  -54.6698 H         1 UNK         0.0600 
    222 H222       -0.9958  -25.5197  -53.2835 H         1 UNK         0.0600 
    223 H223       -1.1541  -24.5063  -51.8493 H         1 UNK         0.0600 
    224 H224       -0.1271  -23.9963  -53.1789 H         1 UNK         0.0600 
    225 H225       -3.3837  -22.8376  -51.4832 H         1 UNK         0.3000 
    226 H226       -2.1398  -20.3207  -51.1906 H         1 UNK         0.0600 
    227 H227       -4.8382  -21.2838  -50.0986 H         1 UNK         0.0600 
    228 H228       -3.2735  -21.5198  -49.3205 H         1 UNK         0.0600 
    229 H229       -3.9320  -19.9047  -49.5130 H         1 UNK         0.0600 
    230 H230       -5.0365  -21.2088  -53.0080 H         1 UNK         0.3000 
    231 H231       -6.0383  -18.6128  -53.5537 H         1 UNK         0.0600 
    232 H232       -6.2204  -21.1921  -55.2029 H         1 UNK         0.0600 
    233 H233       -7.2532  -19.7803  -55.3921 H         1 UNK         0.0600 
    234 H234       -7.3202  -20.7199  -53.9083 H         1 UNK         0.0600 
    235 H235       -3.2376  -20.2663  -54.8496 H         1 UNK         0.3000 
    236 H236       -2.8557  -18.1948  -56.9787 H         1 UNK         0.0600 
    237 H237       -3.0868  -20.5435  -57.8205 H         1 UNK         0.0600 
    238 H238       -1.4630  -19.9294  -58.0834 H         1 UNK         0.0600 
    239 H239       -1.7697  -21.0560  -56.7659 H         1 UNK         0.0600 
    240 H240       -1.9673  -18.8543  -53.8566 H         1 UNK         0.3000 
    241 H241       -0.2731  -18.5601  -52.5002 H         1 UNK         0.0600 
    242 H242        1.6298  -21.2810  -54.2532 H         1 UNK         0.3800 
    243 H243       -0.0793  -20.8991  -54.1337 H         1 UNK         0.3800 
    244 H244        0.7745  -16.5452  -54.5460 H         1 UNK         0.0800 
    245 H245        1.4630  -16.7485  -52.9656 H         1 UNK         0.0800 
    246 H246        1.0427  -15.1858  -51.2412 H         1 UNK         0.0800 
    247 H247       -0.4931  -14.5201  -50.7670 H         1 UNK         0.0800 
@<TRIPOS>BOND
     1    1    2 1    
     2    1  127 1    
     3    1  128 1    
     4    1  129 1    
     5    2    3 2    
     6    2    4 am   BACKBONE|DICT|INTERRES
     7    4    5 1    
     8    4  130 1    
     9    5    6 1    
    10    5   65 1    
    11    5  131 1    
    12    6    7 1    
    13    6  132 1    
    14    6  133 1    
    15    7    8 1    
    16    8    9 1    
    17    8  134 1    
    18    8  135 1    
    19    9   10 ar   
    20    9   14 ar   
    21   10   11 ar   
    22   10  136 1    
    23   11   12 ar   
    24   11  126 1    
    25   12   13 ar   
    26   12  137 1    
    27   13   14 ar   
    28   13   15 1    
    29   14  138 1    
    30   15   16 1    
    31   15  139 1    
    32   15  140 1    
    33   16   17 1    
    34   17   18 1    
    35   17  141 1    
    36   17  142 1    
    37   18   19 1    
    38   18   67 1    
    39   18  143 1    
    40   19   20 am   BACKBONE|DICT|INTERRES
    41   19  144 1    
    42   20   21 2    
    43   20   22 1    
    44   22   23 1    
    45   22   24 1    
    46   22  145 1    
    47   23  146 1    
    48   23  147 1    
    49   23  148 1    
    50   24   25 am   BACKBONE|DICT|INTERRES
    51   24  149 1    
    52   25   26 2    
    53   25   27 1    
    54   27   28 1    
    55   27   29 1    
    56   27  150 1    
    57   28  151 1    
    58   28  152 1    
    59   28  153 1    
    60   29   30 am   BACKBONE|DICT|INTERRES
    61   29  154 1    
    62   30   31 2    
    63   30   32 1    
    64   32   33 1    
    65   32   34 1    
    66   32  155 1    
    67   33  156 1    
    68   33  157 1    
    69   33  158 1    
    70   34   35 am   BACKBONE|DICT|INTERRES
    71   34  159 1    
    72   35   36 2    
    73   35   37 1    
    74   37   38 1    
    75   37   39 1    
    76   37  160 1    
    77   38  161 1    
    78   38  162 1    
    79   38  163 1    
    80   39   40 am   BACKBONE|DICT|INTERRES
    81   39  164 1    
    82   40   41 2    
    83   40   42 1    
    84   42   43 1    
    85   42   44 1    
    86   42  165 1    
    87   43  166 1    
    88   43  167 1    
    89   43  168 1    
    90   44   45 am   BACKBONE|DICT|INTERRES
    91   44  169 1    
    92   45   46 2    
    93   45   47 1    
    94   47   48 1    
    95   47   49 1    
    96   47  170 1    
    97   48  171 1    
    98   48  172 1    
    99   48  173 1    
   100   49   50 am   BACKBONE|DICT|INTERRES
   101   49  174 1    
   102   50   51 2    
   103   50   52 1    
   104   52   53 1    
   105   52   54 1    
   106   52  175 1    
   107   53  176 1    
   108   53  177 1    
   109   53  178 1    
   110   54   55 am   BACKBONE|DICT|INTERRES
   111   54  179 1    
   112   55   56 2    
   113   55   57 1    
   114   57   58 1    
   115   57   59 1    
   116   57  180 1    
   117   58  181 1    
   118   58  182 1    
   119   58  183 1    
   120   59   60 am   BACKBONE|DICT|INTERRES
   121   59  184 1    
   122   60   61 2    
   123   60   62 1    
   124   62   63 1    
   125   62   64 1    
   126   62  185 1    
   127   63  186 1    
   128   63  187 1    
   129   63  188 1    
   130   64   65 am   BACKBONE|DICT|INTERRES
   131   64  189 1    
   132   65   66 2    
   133   67   68 2    
   134   67   69 am   BACKBONE|DICT|INTERRES
   135   69   70 1    
   136   69  190 1    
   137   70   71 1    
   138   70   72 1    
   139   70  191 1    
   140   71  192 1    
   141   71  193 1    
   142   71  194 1    
   143   72   73 2    
   144   72   74 am   BACKBONE|DICT|INTERRES
   145   74   75 1    
   146   74  195 1    
   147   75   76 1    
   148   75   77 1    
   149   75  196 1    
   150   76  197 1    
   151   76  198 1    
   152   76  199 1    
   153   77   78 2    
   154   77   79 am   BACKBONE|DICT|INTERRES
   155   79   80 1    
   156   79  200 1    
   157   80   81 1    
   158   80   82 1    
   159   80  201 1    
   160   81  202 1    
   161   81  203 1    
   162   81  204 1    
   163   82   83 2    
   164   82   84 am   BACKBONE|DICT|INTERRES
   165   84   85 1    
   166   84  205 1    
   167   85   86 1    
   168   85   87 1    
   169   85  206 1    
   170   86  207 1    
   171   86  208 1    
   172   86  209 1    
   173   87   88 2    
   174   87   89 am   BACKBONE|DICT|INTERRES
   175   89   90 1    
   176   89  210 1    
   177   90   91 1    
   178   90   92 1    
   179   90  211 1    
   180   91  212 1    
   181   91  213 1    
   182   91  214 1    
   183   92   93 2    
   184   92   94 am   BACKBONE|DICT|INTERRES
   185   94   95 1    
   186   94  215 1    
   187   95   96 1    
   188   95   97 1    
   189   95  216 1    
   190   96  217 1    
   191   96  218 1    
   192   96  219 1    
   193   97   98 2    
   194   97   99 am   BACKBONE|DICT|INTERRES
   195   99  100 1    
   196   99  220 1    
   197  100  101 1    
   198  100  102 1    
   199  100  221 1    
   200  101  222 1    
   201  101  223 1    
   202  101  224 1    
   203  102  103 2    
   204  102  104 am   BACKBONE|DICT|INTERRES
   205  104  105 1    
   206  104  225 1    
   207  105  106 1    
   208  105  107 1    
   209  105  226 1    
   210  106  227 1    
   211  106  228 1    
   212  106  229 1    
   213  107  108 2    
   214  107  109 am   BACKBONE|DICT|INTERRES
   215  109  110 1    
   216  109  230 1    
   217  110  111 1    
   218  110  112 1    
   219  110  231 1    
   220  111  232 1    
   221  111  233 1    
   222  111  234 1    
   223  112  113 2    
   224  112  114 am   BACKBONE|DICT|INTERRES
   225  114  115 1    
   226  114  235 1    
   227  115  116 1    
   228  115  117 1    
   229  115  236 1    
   230  116  237 1    
   231  116  238 1    
   232  116  239 1    
   233  117  118 2    
   234  117  119 am   BACKBONE|DICT|INTERRES
   235  119  120 1    
   236  119  240 1    
   237  120  121 1    
   238  120  124 1    
   239  120  241 1    
   240  121  122 am   BACKBONE|DICT|INTERRES
   241  121  123 2    
   242  122  242 1    
   243  122  243 1    
   244  124  125 1    
   245  124  244 1    
   246  124  245 1    
   247  125  126 1    
   248  126  246 1    
   249  126  247 1    
@<TRIPOS>SUBSTRUCTURE
     1 UNK         1 GROUP             0       ****    0 ROOT    
