@<TRIPOS>MOLECULE
3R540
247   249    1
SMALL
USER_CHARGES


@<TRIPOS>ATOM
      1 CA         -0.5670   -9.2669  -44.9704 C.3       0 UNK        -0.1800 
      2 C           0.4032   -9.7912  -46.0185 C.2       0 UNK         0.5000 
      3 O           1.0586   -9.0039  -46.7018 O.2       0 UNK        -0.5000 
      4 N           0.5146  -11.1181  -46.1402 N.am      1 UNK        -0.5000 
      5 CA          1.3861  -11.8269  -47.0799 C.3       1 UNK         0.1400 
      6 C6          0.7584  -13.1939  -47.4482 C.3       23 UNK        -0.0398 
      7 S7          1.4620  -13.9490  -48.9503 S.3       23 UNK        -0.2404 
      8 C8          0.7069  -15.5931  -48.8042 C.3       23 UNK        -0.0205 
      9 C9          1.0476  -16.4903  -49.9795 C.ar      23 UNK        -0.0193 
     10 C10         0.3228  -16.3858  -51.1688 C.ar      23 UNK        -0.1150 
     11 C11         0.6046  -17.2274  -52.2476 C.ar      23 UNK        -0.0193 
     12 C12         1.6215  -18.1798  -52.1302 C.ar      23 UNK        -0.1150 
     13 C13         2.3441  -18.3027  -50.9392 C.ar      23 UNK        -0.0193 
     14 C14         2.0575  -17.4498  -49.8687 C.ar      23 UNK        -0.1150 
     15 C15         3.4246  -19.3658  -50.8050 C.3       23 UNK        -0.0205 
     16 S16         2.7189  -21.0232  -50.5311 S.3       23 UNK        -0.2404 
     17 C17         1.8613  -20.7990  -48.9367 C.3       23 UNK        -0.0398 
     18 CA          1.7347  -22.1090  -48.1162 C.3       11 UNK         0.1400 
     19 N           1.7218  -21.8180  -46.6764 N.am      11 UNK        -0.5000 
     20 C           2.0054  -22.7003  -45.7087 C.2       10 UNK         0.5000 
     21 O           2.3836  -23.8522  -45.9229 O.2       10 UNK        -0.5000 
     22 CA          1.7900  -22.2277  -44.2587 C.3       10 UNK         0.1400 
     23 CB          3.0178  -21.4542  -43.7551 C.3       10 UNK        -0.1800 
     24 N           0.5867  -21.4064  -44.0891 N.am      10 UNK        -0.5000 
     25 C          -0.6701  -21.8392  -44.2703 C.2       9 UNK         0.5000 
     26 O          -0.9530  -22.9867  -44.6113 O.2       9 UNK        -0.5000 
     27 CA         -1.8017  -20.8114  -44.0873 C.3       9 UNK         0.1400 
     28 CB         -2.1110  -20.5819  -42.6009 C.3       9 UNK        -0.1800 
     29 N          -1.4921  -19.5351  -44.7262 N.am      9 UNK        -0.5000 
     30 C          -1.4215  -19.3452  -46.0497 C.2       8 UNK         0.5000 
     31 O          -1.7161  -20.2035  -46.8819 O.2       8 UNK        -0.5000 
     32 CA         -0.9127  -17.9748  -46.5258 C.3       8 UNK         0.1400 
     33 CB         -2.0670  -16.9671  -46.6305 C.3       8 UNK        -0.1800 
     34 N           0.1322  -17.4398  -45.6518 N.am      8 UNK        -0.5000 
     35 C           1.3630  -17.9608  -45.5464 C.2       7 UNK         0.5000 
     36 O           1.7440  -18.9426  -46.1821 O.2       7 UNK        -0.5000 
     37 CA          2.3154  -17.2887  -44.5417 C.3       7 UNK         0.1400 
     38 CB          2.9491  -16.0450  -45.1737 C.3       7 UNK        -0.1800 
     39 N           1.6523  -16.9158  -43.2910 N.am      7 UNK        -0.5000 
     40 C           1.0949  -17.7921  -42.4437 C.2       6 UNK         0.5000 
     41 O           1.1475  -19.0123  -42.5895 O.2       6 UNK        -0.5000 
     42 CA          0.2754  -17.2059  -41.2824 C.3       6 UNK         0.1400 
     43 CB          1.1760  -16.8624  -40.0868 C.3       6 UNK        -0.1800 
     44 N          -0.4972  -16.0274  -41.6821 N.am      6 UNK        -0.5000 
     45 C          -1.4954  -16.0418  -42.5800 C.2       5 UNK         0.5000 
     46 O          -1.8527  -17.0613  -43.1697 O.2       5 UNK        -0.5000 
     47 CA         -2.2138  -14.7121  -42.8830 C.3       5 UNK         0.1400 
     48 CB         -3.6476  -14.7415  -42.3320 C.3       5 UNK        -0.1800 
     49 N          -1.5117  -13.5624  -42.3123 N.am      5 UNK        -0.5000 
     50 C          -0.5498  -12.8688  -42.9323 C.2       4 UNK         0.5000 
     51 O          -0.2462  -13.0307  -44.1164 O.2       4 UNK        -0.5000 
     52 CA          0.2074  -11.8153  -42.0922 C.3       4 UNK         0.1400 
     53 CB         -0.0876  -11.8910  -40.5766 C.3       4 UNK        -0.1800 
     54 N           1.6576  -11.8479  -42.3097 N.am      4 UNK        -0.5000 
     55 C           2.4759  -12.9048  -42.1909 C.2       3 UNK         0.5000 
     56 O           2.0954  -14.0583  -41.9766 O.2       3 UNK        -0.5000 
     57 CA          3.9714  -12.5938  -42.3632 C.3       3 UNK         0.1400 
     58 CB          4.8805  -13.8096  -42.1108 C.3       3 UNK        -0.1800 
     59 N           4.1879  -12.0912  -43.7154 N.am      3 UNK        -0.5000 
     60 C           4.7087  -10.9060  -44.0473 C.2       2 UNK         0.5000 
     61 O           5.1431  -10.0976  -43.2263 O.2       2 UNK        -0.5000 
     62 CA          4.7109  -10.5356  -45.5454 C.3       2 UNK         0.1400 
     63 CB          5.8813  -11.2068  -46.2894 C.3       2 UNK        -0.1800 
     64 N           3.4255  -10.7718  -46.2203 N.am      2 UNK        -0.5000 
     65 C           2.8086  -11.9327  -46.4854 C.2       1 UNK         0.5000 
     66 O           3.2922  -13.0312  -46.2128 O.2       1 UNK        -0.5000 
     67 C           0.5081  -22.9477  -48.5598 C.2       11 UNK         0.5000 
     68 O           0.4910  -23.4635  -49.6776 O.2       11 UNK        -0.5000 
     69 N          -0.5006  -23.0589  -47.6804 N.am      12 UNK        -0.5000 
     70 CA         -1.7958  -23.7181  -47.8705 C.3       12 UNK         0.1400 
     71 CB         -1.6237  -25.2352  -48.0659 C.3       12 UNK        -0.1800 
     72 C          -2.6537  -23.0524  -48.9662 C.2       12 UNK         0.5000 
     73 O          -3.5014  -23.7054  -49.5767 O.2       12 UNK        -0.5000 
     74 N          -2.4349  -21.7465  -49.1614 N.am      13 UNK        -0.5000 
     75 CA         -3.2093  -20.8734  -50.0340 C.3       13 UNK         0.1400 
     76 CB         -2.4116  -19.5846  -50.2953 C.3       13 UNK        -0.1800 
     77 C          -4.5620  -20.5432  -49.3886 C.2       13 UNK         0.5000 
     78 O          -5.6022  -20.6762  -50.0357 O.2       13 UNK        -0.5000 
     79 N          -4.5102  -20.1642  -48.1018 N.am      14 UNK        -0.5000 
     80 CA         -5.6720  -19.8366  -47.2724 C.3       14 UNK         0.1400 
     81 CB         -5.2006  -19.1127  -46.0020 C.3       14 UNK        -0.1800 
     82 C          -6.5149  -21.0697  -46.9026 C.2       14 UNK         0.5000 
     83 O          -7.7041  -20.9301  -46.6174 O.2       14 UNK        -0.5000 
     84 N          -5.9025  -22.2599  -46.9517 N.am      15 UNK        -0.5000 
     85 CA         -6.5181  -23.5637  -46.6959 C.3       15 UNK         0.1400 
     86 CB         -5.4082  -24.5513  -46.2908 C.3       15 UNK        -0.1800 
     87 C          -7.3496  -24.0727  -47.8959 C.2       15 UNK         0.5000 
     88 O          -7.2753  -25.2528  -48.2355 O.2       15 UNK        -0.5000 
     89 N          -8.1117  -23.1685  -48.5281 N.am      16 UNK        -0.5000 
     90 CA         -8.9428  -23.3733  -49.7192 C.3       16 UNK         0.1400 
     91 CB        -10.1472  -24.2806  -49.3901 C.3       16 UNK        -0.1800 
     92 C          -8.1371  -23.8556  -50.9461 C.2       16 UNK         0.5000 
     93 O          -8.6206  -24.6976  -51.7054 O.2       16 UNK        -0.5000 
     94 N          -6.9249  -23.3018  -51.1123 N.am      17 UNK        -0.5000 
     95 CA         -5.9603  -23.5882  -52.1801 C.3       17 UNK         0.1400 
     96 CB         -6.4874  -23.0636  -53.5328 C.3       17 UNK        -0.1800 
     97 C          -5.5449  -25.0750  -52.2351 C.2       17 UNK         0.5000 
     98 O          -5.5820  -25.6963  -53.2994 O.2       17 UNK        -0.5000 
     99 N          -5.1843  -25.6312  -51.0712 N.am      18 UNK        -0.5000 
    100 CA        -4.8502  -27.0459  -50.8907 C.3       18 UNK         0.1400 
    101 CB        -4.9541  -27.4115  -49.4026 C.3       18 UNK        -0.1800 
    102 C         -3.4799  -27.4514  -51.4668 C.2       18 UNK         0.5000 
    103 O         -3.2684  -28.6409  -51.7097 O.2       18 UNK        -0.5000 
    104 N         -2.5866  -26.4804  -51.6931 N.am      19 UNK        -0.5000 
    105 CA        -1.3194  -26.6824  -52.3939 C.3       19 UNK         0.1400 
    106 CB        -0.1565  -26.8524  -51.3999 C.3       19 UNK        -0.1800 
    107 C         -1.0948  -25.5204  -53.3649 C.2       19 UNK         0.5000 
    108 O         -1.0895  -25.7352  -54.5777 O.2       19 UNK        -0.5000 
    109 N         -0.9410  -24.3061  -52.8219 N.am      20 UNK        -0.5000 
    110 CA        -0.8091  -23.0762  -53.5965 C.3       20 UNK         0.1400 
    111 CB        -0.2760  -21.9694  -52.6802 C.3       20 UNK        -0.1800 
    112 C         -2.1583  -22.6856  -54.2234 C.2       20 UNK         0.5000 
    113 O         -3.1308  -22.4833  -53.4942 O.2       20 UNK        -0.5000 
    114 N         -2.1912  -22.5816  -55.5591 N.am      21 UNK        -0.5000 
    115 CA        -3.3907  -22.3313  -56.3703 C.3       21 UNK         0.1400 
    116 CB        -3.0122  -22.4341  -57.8559 C.3       21 UNK        -0.1800 
    117 C         -4.0986  -20.9899  -56.0875 C.2       21 UNK         0.5000 
    118 O         -5.2815  -20.8488  -56.3992 O.2       21 UNK        -0.5000 
    119 N         -3.3670  -20.0422  -55.4936 N.am      22 UNK        -0.5000 
    120 CA        -3.8744  -18.7739  -54.9542 C.3       22 UNK         0.1400 
    121 C         -4.7845  -18.9155  -53.6939 C.2       22 UNK         0.5000 
    122 N         -4.8184  -20.0588  -53.0179 N.am      22 UNK        -0.7600 
    123 O         -5.4751  -17.9680  -53.3294 O.2       22 UNK        -0.5000 
    124 C124       -2.7082  -17.7814  -54.7071 C.3       23 UNK        -0.0398 
    125 S125       -1.4587  -18.4514  -53.5575 S.3       23 UNK        -0.2404 
    126 C126       -0.2174  -17.1297  -53.5219 C.3       23 UNK        -0.0205 
    127 H127       -1.2031  -10.0605  -44.5780 H         1 UNK         0.0600 
    128 H128       -1.2121   -8.5032  -45.4048 H         1 UNK         0.0600 
    129 H129       -0.0190   -8.8204  -44.1408 H         1 UNK         0.0600 
    130 H130        0.0258  -11.7237  -45.4853 H         1 UNK         0.3000 
    131 H131        1.4600  -11.2378  -47.9967 H         1 UNK         0.0600 
    132 H132        0.8242  -13.8920  -46.6124 H         1 UNK         0.0800 
    133 H133       -0.3084  -13.0643  -47.6373 H         1 UNK         0.0800 
    134 H134        1.0398  -16.0510  -47.8735 H         1 UNK         0.0800 
    135 H135       -0.3760  -15.4867  -48.7357 H         1 UNK         0.0800 
    136 H136       -0.4695  -15.6547  -51.2490 H         1 UNK         0.1150 
    137 H137        1.8310  -18.8452  -52.9561 H         1 UNK         0.1150 
    138 H138        2.6094  -17.5423  -48.9436 H         1 UNK         0.1150 
    139 H139        4.0280  -19.3850  -51.7136 H         1 UNK         0.0800 
    140 H140        4.1087  -19.1222  -49.9906 H         1 UNK         0.0800 
    141 H141        0.8909  -20.3265  -49.1028 H         1 UNK         0.0800 
    142 H142        2.4518  -20.0755  -48.3749 H         1 UNK         0.0800 
    143 H143        2.6196  -22.7193  -48.3094 H         1 UNK         0.0600 
    144 H144        1.4924  -20.8638  -46.4115 H         1 UNK         0.3000 
    145 H145        1.6730  -23.1175  -43.6366 H         1 UNK         0.0600 
    146 H146        2.9149  -21.1947  -42.7014 H         1 UNK         0.0600 
    147 H147        3.9251  -22.0513  -43.8553 H         1 UNK         0.0600 
    148 H148        3.1684  -20.5305  -44.3142 H         1 UNK         0.0600 
    149 H149        0.7334  -20.4581  -43.7526 H         1 UNK         0.3000 
    150 H150       -2.6989  -21.2182  -44.5587 H         1 UNK         0.0600 
    151 H151       -2.3874  -21.5165  -42.1114 H         1 UNK         0.0600 
    152 H152       -2.9433  -19.8888  -42.4755 H         1 UNK         0.0600 
    153 H153       -1.2537  -20.1724  -42.0668 H         1 UNK         0.0600 
    154 H154       -1.3121  -18.7461  -44.1137 H         1 UNK         0.3000 
    155 H155       -0.4843  -18.1082  -47.5216 H         1 UNK         0.0600 
    156 H156       -2.6259  -16.8901  -45.6979 H         1 UNK         0.0600 
    157 H157       -1.7088  -15.9693  -46.8805 H         1 UNK         0.0600 
    158 H158       -2.7686  -17.2651  -47.4104 H         1 UNK         0.0600 
    159 H159       -0.1212  -16.6679  -45.0537 H         1 UNK         0.3000 
    160 H160        3.1100  -18.0004  -44.3094 H         1 UNK         0.0600 
    161 H161        2.2191  -15.2440  -45.2843 H         1 UNK         0.0600 
    162 H162        3.3551  -16.2610  -46.1631 H         1 UNK         0.0600 
    163 H163        3.7694  -15.6676  -44.5672 H         1 UNK         0.0600 
    164 H164        1.5987  -15.9286  -43.0670 H         1 UNK         0.3000 
    165 H165       -0.4331  -17.9720  -40.9603 H         1 UNK         0.0600 
    166 H166        0.5907  -16.4929  -39.2447 H         1 UNK         0.0600 
    167 H167        1.7174  -17.7449  -39.7435 H         1 UNK         0.0600 
    168 H168        1.9169  -16.1040  -40.3392 H         1 UNK         0.0600 
    169 H169       -0.2113  -15.1448  -41.2848 H         1 UNK         0.3000 
    170 H170       -2.2697  -14.6101  -43.9690 H         1 UNK         0.0600 
    171 H171       -3.6612  -14.8591  -41.2477 H         1 UNK         0.0600 
    172 H172       -4.1825  -13.8239  -42.5775 H         1 UNK         0.0600 
    173 H173       -4.2139  -15.5702  -42.7594 H         1 UNK         0.0600 
    174 H174       -1.7169  -13.3459  -41.3473 H         1 UNK         0.3000 
    175 H175       -0.1356  -10.8428  -42.4454 H         1 UNK         0.0600 
    176 H176        0.4670  -11.1242  -40.0354 H         1 UNK         0.0600 
    177 H177        0.1929  -12.8565  -40.1532 H         1 UNK         0.0600 
    178 H178       -1.1437  -11.7213  -40.3638 H         1 UNK         0.0600 
    179 H179        2.0797  -10.9602  -42.5410 H         1 UNK         0.3000 
    180 H180        4.2222  -11.8312  -41.6232 H         1 UNK         0.0600 
    181 H181        4.6789  -14.6211  -42.8073 H         1 UNK         0.0600 
    182 H182        4.7376  -14.1999  -41.1025 H         1 UNK         0.0600 
    183 H183        5.9318  -13.5393  -42.2091 H         1 UNK         0.0600 
    184 H184        3.8322  -12.6683  -44.4750 H         1 UNK         0.3000 
    185 H185        4.8713   -9.4576  -45.5988 H         1 UNK         0.0600 
    186 H186        6.8357  -10.9221  -45.8450 H         1 UNK         0.0600 
    187 H187        5.8215  -12.2948  -46.2551 H         1 UNK         0.0600 
    188 H188        5.9074  -10.9051  -47.3364 H         1 UNK         0.0600 
    189 H189        2.8976   -9.9322  -46.4367 H         1 UNK         0.3000 
    190 H190       -0.3801  -22.6204  -46.7768 H         1 UNK         0.3000 
    191 H191       -2.3391  -23.5709  -46.9365 H         1 UNK         0.0600 
    192 H192       -0.9185  -25.6510  -47.3462 H         1 UNK         0.0600 
    193 H193       -2.5698  -25.7525  -47.9222 H         1 UNK         0.0600 
    194 H194       -1.2681  -25.4755  -49.0652 H         1 UNK         0.0600 
    195 H195       -1.7807  -21.2864  -48.5379 H         1 UNK         0.3000 
    196 H196       -3.3822  -21.3841  -50.9825 H         1 UNK         0.0600 
    197 H197       -1.4514  -19.7943  -50.7652 H         1 UNK         0.0600 
    198 H198       -2.2108  -19.0317  -49.3775 H         1 UNK         0.0600 
    199 H199       -2.9606  -18.9181  -50.9611 H         1 UNK         0.0600 
    200 H200       -3.6016  -20.1183  -47.6541 H         1 UNK         0.3000 
    201 H201       -6.3147  -19.1575  -47.8365 H         1 UNK         0.0600 
    202 H202       -4.7029  -18.1755  -46.2452 H         1 UNK         0.0600 
    203 H203       -4.5096  -19.7233  -45.4205 H         1 UNK         0.0600 
    204 H204       -6.0439  -18.8675  -45.3551 H         1 UNK         0.0600 
    205 H205       -4.9384  -22.2726  -47.2449 H         1 UNK         0.3000 
    206 H206       -7.2033  -23.4660  -45.8515 H         1 UNK         0.0600 
    207 H207       -4.8306  -24.1758  -45.4458 H         1 UNK         0.0600 
    208 H208       -5.8279  -25.5127  -45.9924 H         1 UNK         0.0600 
    209 H209       -4.7190  -24.7370  -47.1146 H         1 UNK         0.0600 
    210 H210       -8.1176  -22.2310  -48.1416 H         1 UNK         0.3000 
    211 H211       -9.3365  -22.3918  -49.9867 H         1 UNK         0.0600 
    212 H212       -9.8361  -25.3014  -49.1658 H         1 UNK         0.0600 
    213 H213      -10.8425  -24.3278  -50.2290 H         1 UNK         0.0600 
    214 H214      -10.7024  -23.9028  -48.5317 H         1 UNK         0.0600 
    215 H215       -6.6251  -22.6046  -50.4415 H         1 UNK         0.3000 
    216 H216       -5.0631  -23.0258  -51.9247 H         1 UNK         0.0600 
    217 H217       -7.3589  -23.6224  -53.8745 H         1 UNK         0.0600 
    218 H218       -5.7237  -23.1476  -54.3054 H         1 UNK         0.0600 
    219 H219       -6.7702  -22.0134  -53.4696 H         1 UNK         0.0600 
    220 H220       -5.1162  -25.0387  -50.2526 H         1 UNK         0.3000 
    221 H221       -5.5969  -27.6375  -51.4247 H         1 UNK         0.0600 
    222 H222       -4.3869  -26.7252  -48.7775 H         1 UNK         0.0600 
    223 H223       -5.9907  -27.3860  -49.0688 H         1 UNK         0.0600 
    224 H224       -4.5834  -28.4194  -49.2113 H         1 UNK         0.0600 
    225 H225       -2.8543  -25.5262  -51.4911 H         1 UNK         0.3000 
    226 H226       -1.3740  -27.5897  -52.9999 H         1 UNK         0.0600 
    227 H227       -0.3571  -27.6559  -50.6911 H         1 UNK         0.0600 
    228 H228        0.7637  -27.1062  -51.9270 H         1 UNK         0.0600 
    229 H229        0.0404  -25.9445  -50.8317 H         1 UNK         0.0600 
    230 H230       -0.9344  -24.2034  -51.8167 H         1 UNK         0.3000 
    231 H231       -0.0757  -23.2395  -54.3890 H         1 UNK         0.0600 
    232 H232       -0.9504  -21.7800  -51.8461 H         1 UNK         0.0600 
    233 H233       -0.1407  -21.0358  -53.2248 H         1 UNK         0.0600 
    234 H234        0.6929  -22.2448  -52.2664 H         1 UNK         0.0600 
    235 H235       -1.3435  -22.7660  -56.0760 H         1 UNK         0.3000 
    236 H236       -4.1062  -23.1248  -56.1467 H         1 UNK         0.0600 
    237 H237       -3.8847  -22.2868  -58.4938 H         1 UNK         0.0600 
    238 H238       -2.2716  -21.6832  -58.1342 H         1 UNK         0.0600 
    239 H239       -2.6022  -23.4162  -58.0924 H         1 UNK         0.0600 
    240 H240       -2.4082  -20.2565  -55.2629 H         1 UNK         0.3000 
    241 H241       -4.5103  -18.3349  -55.7251 H         1 UNK         0.0600 
    242 H242       -4.2433  -20.8459  -53.2990 H         1 UNK         0.3800 
    243 H243       -5.4029  -20.1303  -52.1975 H         1 UNK         0.3800 
    244 H244       -2.2172  -17.5481  -55.6528 H         1 UNK         0.0800 
    245 H245       -3.0818  -16.8322  -54.3190 H         1 UNK         0.0800 
    246 H246        0.4293  -17.2098  -54.3967 H         1 UNK         0.0800 
    247 H247       -0.7090  -16.1575  -53.5824 H         1 UNK         0.0800 
@<TRIPOS>BOND
     1    1    2 1    
     2    1  127 1    
     3    1  128 1    
     4    1  129 1    
     5    2    3 2    
     6    2    4 am   BACKBONE|DICT|INTERRES
     7    4    5 1    
     8    4  130 1    
     9    5    6 1    
    10    5   65 1    
    11    5  131 1    
    12    6    7 1    
    13    6  132 1    
    14    6  133 1    
    15    7    8 1    
    16    8    9 1    
    17    8  134 1    
    18    8  135 1    
    19    9   10 ar   
    20    9   14 ar   
    21   10   11 ar   
    22   10  136 1    
    23   11   12 ar   
    24   11  126 1    
    25   12   13 ar   
    26   12  137 1    
    27   13   14 ar   
    28   13   15 1    
    29   14  138 1    
    30   15   16 1    
    31   15  139 1    
    32   15  140 1    
    33   16   17 1    
    34   17   18 1    
    35   17  141 1    
    36   17  142 1    
    37   18   19 1    
    38   18   67 1    
    39   18  143 1    
    40   19   20 am   BACKBONE|DICT|INTERRES
    41   19  144 1    
    42   20   21 2    
    43   20   22 1    
    44   22   23 1    
    45   22   24 1    
    46   22  145 1    
    47   23  146 1    
    48   23  147 1    
    49   23  148 1    
    50   24   25 am   BACKBONE|DICT|INTERRES
    51   24  149 1    
    52   25   26 2    
    53   25   27 1    
    54   27   28 1    
    55   27   29 1    
    56   27  150 1    
    57   28  151 1    
    58   28  152 1    
    59   28  153 1    
    60   29   30 am   BACKBONE|DICT|INTERRES
    61   29  154 1    
    62   30   31 2    
    63   30   32 1    
    64   32   33 1    
    65   32   34 1    
    66   32  155 1    
    67   33  156 1    
    68   33  157 1    
    69   33  158 1    
    70   34   35 am   BACKBONE|DICT|INTERRES
    71   34  159 1    
    72   35   36 2    
    73   35   37 1    
    74   37   38 1    
    75   37   39 1    
    76   37  160 1    
    77   38  161 1    
    78   38  162 1    
    79   38  163 1    
    80   39   40 am   BACKBONE|DICT|INTERRES
    81   39  164 1    
    82   40   41 2    
    83   40   42 1    
    84   42   43 1    
    85   42   44 1    
    86   42  165 1    
    87   43  166 1    
    88   43  167 1    
    89   43  168 1    
    90   44   45 am   BACKBONE|DICT|INTERRES
    91   44  169 1    
    92   45   46 2    
    93   45   47 1    
    94   47   48 1    
    95   47   49 1    
    96   47  170 1    
    97   48  171 1    
    98   48  172 1    
    99   48  173 1    
   100   49   50 am   BACKBONE|DICT|INTERRES
   101   49  174 1    
   102   50   51 2    
   103   50   52 1    
   104   52   53 1    
   105   52   54 1    
   106   52  175 1    
   107   53  176 1    
   108   53  177 1    
   109   53  178 1    
   110   54   55 am   BACKBONE|DICT|INTERRES
   111   54  179 1    
   112   55   56 2    
   113   55   57 1    
   114   57   58 1    
   115   57   59 1    
   116   57  180 1    
   117   58  181 1    
   118   58  182 1    
   119   58  183 1    
   120   59   60 am   BACKBONE|DICT|INTERRES
   121   59  184 1    
   122   60   61 2    
   123   60   62 1    
   124   62   63 1    
   125   62   64 1    
   126   62  185 1    
   127   63  186 1    
   128   63  187 1    
   129   63  188 1    
   130   64   65 am   BACKBONE|DICT|INTERRES
   131   64  189 1    
   132   65   66 2    
   133   67   68 2    
   134   67   69 am   BACKBONE|DICT|INTERRES
   135   69   70 1    
   136   69  190 1    
   137   70   71 1    
   138   70   72 1    
   139   70  191 1    
   140   71  192 1    
   141   71  193 1    
   142   71  194 1    
   143   72   73 2    
   144   72   74 am   BACKBONE|DICT|INTERRES
   145   74   75 1    
   146   74  195 1    
   147   75   76 1    
   148   75   77 1    
   149   75  196 1    
   150   76  197 1    
   151   76  198 1    
   152   76  199 1    
   153   77   78 2    
   154   77   79 am   BACKBONE|DICT|INTERRES
   155   79   80 1    
   156   79  200 1    
   157   80   81 1    
   158   80   82 1    
   159   80  201 1    
   160   81  202 1    
   161   81  203 1    
   162   81  204 1    
   163   82   83 2    
   164   82   84 am   BACKBONE|DICT|INTERRES
   165   84   85 1    
   166   84  205 1    
   167   85   86 1    
   168   85   87 1    
   169   85  206 1    
   170   86  207 1    
   171   86  208 1    
   172   86  209 1    
   173   87   88 2    
   174   87   89 am   BACKBONE|DICT|INTERRES
   175   89   90 1    
   176   89  210 1    
   177   90   91 1    
   178   90   92 1    
   179   90  211 1    
   180   91  212 1    
   181   91  213 1    
   182   91  214 1    
   183   92   93 2    
   184   92   94 am   BACKBONE|DICT|INTERRES
   185   94   95 1    
   186   94  215 1    
   187   95   96 1    
   188   95   97 1    
   189   95  216 1    
   190   96  217 1    
   191   96  218 1    
   192   96  219 1    
   193   97   98 2    
   194   97   99 am   BACKBONE|DICT|INTERRES
   195   99  100 1    
   196   99  220 1    
   197  100  101 1    
   198  100  102 1    
   199  100  221 1    
   200  101  222 1    
   201  101  223 1    
   202  101  224 1    
   203  102  103 2    
   204  102  104 am   BACKBONE|DICT|INTERRES
   205  104  105 1    
   206  104  225 1    
   207  105  106 1    
   208  105  107 1    
   209  105  226 1    
   210  106  227 1    
   211  106  228 1    
   212  106  229 1    
   213  107  108 2    
   214  107  109 am   BACKBONE|DICT|INTERRES
   215  109  110 1    
   216  109  230 1    
   217  110  111 1    
   218  110  112 1    
   219  110  231 1    
   220  111  232 1    
   221  111  233 1    
   222  111  234 1    
   223  112  113 2    
   224  112  114 am   BACKBONE|DICT|INTERRES
   225  114  115 1    
   226  114  235 1    
   227  115  116 1    
   228  115  117 1    
   229  115  236 1    
   230  116  237 1    
   231  116  238 1    
   232  116  239 1    
   233  117  118 2    
   234  117  119 am   BACKBONE|DICT|INTERRES
   235  119  120 1    
   236  119  240 1    
   237  120  121 1    
   238  120  124 1    
   239  120  241 1    
   240  121  122 am   BACKBONE|DICT|INTERRES
   241  121  123 2    
   242  122  242 1    
   243  122  243 1    
   244  124  125 1    
   245  124  244 1    
   246  124  245 1    
   247  125  126 1    
   248  126  246 1    
   249  126  247 1    
@<TRIPOS>SUBSTRUCTURE
     1 UNK         1 GROUP             0       ****    0 ROOT    
