@<TRIPOS>MOLECULE
3R540
247   249    1
SMALL
USER_CHARGES


@<TRIPOS>ATOM
      1 CA          4.5032  -11.8424  -48.5838 C.3       0 UNK        -0.1800 
      2 C           3.4540  -12.9146  -48.3271 C.2       0 UNK         0.5000 
      3 O           2.6357  -12.7658  -47.4203 O.2       0 UNK        -0.5000 
      4 N           3.4776  -13.9934  -49.1204 N.am      1 UNK        -0.5000 
      5 CA          2.5463  -15.1256  -49.0268 C.3       1 UNK         0.1400 
      6 C6          3.0291  -16.3413  -49.8510 C.3       23 UNK        -0.0398 
      7 S7          4.6306  -17.0072  -49.2847 S.3       23 UNK        -0.2404 
      8 C8          5.3099  -17.6738  -50.8401 C.3       23 UNK        -0.0205 
      9 C9          4.5505  -18.9077  -51.3077 C.ar      23 UNK        -0.0193 
     10 C10         3.4038  -18.7716  -52.0959 C.ar      23 UNK        -0.1150 
     11 C11         2.6715  -19.8940  -52.4885 C.ar      23 UNK        -0.0193 
     12 C12         3.1283  -21.1665  -52.1367 C.ar      23 UNK        -0.1150 
     13 C13         4.2893  -21.3204  -51.3729 C.ar      23 UNK        -0.0193 
     14 C14         4.9909  -20.1865  -50.9521 C.ar      23 UNK        -0.1150 
     15 C15         4.7810  -22.7134  -51.0040 C.3       23 UNK        -0.0205 
     16 S16         4.2555  -23.2130  -49.3339 S.3       23 UNK        -0.2404 
     17 C17         2.4407  -23.1449  -49.5037 C.3       23 UNK        -0.0398 
     18 CA          1.6893  -23.7235  -48.2841 C.3       11 UNK         0.1400 
     19 N           2.0986  -23.0797  -47.0294 N.am      11 UNK        -0.5000 
     20 C           1.6371  -23.3581  -45.8041 C.2       10 UNK         0.5000 
     21 O           0.8177  -24.2476  -45.5705 O.2       10 UNK        -0.5000 
     22 CA          2.1001  -22.4381  -44.6625 C.3       10 UNK         0.1400 
     23 CB          3.5113  -22.8087  -44.1703 C.3       10 UNK        -0.1800 
     24 N           1.9808  -21.0073  -44.9780 N.am      10 UNK        -0.5000 
     25 C           2.6991  -20.2563  -45.8312 C.2       9 UNK         0.5000 
     26 O           3.5982  -20.7040  -46.5423 O.2       9 UNK        -0.5000 
     27 CA          2.3374  -18.7571  -45.9374 C.3       9 UNK         0.1400 
     28 CB          1.5153  -18.5063  -47.2115 C.3       9 UNK        -0.1800 
     29 N           1.5796  -18.2569  -44.7885 N.am      9 UNK        -0.5000 
     30 C           2.0352  -18.1869  -43.5299 C.2       8 UNK         0.5000 
     31 O           3.2157  -18.3628  -43.2267 O.2       8 UNK        -0.5000 
     32 CA          0.9998  -17.9280  -42.4127 C.3       8 UNK         0.1400 
     33 CB          1.2522  -16.5702  -41.7389 C.3       8 UNK        -0.1800 
     34 N          -0.4123  -18.0166  -42.8162 N.am      8 UNK        -0.5000 
     35 C          -1.0265  -19.1037  -43.3140 C.2       7 UNK         0.5000 
     36 O          -0.4379  -20.1578  -43.5633 O.2       7 UNK        -0.5000 
     37 CA         -2.5349  -18.9727  -43.6202 C.3       7 UNK         0.1400 
     38 CB         -3.2470  -20.3342  -43.7685 C.3       7 UNK        -0.1800 
     39 N          -3.2421  -18.1085  -42.6706 N.am      7 UNK        -0.5000 
     40 C          -3.3724  -18.2896  -41.3458 C.2       6 UNK         0.5000 
     41 O          -2.9606  -19.2849  -40.7478 O.2       6 UNK        -0.5000 
     42 CA         -4.0778  -17.1607  -40.5567 C.3       6 UNK         0.1400 
     43 CB         -3.5682  -17.0514  -39.1040 C.3       6 UNK        -0.1800 
     44 N          -4.0295  -15.8469  -41.2158 N.am      6 UNK        -0.5000 
     45 C          -2.9300  -15.1611  -41.5589 C.2       5 UNK         0.5000 
     46 O          -1.7792  -15.5520  -41.3560 O.2       5 UNK        -0.5000 
     47 CA         -3.1602  -13.8200  -42.2764 C.3       5 UNK         0.1400 
     48 CB         -3.0367  -12.6524  -41.2860 C.3       5 UNK        -0.1800 
     49 N          -2.2233  -13.6118  -43.3815 N.am      5 UNK        -0.5000 
     50 C          -2.1054  -14.4052  -44.4543 C.2       4 UNK         0.5000 
     51 O          -2.7636  -15.4346  -44.6293 O.2       4 UNK        -0.5000 
     52 CA         -1.0798  -13.9663  -45.5175 C.3       4 UNK         0.1400 
     53 CB          0.0708  -14.9811  -45.6049 C.3       4 UNK        -0.1800 
     54 N          -1.6906  -13.8169  -46.8393 N.am      4 UNK        -0.5000 
     55 C          -2.7078  -12.9946  -47.1404 C.2       3 UNK         0.5000 
     56 O          -3.1944  -12.1919  -46.3417 O.2       3 UNK        -0.5000 
     57 CA         -3.2802  -13.0973  -48.5720 C.3       3 UNK         0.1400 
     58 CB         -4.0971  -11.8584  -48.9937 C.3       3 UNK        -0.1800 
     59 N          -2.2695  -13.4218  -49.5826 N.am      3 UNK        -0.5000 
     60 C          -1.1854  -12.7031  -49.9013 C.2       2 UNK         0.5000 
     61 O          -0.8867  -11.6224  -49.3891 O.2       2 UNK        -0.5000 
     62 CA         -0.2639  -13.3203  -50.9666 C.3       2 UNK         0.1400 
     63 CB          0.0440  -12.3131  -52.0865 C.3       2 UNK        -0.1800 
     64 N           0.9930  -13.7917  -50.3899 N.am      2 UNK        -0.5000 
     65 C           1.1137  -14.7549  -49.4650 C.2       1 UNK         0.5000 
     66 O           0.1598  -15.3610  -48.9775 O.2       1 UNK        -0.5000 
     67 C           0.1682  -23.6029  -48.5125 C.2       11 UNK         0.5000 
     68 O          -0.4645  -24.5496  -48.9778 O.2       11 UNK        -0.5000 
     69 N          -0.3798  -22.4467  -48.1133 N.am      12 UNK        -0.5000 
     70 CA         -1.7971  -22.0980  -48.0820 C.3       12 UNK         0.1400 
     71 CB         -1.9153  -20.7104  -47.4350 C.3       12 UNK        -0.1800 
     72 C          -2.6686  -23.1044  -47.3117 C.2       12 UNK         0.5000 
     73 O          -3.7539  -23.4525  -47.7804 O.2       12 UNK        -0.5000 
     74 N          -2.1674  -23.5427  -46.1498 N.am      13 UNK        -0.5000 
     75 CA         -2.8171  -24.5164  -45.2784 C.3       13 UNK         0.1400 
     76 CB         -2.3487  -24.2943  -43.8319 C.3       13 UNK        -0.1800 
     77 C          -2.5275  -25.9572  -45.7259 C.2       13 UNK         0.5000 
     78 O          -3.4307  -26.7914  -45.6821 O.2       13 UNK        -0.5000 
     79 N          -1.2863  -26.2200  -46.1620 N.am      14 UNK        -0.5000 
     80 CA         -0.8188  -27.5332  -46.6122 C.3       14 UNK         0.1400 
     81 CB          0.7015  -27.4924  -46.8248 C.3       14 UNK        -0.1800 
     82 C          -1.5347  -28.0265  -47.8828 C.2       14 UNK         0.5000 
     83 O          -1.9428  -29.1872  -47.9379 O.2       14 UNK        -0.5000 
     84 N          -1.7004  -27.1312  -48.8661 N.am      15 UNK        -0.5000 
     85 CA         -2.4606  -27.3870  -50.0918 C.3       15 UNK         0.1400 
     86 CB         -1.9749  -26.4265  -51.1894 C.3       15 UNK        -0.1800 
     87 C          -3.9800  -27.2303  -49.8886 C.2       15 UNK         0.5000 
     88 O          -4.7500  -27.7028  -50.7250 O.2       15 UNK        -0.5000 
     89 N          -4.3748  -26.5417  -48.8057 N.am      16 UNK        -0.5000 
     90 CA         -5.7397  -26.1536  -48.4272 C.3       16 UNK         0.1400 
     91 CB         -6.6046  -27.3947  -48.1265 C.3       16 UNK        -0.1800 
     92 C          -6.4025  -25.1872  -49.4348 C.2       16 UNK         0.5000 
     93 O          -7.6301  -25.1004  -49.4943 O.2       16 UNK        -0.5000 
     94 N          -5.5738  -24.4719  -50.2061 N.am      17 UNK        -0.5000 
     95 CA         -5.9860  -23.5093  -51.2261 C.3       17 UNK         0.1400 
     96 CB         -4.8609  -23.3950  -52.2675 C.3       17 UNK        -0.1800 
     97 C          -6.3124  -22.1225  -50.6427 C.2       17 UNK         0.5000 
     98 O          -6.9897  -21.3418  -51.3123 O.2       17 UNK        -0.5000 
     99 N          -5.8141  -21.8495  -49.4255 N.am      18 UNK        -0.5000 
    100 CA        -5.7887  -20.5647  -48.7189 C.3       18 UNK         0.1400 
    101 CB        -7.1948  -19.9485  -48.5745 C.3       18 UNK        -0.1800 
    102 C         -4.7929  -19.5699  -49.3471 C.2       18 UNK         0.5000 
    103 O         -4.4107  -19.6948  -50.5116 O.2       18 UNK        -0.5000 
    104 N         -4.3631  -18.5902  -48.5432 N.am      19 UNK        -0.5000 
    105 CA        -3.2986  -17.6471  -48.8980 C.3       19 UNK         0.1400 
    106 CB        -2.8187  -16.9429  -47.6253 C.3       19 UNK        -0.1800 
    107 C         -3.6965  -16.6288  -49.9798 C.2       19 UNK         0.5000 
    108 O         -2.8178  -16.0423  -50.6121 O.2       19 UNK        -0.5000 
    109 N         -5.0056  -16.4466  -50.1969 N.am      20 UNK        -0.5000 
    110 CA        -5.5636  -15.6302  -51.2753 C.3       20 UNK         0.1400 
    111 CB        -7.0834  -15.5182  -51.0876 C.3       20 UNK        -0.1800 
    112 C         -5.2262  -16.1777  -52.6767 C.2       20 UNK         0.5000 
    113 O         -5.0504  -15.3884  -53.6053 O.2       20 UNK        -0.5000 
    114 N         -5.0871  -17.5080  -52.7984 N.am      21 UNK        -0.5000 
    115 CA        -4.6870  -18.1910  -54.0322 C.3       21 UNK         0.1400 
    116 CB        -4.9173  -19.7020  -53.8764 C.3       21 UNK        -0.1800 
    117 C         -3.2265  -17.9063  -54.4349 C.2       21 UNK         0.5000 
    118 O         -2.8960  -18.0072  -55.6170 O.2       21 UNK        -0.5000 
    119 N         -2.3914  -17.5362  -53.4559 N.am      22 UNK        -0.5000 
    120 CA        -1.0023  -17.0992  -53.6529 C.3       22 UNK         0.1400 
    121 C         -0.8655  -15.5907  -54.0128 C.2       22 UNK         0.5000 
    122 N         -1.9377  -14.8074  -54.0704 N.am      22 UNK        -0.7600 
    123 O          0.2407  -15.1227  -54.2644 O.2       22 UNK        -0.5000 
    124 C124       -0.1019  -17.4857  -52.4499 C.3       23 UNK        -0.0398 
    125 S125       -0.0214  -19.2957  -52.2147 S.3       23 UNK        -0.2404 
    126 C126        1.3864  -19.7372  -53.2870 C.3       23 UNK        -0.0205 
    127 H127        5.1636  -12.1097  -49.4091 H         1 UNK         0.0600 
    128 H128        5.1145  -11.6952  -47.6935 H         1 UNK         0.0600 
    129 H129        4.0202  -10.8961  -48.8274 H         1 UNK         0.0600 
    130 H130        4.1957  -14.0729  -49.8264 H         1 UNK         0.3000 
    131 H131        2.4943  -15.4259  -47.9785 H         1 UNK         0.0600 
    132 H132        3.1124  -16.0560  -50.9005 H         1 UNK         0.0800 
    133 H133        2.3012  -17.1539  -49.8111 H         1 UNK         0.0800 
    134 H134        6.3604  -17.9236  -50.6833 H         1 UNK         0.0800 
    135 H135        5.2959  -16.9035  -51.6126 H         1 UNK         0.0800 
    136 H136        3.0684  -17.7889  -52.3889 H         1 UNK         0.1150 
    137 H137        2.5731  -22.0397  -52.4493 H         1 UNK         0.1150 
    138 H138        5.8780  -20.3009  -50.3449 H         1 UNK         0.1150 
    139 H139        4.4264  -23.4477  -51.7290 H         1 UNK         0.0800 
    140 H140        5.8705  -22.7409  -51.0537 H         1 UNK         0.0800 
    141 H141        2.1602  -23.6836  -50.4109 H         1 UNK         0.0800 
    142 H142        2.1572  -22.1020  -49.6581 H         1 UNK         0.0800 
    143 H143        1.9331  -24.7833  -48.2016 H         1 UNK         0.0600 
    144 H144        2.7804  -22.3290  -47.1086 H         1 UNK         0.3000 
    145 H145        1.4137  -22.6066  -43.8310 H         1 UNK         0.0600 
    146 H146        3.8153  -22.1761  -43.3363 H         1 UNK         0.0600 
    147 H147        3.5399  -23.8421  -43.8228 H         1 UNK         0.0600 
    148 H148        4.2607  -22.7114  -44.9561 H         1 UNK         0.0600 
    149 H149        1.2230  -20.5462  -44.4809 H         1 UNK         0.3000 
    150 H150        3.2701  -18.1936  -46.0071 H         1 UNK         0.0600 
    151 H151        2.0519  -18.8505  -48.0968 H         1 UNK         0.0600 
    152 H152        1.3076  -17.4457  -47.3469 H         1 UNK         0.0600 
    153 H153        0.5604  -19.0300  -47.1834 H         1 UNK         0.0600 
    154 H154        0.5960  -18.0924  -44.9350 H         1 UNK         0.3000 
    155 H155        1.1644  -18.7047  -41.6633 H         1 UNK         0.0600 
    156 H156        0.9882  -15.7386  -42.3917 H         1 UNK         0.0600 
    157 H157        0.6694  -16.4751  -40.8229 H         1 UNK         0.0600 
    158 H158        2.3005  -16.4515  -41.4615 H         1 UNK         0.0600 
    159 H159       -0.9785  -17.2027  -42.6053 H         1 UNK         0.3000 
    160 H160       -2.5962  -18.4683  -44.5849 H         1 UNK         0.0600 
    161 H161       -3.1964  -20.9198  -42.8505 H         1 UNK         0.0600 
    162 H162       -2.7954  -20.9340  -44.5583 H         1 UNK         0.0600 
    163 H163       -4.2981  -20.2034  -44.0250 H         1 UNK         0.0600 
    164 H164       -3.5889  -17.2406  -43.0583 H         1 UNK         0.3000 
    165 H165       -5.1312  -17.4409  -40.5149 H         1 UNK         0.0600 
    166 H166       -4.0831  -16.2568  -38.5640 H         1 UNK         0.0600 
    167 H167       -3.7418  -17.9779  -38.5554 H         1 UNK         0.0600 
    168 H168       -2.4982  -16.8447  -39.0651 H         1 UNK         0.0600 
    169 H169       -4.9306  -15.4473  -41.4401 H         1 UNK         0.3000 
    170 H170       -4.1682  -13.8134  -42.6964 H         1 UNK         0.0600 
    171 H171       -2.0352  -12.5935  -40.8576 H         1 UNK         0.0600 
    172 H172       -3.2530  -11.6992  -41.7689 H         1 UNK         0.0600 
    173 H173       -3.7404  -12.7641  -40.4601 H         1 UNK         0.0600 
    174 H174       -1.6322  -12.7970  -43.3122 H         1 UNK         0.3000 
    175 H175       -0.6620  -12.9980  -45.2351 H         1 UNK         0.0600 
    176 H176        0.8423  -14.6405  -46.2944 H         1 UNK         0.0600 
    177 H177       -0.2768  -15.9572  -45.9448 H         1 UNK         0.0600 
    178 H178        0.5466  -15.1198  -44.6345 H         1 UNK         0.0600 
    179 H179       -1.3222  -14.4133  -47.5699 H         1 UNK         0.3000 
    180 H180       -3.9682  -13.9429  -48.5522 H         1 UNK         0.0600 
    181 H181       -3.4933  -10.9506  -48.9802 H         1 UNK         0.0600 
    182 H182       -4.9417  -11.6990  -48.3225 H         1 UNK         0.0600 
    183 H183       -4.5022  -11.9777  -49.9986 H         1 UNK         0.0600 
    184 H184       -2.3856  -14.3264  -50.0355 H         1 UNK         0.3000 
    185 H185       -0.7685  -14.1798  -51.4113 H         1 UNK         0.0600 
    186 H186       -0.8758  -11.9557  -52.5509 H         1 UNK         0.0600 
    187 H187        0.5832  -11.4423  -51.7112 H         1 UNK         0.0600 
    188 H188        0.6485  -12.7671  -52.8716 H         1 UNK         0.0600 
    189 H189        1.8311  -13.3240  -50.7008 H         1 UNK         0.3000 
    190 H190        0.2491  -21.7505  -47.7439 H         1 UNK         0.3000 
    191 H191       -2.1657  -22.0488  -49.1086 H         1 UNK         0.0600 
    192 H192       -1.5205  -19.9408  -48.0963 H         1 UNK         0.0600 
    193 H193       -2.9506  -20.4610  -47.2095 H         1 UNK         0.0600 
    194 H194       -1.3645  -20.6541  -46.4953 H         1 UNK         0.0600 
    195 H195       -1.2422  -23.2441  -45.8750 H         1 UNK         0.3000 
    196 H196       -3.8980  -24.3618  -45.3122 H         1 UNK         0.0600 
    197 H197       -2.8309  -24.9992  -43.1536 H         1 UNK         0.0600 
    198 H198       -2.5969  -23.2912  -43.4866 H         1 UNK         0.0600 
    199 H199       -1.2708  -24.4251  -43.7296 H         1 UNK         0.0600 
    200 H200       -0.5903  -25.4816  -46.1196 H         1 UNK         0.3000 
    201 H201       -1.0285  -28.2482  -45.8139 H         1 UNK         0.0600 
    202 H202        1.2197  -27.1675  -45.9223 H         1 UNK         0.0600 
    203 H203        0.9749  -26.8140  -47.6320 H         1 UNK         0.0600 
    204 H204        1.0849  -28.4800  -47.0838 H         1 UNK         0.0600 
    205 H205       -1.2961  -26.2016  -48.7694 H         1 UNK         0.3000 
    206 H206       -2.2709  -28.4095  -50.4250 H         1 UNK         0.0600 
    207 H207       -0.9024  -26.5279  -51.3566 H         1 UNK         0.0600 
    208 H208       -2.4731  -26.6320  -52.1377 H         1 UNK         0.0600 
    209 H209       -2.1766  -25.3856  -50.9332 H         1 UNK         0.0600 
    210 H210       -3.6505  -26.2131  -48.1833 H         1 UNK         0.3000 
    211 H211       -5.6416  -25.5919  -47.4972 H         1 UNK         0.0600 
    212 H212       -6.8141  -27.9724  -49.0270 H         1 UNK         0.0600 
    213 H213       -7.5632  -27.1079  -47.6929 H         1 UNK         0.0600 
    214 H214       -6.1109  -28.0528  -47.4113 H         1 UNK         0.0600 
    215 H215       -4.5816  -24.5865  -50.0608 H         1 UNK         0.3000 
    216 H216       -6.8820  -23.8814  -51.7275 H         1 UNK         0.0600 
    217 H217       -3.9420  -23.0061  -51.8263 H         1 UNK         0.0600 
    218 H218       -5.1457  -22.7215  -53.0768 H         1 UNK         0.0600 
    219 H219       -4.6361  -24.3635  -52.7150 H         1 UNK         0.0600 
    220 H220       -5.2644  -22.5790  -48.9852 H         1 UNK         0.3000 
    221 H221       -5.4239  -20.7974  -47.7174 H         1 UNK         0.0600 
    222 H222       -7.5761  -19.5662  -49.5217 H         1 UNK         0.0600 
    223 H223       -7.9090  -20.6793  -48.1949 H         1 UNK         0.0600 
    224 H224       -7.1843  -19.1134  -47.8735 H         1 UNK         0.0600 
    225 H225       -4.7313  -18.5200  -47.6055 H         1 UNK         0.3000 
    226 H226       -2.4603  -18.2150  -49.3060 H         1 UNK         0.0600 
    227 H227       -3.5978  -16.3193  -47.1852 H         1 UNK         0.0600 
    228 H228       -2.4933  -17.6594  -46.8722 H         1 UNK         0.0600 
    229 H229       -1.9644  -16.3066  -47.8438 H         1 UNK         0.0600 
    230 H230       -5.6610  -16.9621  -49.6286 H         1 UNK         0.3000 
    231 H231       -5.1331  -14.6293  -51.1983 H         1 UNK         0.0600 
    232 H232       -7.5676  -16.4947  -51.1298 H         1 UNK         0.0600 
    233 H233       -7.5279  -14.8969  -51.8663 H         1 UNK         0.0600 
    234 H234       -7.3298  -15.0613  -50.1290 H         1 UNK         0.0600 
    235 H235       -5.1976  -18.0939  -51.9802 H         1 UNK         0.3000 
    236 H236       -5.3284  -17.8307  -54.8392 H         1 UNK         0.0600 
    237 H237       -5.9483  -19.9205  -53.5978 H         1 UNK         0.0600 
    238 H238       -4.7149  -20.2254  -54.8116 H         1 UNK         0.0600 
    239 H239       -4.2658  -20.1327  -53.1155 H         1 UNK         0.0600 
    240 H240       -2.7498  -17.4534  -52.5151 H         1 UNK         0.3000 
    241 H241       -0.6064  -17.6259  -54.5231 H         1 UNK         0.0600 
    242 H242       -1.8252  -13.8417  -54.3323 H         1 UNK         0.3800 
    243 H243       -2.8645  -15.1717  -53.8961 H         1 UNK         0.3800 
    244 H244        0.9093  -17.1001  -52.5783 H         1 UNK         0.0800 
    245 H245       -0.4781  -17.0336  -51.5308 H         1 UNK         0.0800 
    246 H246        1.1489  -20.6705  -53.7996 H         1 UNK         0.0800 
    247 H247        1.5210  -18.9916  -54.0718 H         1 UNK         0.0800 
@<TRIPOS>BOND
     1    1    2 1    
     2    1  127 1    
     3    1  128 1    
     4    1  129 1    
     5    2    3 2    
     6    2    4 am   BACKBONE|DICT|INTERRES
     7    4    5 1    
     8    4  130 1    
     9    5    6 1    
    10    5   65 1    
    11    5  131 1    
    12    6    7 1    
    13    6  132 1    
    14    6  133 1    
    15    7    8 1    
    16    8    9 1    
    17    8  134 1    
    18    8  135 1    
    19    9   10 ar   
    20    9   14 ar   
    21   10   11 ar   
    22   10  136 1    
    23   11   12 ar   
    24   11  126 1    
    25   12   13 ar   
    26   12  137 1    
    27   13   14 ar   
    28   13   15 1    
    29   14  138 1    
    30   15   16 1    
    31   15  139 1    
    32   15  140 1    
    33   16   17 1    
    34   17   18 1    
    35   17  141 1    
    36   17  142 1    
    37   18   19 1    
    38   18   67 1    
    39   18  143 1    
    40   19   20 am   BACKBONE|DICT|INTERRES
    41   19  144 1    
    42   20   21 2    
    43   20   22 1    
    44   22   23 1    
    45   22   24 1    
    46   22  145 1    
    47   23  146 1    
    48   23  147 1    
    49   23  148 1    
    50   24   25 am   BACKBONE|DICT|INTERRES
    51   24  149 1    
    52   25   26 2    
    53   25   27 1    
    54   27   28 1    
    55   27   29 1    
    56   27  150 1    
    57   28  151 1    
    58   28  152 1    
    59   28  153 1    
    60   29   30 am   BACKBONE|DICT|INTERRES
    61   29  154 1    
    62   30   31 2    
    63   30   32 1    
    64   32   33 1    
    65   32   34 1    
    66   32  155 1    
    67   33  156 1    
    68   33  157 1    
    69   33  158 1    
    70   34   35 am   BACKBONE|DICT|INTERRES
    71   34  159 1    
    72   35   36 2    
    73   35   37 1    
    74   37   38 1    
    75   37   39 1    
    76   37  160 1    
    77   38  161 1    
    78   38  162 1    
    79   38  163 1    
    80   39   40 am   BACKBONE|DICT|INTERRES
    81   39  164 1    
    82   40   41 2    
    83   40   42 1    
    84   42   43 1    
    85   42   44 1    
    86   42  165 1    
    87   43  166 1    
    88   43  167 1    
    89   43  168 1    
    90   44   45 am   BACKBONE|DICT|INTERRES
    91   44  169 1    
    92   45   46 2    
    93   45   47 1    
    94   47   48 1    
    95   47   49 1    
    96   47  170 1    
    97   48  171 1    
    98   48  172 1    
    99   48  173 1    
   100   49   50 am   BACKBONE|DICT|INTERRES
   101   49  174 1    
   102   50   51 2    
   103   50   52 1    
   104   52   53 1    
   105   52   54 1    
   106   52  175 1    
   107   53  176 1    
   108   53  177 1    
   109   53  178 1    
   110   54   55 am   BACKBONE|DICT|INTERRES
   111   54  179 1    
   112   55   56 2    
   113   55   57 1    
   114   57   58 1    
   115   57   59 1    
   116   57  180 1    
   117   58  181 1    
   118   58  182 1    
   119   58  183 1    
   120   59   60 am   BACKBONE|DICT|INTERRES
   121   59  184 1    
   122   60   61 2    
   123   60   62 1    
   124   62   63 1    
   125   62   64 1    
   126   62  185 1    
   127   63  186 1    
   128   63  187 1    
   129   63  188 1    
   130   64   65 am   BACKBONE|DICT|INTERRES
   131   64  189 1    
   132   65   66 2    
   133   67   68 2    
   134   67   69 am   BACKBONE|DICT|INTERRES
   135   69   70 1    
   136   69  190 1    
   137   70   71 1    
   138   70   72 1    
   139   70  191 1    
   140   71  192 1    
   141   71  193 1    
   142   71  194 1    
   143   72   73 2    
   144   72   74 am   BACKBONE|DICT|INTERRES
   145   74   75 1    
   146   74  195 1    
   147   75   76 1    
   148   75   77 1    
   149   75  196 1    
   150   76  197 1    
   151   76  198 1    
   152   76  199 1    
   153   77   78 2    
   154   77   79 am   BACKBONE|DICT|INTERRES
   155   79   80 1    
   156   79  200 1    
   157   80   81 1    
   158   80   82 1    
   159   80  201 1    
   160   81  202 1    
   161   81  203 1    
   162   81  204 1    
   163   82   83 2    
   164   82   84 am   BACKBONE|DICT|INTERRES
   165   84   85 1    
   166   84  205 1    
   167   85   86 1    
   168   85   87 1    
   169   85  206 1    
   170   86  207 1    
   171   86  208 1    
   172   86  209 1    
   173   87   88 2    
   174   87   89 am   BACKBONE|DICT|INTERRES
   175   89   90 1    
   176   89  210 1    
   177   90   91 1    
   178   90   92 1    
   179   90  211 1    
   180   91  212 1    
   181   91  213 1    
   182   91  214 1    
   183   92   93 2    
   184   92   94 am   BACKBONE|DICT|INTERRES
   185   94   95 1    
   186   94  215 1    
   187   95   96 1    
   188   95   97 1    
   189   95  216 1    
   190   96  217 1    
   191   96  218 1    
   192   96  219 1    
   193   97   98 2    
   194   97   99 am   BACKBONE|DICT|INTERRES
   195   99  100 1    
   196   99  220 1    
   197  100  101 1    
   198  100  102 1    
   199  100  221 1    
   200  101  222 1    
   201  101  223 1    
   202  101  224 1    
   203  102  103 2    
   204  102  104 am   BACKBONE|DICT|INTERRES
   205  104  105 1    
   206  104  225 1    
   207  105  106 1    
   208  105  107 1    
   209  105  226 1    
   210  106  227 1    
   211  106  228 1    
   212  106  229 1    
   213  107  108 2    
   214  107  109 am   BACKBONE|DICT|INTERRES
   215  109  110 1    
   216  109  230 1    
   217  110  111 1    
   218  110  112 1    
   219  110  231 1    
   220  111  232 1    
   221  111  233 1    
   222  111  234 1    
   223  112  113 2    
   224  112  114 am   BACKBONE|DICT|INTERRES
   225  114  115 1    
   226  114  235 1    
   227  115  116 1    
   228  115  117 1    
   229  115  236 1    
   230  116  237 1    
   231  116  238 1    
   232  116  239 1    
   233  117  118 2    
   234  117  119 am   BACKBONE|DICT|INTERRES
   235  119  120 1    
   236  119  240 1    
   237  120  121 1    
   238  120  124 1    
   239  120  241 1    
   240  121  122 am   BACKBONE|DICT|INTERRES
   241  121  123 2    
   242  122  242 1    
   243  122  243 1    
   244  124  125 1    
   245  124  244 1    
   246  124  245 1    
   247  125  126 1    
   248  126  246 1    
   249  126  247 1    
@<TRIPOS>SUBSTRUCTURE
     1 UNK         1 GROUP             0       ****    0 ROOT    
