@<TRIPOS>MOLECULE
3R540
247   249    1
SMALL
USER_CHARGES


@<TRIPOS>ATOM
      1 CA          3.4063   -8.2504  -47.0162 C.3       0 UNK        -0.1800 
      2 C           3.4719   -9.7646  -47.1526 C.2       0 UNK         0.5000 
      3 O           3.4650  -10.4699  -46.1435 O.2       0 UNK        -0.5000 
      4 N           3.5319  -10.2680  -48.3936 N.am      1 UNK        -0.5000 
      5 CA          3.6259  -11.6928  -48.7398 C.3       1 UNK         0.1400 
      6 C6          2.3442  -12.4742  -48.3259 C.3       23 UNK        -0.0398 
      7 S7          1.9907  -13.8985  -49.4061 S.3       23 UNK        -0.2404 
      8 C8          1.0135  -14.9294  -48.2734 C.3       23 UNK        -0.0205 
      9 C9          0.4605  -16.1535  -48.9818 C.ar      23 UNK        -0.0193 
     10 C10        -0.8554  -16.1569  -49.4518 C.ar      23 UNK        -0.1150 
     11 C11        -1.3805  -17.2859  -50.0858 C.ar      23 UNK        -0.0193 
     12 C12        -0.5727  -18.4133  -50.2608 C.ar      23 UNK        -0.1150 
     13 C13         0.7507  -18.4162  -49.8089 C.ar      23 UNK        -0.0193 
     14 C14         1.2595  -17.2861  -49.1623 C.ar      23 UNK        -0.1150 
     15 C15         1.6377  -19.6318  -50.0364 C.3       23 UNK        -0.0205 
     16 S16         1.7267  -20.7032  -48.5689 S.3       23 UNK        -0.2404 
     17 C17         0.0055  -21.2909  -48.4688 C.3       23 UNK        -0.0398 
     18 CA         -0.1686  -22.4479  -47.4620 C.3       11 UNK         0.1400 
     19 N           0.0729  -22.0317  -46.0774 N.am      11 UNK        -0.5000 
     20 C           0.1527  -22.8668  -45.0329 C.2       10 UNK         0.5000 
     21 O           0.0634  -24.0897  -45.1309 O.2       10 UNK        -0.5000 
     22 CA          0.2898  -22.2326  -43.6376 C.3       10 UNK         0.1400 
     23 CB          1.7335  -21.7827  -43.3695 C.3       10 UNK        -0.1800 
     24 N          -0.6336  -21.1135  -43.4452 N.am      10 UNK        -0.5000 
     25 C          -1.9690  -21.2365  -43.4430 C.2       9 UNK         0.5000 
     26 O          -2.5529  -22.3155  -43.5455 O.2       9 UNK        -0.5000 
     27 CA         -2.7943  -19.9407  -43.3486 C.3       9 UNK         0.1400 
     28 CB         -2.9218  -19.4842  -41.8879 C.3       9 UNK        -0.1800 
     29 N          -2.2433  -18.8536  -44.1575 N.am      9 UNK        -0.5000 
     30 C          -2.1438  -18.8686  -45.4945 C.2       8 UNK         0.5000 
     31 O          -2.5485  -19.7910  -46.2011 O.2       8 UNK        -0.5000 
     32 CA         -1.4124  -17.6815  -46.1488 C.3       8 UNK         0.1400 
     33 CB         -2.3347  -16.4587  -46.2566 C.3       8 UNK        -0.1800 
     34 N          -0.1788  -17.3200  -45.4458 N.am      8 UNK        -0.5000 
     35 C           0.8537  -18.1597  -45.2790 C.2       7 UNK         0.5000 
     36 O           0.8734  -19.3117  -45.7060 O.2       7 UNK        -0.5000 
     37 CA          2.0436  -17.6538  -44.4501 C.3       7 UNK         0.1400 
     38 CB          2.9635  -16.7737  -45.3033 C.3       7 UNK        -0.1800 
     39 N           1.6165  -16.9385  -43.2480 N.am      7 UNK        -0.5000 
     40 C           0.9679  -17.5203  -42.2285 C.2       6 UNK         0.5000 
     41 O           0.7458  -18.7294  -42.1571 O.2       6 UNK        -0.5000 
     42 CA          0.4149  -16.5834  -41.1420 C.3       6 UNK         0.1400 
     43 CB          1.5068  -16.1888  -40.1362 C.3       6 UNK        -0.1800 
     44 N          -0.1968  -15.3850  -41.7197 N.am      6 UNK        -0.5000 
     45 C          -1.3301  -15.4004  -42.4375 C.2       5 UNK         0.5000 
     46 O          -1.9835  -16.4204  -42.6507 O.2       5 UNK        -0.5000 
     47 CA         -1.8152  -14.0695  -43.0393 C.3       5 UNK         0.1400 
     48 CB         -2.8432  -13.4060  -42.1110 C.3       5 UNK        -0.1800 
     49 N          -0.7395  -13.1205  -43.3165 N.am      5 UNK        -0.5000 
     50 C           0.2301  -13.2867  -44.2254 C.2       4 UNK         0.5000 
     51 O           0.3292  -14.2858  -44.9432 O.2       4 UNK        -0.5000 
     52 CA          1.2643  -12.1434  -44.3498 C.3       4 UNK         0.1400 
     53 CB          1.1245  -11.0459  -43.2710 C.3       4 UNK        -0.1800 
     54 N           2.6574  -12.5992  -44.3902 N.am      4 UNK        -0.5000 
     55 C           3.2594  -13.4606  -43.5569 C.2       3 UNK         0.5000 
     56 O           2.6710  -14.0823  -42.6702 O.2       3 UNK        -0.5000 
     57 CA          4.7626  -13.6897  -43.7943 C.3       3 UNK         0.1400 
     58 CB          5.3528  -14.7744  -42.8645 C.3       3 UNK        -0.1800 
     59 N           4.9731  -14.0116  -45.2060 N.am      3 UNK        -0.5000 
     60 C           6.1471  -14.0565  -45.8496 C.2       2 UNK         0.5000 
     61 O           7.2378  -13.8574  -45.3141 O.2       2 UNK        -0.5000 
     62 CA          6.0833  -14.3413  -47.3640 C.3       2 UNK         0.1400 
     63 CB          5.9652  -15.8474  -47.6417 C.3       2 UNK        -0.1800 
     64 N           4.9697  -13.6377  -48.0051 N.am      2 UNK        -0.5000 
     65 C           4.9493  -12.3157  -48.2215 C.2       1 UNK         0.5000 
     66 O           5.9327  -11.5934  -48.0344 O.2       1 UNK        -0.5000 
     67 C          -1.5526  -23.1036  -47.6369 C.2       11 UNK         0.5000 
     68 O          -1.6547  -24.1078  -48.3424 O.2       11 UNK        -0.5000 
     69 N          -2.5856  -22.5568  -46.9801 N.am      12 UNK        -0.5000 
     70 CA         -3.9396  -23.1135  -46.9550 C.3       12 UNK         0.1400 
     71 CB         -4.8933  -22.1332  -46.2565 C.3       12 UNK        -0.1800 
     72 C          -4.0071  -24.4999  -46.2873 C.2       12 UNK         0.5000 
     73 O          -4.7599  -25.3562  -46.7495 O.2       12 UNK        -0.5000 
     74 N          -3.2110  -24.7042  -45.2312 N.am      13 UNK        -0.5000 
     75 CA         -3.0884  -25.9816  -44.5350 C.3       13 UNK         0.1400 
     76 CB         -2.4792  -25.7483  -43.1432 C.3       13 UNK        -0.1800 
     77 C          -2.2633  -27.0089  -45.3318 C.2       13 UNK         0.5000 
     78 O          -2.6967  -28.1527  -45.4761 O.2       13 UNK        -0.5000 
     79 N          -1.0807  -26.5953  -45.8063 N.am      14 UNK        -0.5000 
     80 CA         -0.0895  -27.4809  -46.4155 C.3       14 UNK         0.1400 
     81 CB          1.3043  -26.8436  -46.2951 C.3       14 UNK        -0.1800 
     82 C          -0.3904  -27.8323  -47.8812 C.2       14 UNK         0.5000 
     83 O          -0.3066  -29.0058  -48.2472 O.2       14 UNK        -0.5000 
     84 N          -0.6909  -26.8154  -48.6981 N.am      15 UNK        -0.5000 
     85 CA         -0.8020  -26.9345  -50.1547 C.3       15 UNK         0.1400 
     86 CB          0.1127  -25.8778  -50.7980 C.3       15 UNK        -0.1800 
     87 C          -2.2414  -26.7592  -50.6643 C.2       15 UNK         0.5000 
     88 O          -2.5276  -27.1687  -51.7896 O.2       15 UNK        -0.5000 
     89 N          -3.1036  -26.1275  -49.8538 N.am      16 UNK        -0.5000 
     90 CA         -4.4678  -25.6921  -50.1783 C.3       16 UNK         0.1400 
     91 CB         -5.3897  -26.8891  -50.4900 C.3       16 UNK        -0.1800 
     92 C          -4.5053  -24.5981  -51.2660 C.2       16 UNK         0.5000 
     93 O          -5.5099  -24.4597  -51.9639 O.2       16 UNK        -0.5000 
     94 N          -3.4201  -23.8150  -51.3763 N.am      17 UNK        -0.5000 
     95 CA         -3.2310  -22.7764  -52.3949 C.3       17 UNK         0.1400 
     96 CB         -1.8172  -22.1912  -52.2675 C.3       17 UNK        -0.1800 
     97 C          -4.2787  -21.6520  -52.3270 C.2       17 UNK         0.5000 
     98 O          -4.6734  -21.1207  -53.3647 O.2       17 UNK        -0.5000 
     99 N          -4.7407  -21.3392  -51.1092 N.am      18 UNK        -0.5000 
    100 CA        -5.7786  -20.3460  -50.8337 C.3       18 UNK         0.1400 
    101 CB        -5.8874  -20.1464  -49.3158 C.3       18 UNK        -0.1800 
    102 C         -7.1532  -20.6989  -51.4372 C.2       18 UNK         0.5000 
    103 O         -7.9175  -19.7863  -51.7488 O.2       18 UNK        -0.5000 
    104 N         -7.4331  -21.9955  -51.6469 N.am      19 UNK        -0.5000 
    105 CA        -8.6500  -22.4743  -52.3134 C.3       19 UNK         0.1400 
    106 CB        -8.8293  -23.9763  -52.0458 C.3       19 UNK        -0.1800 
    107 C         -8.6493  -22.1859  -53.8286 C.2       19 UNK         0.5000 
    108 O         -9.7202  -22.0649  -54.4236 O.2       19 UNK        -0.5000 
    109 N         -7.4520  -22.0418  -54.4126 N.am      20 UNK        -0.5000 
    110 CA        -7.2225  -21.6023  -55.7900 C.3       20 UNK         0.1400 
    111 CB        -6.0340  -22.3955  -56.3605 C.3       20 UNK        -0.1800 
    112 C         -6.9675  -20.0809  -55.8734 C.2       20 UNK         0.5000 
    113 O         -6.6013  -19.5887  -56.9414 O.2       20 UNK        -0.5000 
    114 N         -7.1344  -19.3691  -54.7463 N.am      21 UNK        -0.5000 
    115 CA        -6.8888  -17.9380  -54.5333 C.3       21 UNK         0.1400 
    116 CB        -7.8329  -17.0807  -55.4023 C.3       21 UNK        -0.1800 
    117 C         -5.4062  -17.5266  -54.6735 C.2       21 UNK         0.5000 
    118 O         -5.1297  -16.3422  -54.8675 O.2       21 UNK        -0.5000 
    119 N         -4.4943  -18.5054  -54.5567 N.am      22 UNK        -0.5000 
    120 CA        -3.0229  -18.4091  -54.6051 C.3       22 UNK         0.1400 
    121 C         -2.3954  -17.5848  -55.7728 C.2       22 UNK         0.5000 
    122 N         -3.0619  -17.4640  -56.9144 N.am      22 UNK        -0.7600 
    123 O         -1.2769  -17.0879  -55.6704 O.2       22 UNK        -0.5000 
    124 C124       -2.3734  -18.1778  -53.2096 C.3       23 UNK        -0.0398 
    125 S125       -2.9374  -16.7000  -52.2967 S.3       23 UNK        -0.2404 
    126 C126       -2.8205  -17.2815  -50.5754 C.3       23 UNK        -0.0205 
    127 H127        4.2649   -7.8886  -46.4506 H         1 UNK         0.0600 
    128 H128        2.4998   -7.9615  -46.4845 H         1 UNK         0.0600 
    129 H129        3.4045   -7.7551  -47.9875 H         1 UNK         0.0600 
    130 H130        3.5685   -9.6318  -49.1777 H         1 UNK         0.3000 
    131 H131        3.6981  -11.7109  -49.8283 H         1 UNK         0.0600 
    132 H132        1.4737  -11.8198  -48.3927 H         1 UNK         0.0800 
    133 H133        2.3903  -12.7899  -47.2828 H         1 UNK         0.0800 
    134 H134        1.6336  -15.2405  -47.4349 H         1 UNK         0.0800 
    135 H135        0.2001  -14.3377  -47.8498 H         1 UNK         0.0800 
    136 H136       -1.4746  -15.2809  -49.3189 H         1 UNK         0.1150 
    137 H137       -0.9715  -19.2870  -50.7550 H         1 UNK         0.1150 
    138 H138        2.2797  -17.2864  -48.8056 H         1 UNK         0.1150 
    139 H139        1.2839  -20.2112  -50.8907 H         1 UNK         0.0800 
    140 H140        2.6459  -19.3025  -50.2916 H         1 UNK         0.0800 
    141 H141       -0.2871  -21.6106  -49.4692 H         1 UNK         0.0800 
    142 H142       -0.6406  -20.4526  -48.2023 H         1 UNK         0.0800 
    143 H143        0.5709  -23.2152  -47.7018 H         1 UNK         0.0600 
    144 H144        0.2113  -21.0346  -45.9220 H         1 UNK         0.3000 
    145 H145        0.0374  -22.9987  -42.9015 H         1 UNK         0.0600 
    146 H146        1.8405  -21.3825  -42.3613 H         1 UNK         0.0600 
    147 H147        2.4248  -22.6211  -43.4624 H         1 UNK         0.0600 
    148 H148        2.0572  -21.0139  -44.0702 H         1 UNK         0.0600 
    149 H149       -0.2217  -20.1952  -43.3219 H         1 UNK         0.3000 
    150 H150       -3.7961  -20.1580  -43.7241 H         1 UNK         0.0600 
    151 H151       -3.3382  -20.2767  -41.2648 H         1 UNK         0.0600 
    152 H152       -3.5825  -18.6214  -41.8017 H         1 UNK         0.0600 
    153 H153       -1.9546  -19.2072  -41.4670 H         1 UNK         0.0600 
    154 H154       -1.9276  -18.0301  -43.6516 H         1 UNK         0.3000 
    155 H155       -1.1302  -17.9860  -47.1582 H         1 UNK         0.0600 
    156 H156       -2.7503  -16.1807  -45.2890 H         1 UNK         0.0600 
    157 H157       -3.1725  -16.6672  -46.9229 H         1 UNK         0.0600 
    158 H158       -1.8060  -15.5938  -46.6570 H         1 UNK         0.0600 
    159 H159       -0.1066  -16.3748  -45.0871 H         1 UNK         0.3000 
    160 H160        2.6165  -18.5298  -44.1387 H         1 UNK         0.0600 
    161 H161        2.5572  -15.7717  -45.4275 H         1 UNK         0.0600 
    162 H162        3.1041  -17.2032  -46.2960 H         1 UNK         0.0600 
    163 H163        3.9496  -16.6889  -44.8513 H         1 UNK         0.0600 
    164 H164        1.7596  -15.9351  -43.2229 H         1 UNK         0.3000 
    165 H165       -0.3596  -17.1282  -40.5975 H         1 UNK         0.0600 
    166 H166        1.1042  -15.5564  -39.3450 H         1 UNK         0.0600 
    167 H167        1.9322  -17.0733  -39.6604 H         1 UNK         0.0600 
    168 H168        2.3259  -15.6502  -40.6121 H         1 UNK         0.0600 
    169 H169        0.3184  -14.5200  -41.6335 H         1 UNK         0.3000 
    170 H170       -2.3093  -14.2942  -43.9857 H         1 UNK         0.0600 
    171 H171       -3.6766  -14.0797  -41.9068 H         1 UNK         0.0600 
    172 H172       -2.4016  -13.1303  -41.1526 H         1 UNK         0.0600 
    173 H173       -3.2594  -12.5049  -42.5620 H         1 UNK         0.0600 
    174 H174       -0.7363  -12.2743  -42.7658 H         1 UNK         0.3000 
    175 H175        1.0694  -11.6778  -45.3165 H         1 UNK         0.0600 
    176 H176        1.2850  -11.4404  -42.2666 H         1 UNK         0.0600 
    177 H177        1.8551  -10.2527  -43.4319 H         1 UNK         0.0600 
    178 H178        0.1412  -10.5751  -43.2997 H         1 UNK         0.0600 
    179 H179        3.2290  -12.0941  -45.0614 H         1 UNK         0.3000 
    180 H180        5.2652  -12.7441  -43.5818 H         1 UNK         0.0600 
    181 H181        4.8793  -15.7436  -43.0147 H         1 UNK         0.0600 
    182 H182        5.2088  -14.5044  -41.8177 H         1 UNK         0.0600 
    183 H183        6.4247  -14.8992  -43.0128 H         1 UNK         0.0600 
    184 H184        4.1308  -14.1702  -45.7380 H         1 UNK         0.3000 
    185 H185        7.0189  -13.9931  -47.8075 H         1 UNK         0.0600 
    186 H186        6.7727  -16.3986  -47.1579 H         1 UNK         0.0600 
    187 H187        5.0241  -16.2549  -47.2763 H         1 UNK         0.0600 
    188 H188        6.0254  -16.0551  -48.7102 H         1 UNK         0.0600 
    189 H189        4.1565  -14.1845  -48.2526 H         1 UNK         0.3000 
    190 H190       -2.4436  -21.6867  -46.4732 H         1 UNK         0.3000 
    191 H191       -4.2686  -23.2229  -47.9897 H         1 UNK         0.0600 
    192 H192       -4.8621  -21.1480  -46.7200 H         1 UNK         0.0600 
    193 H193       -5.9235  -22.4869  -46.3106 H         1 UNK         0.0600 
    194 H194       -4.6449  -22.0106  -45.2027 H         1 UNK         0.0600 
    195 H195       -2.6652  -23.9289  -44.8712 H         1 UNK         0.3000 
    196 H196       -4.0893  -26.3953  -44.3934 H         1 UNK         0.0600 
    197 H197       -2.3872  -26.6862  -42.5943 H         1 UNK         0.0600 
    198 H198       -3.1043  -25.0822  -42.5481 H         1 UNK         0.0600 
    199 H199       -1.4855  -25.3036  -43.2041 H         1 UNK         0.0600 
    200 H200       -0.7795  -25.6410  -45.6174 H         1 UNK         0.3000 
    201 H201       -0.0708  -28.4152  -45.8498 H         1 UNK         0.0600 
    202 H202        1.5643  -26.6604  -45.2523 H         1 UNK         0.0600 
    203 H203        1.3609  -25.8917  -46.8246 H         1 UNK         0.0600 
    204 H204        2.0714  -27.4976  -46.7117 H         1 UNK         0.0600 
    205 H205       -0.7903  -25.8806  -48.3163 H         1 UNK         0.3000 
    206 H206       -0.4621  -27.9168  -50.4891 H         1 UNK         0.0600 
    207 H207        1.1511  -26.0239  -50.4999 H         1 UNK         0.0600 
    208 H208        0.0770  -25.9376  -51.8866 H         1 UNK         0.0600 
    209 H209       -0.1756  -24.8646  -50.5159 H         1 UNK         0.0600 
    210 H210       -2.7393  -25.7862  -48.9725 H         1 UNK         0.3000 
    211 H211       -4.8594  -25.2150  -49.2827 H         1 UNK         0.0600 
    212 H212       -5.1323  -27.3692  -51.4342 H         1 UNK         0.0600 
    213 H213       -6.4303  -26.5705  -50.5624 H         1 UNK         0.0600 
    214 H214       -5.3365  -27.6414  -49.7031 H         1 UNK         0.0600 
    215 H215       -2.6465  -23.9879  -50.7501 H         1 UNK         0.3000 
    216 H216       -3.3211  -23.2518  -53.3738 H         1 UNK         0.0600 
    217 H217       -1.6208  -21.4692  -53.0613 H         1 UNK         0.0600 
    218 H218       -1.0568  -22.9689  -52.3422 H         1 UNK         0.0600 
    219 H219       -1.6827  -21.6769  -51.3165 H         1 UNK         0.0600 
    220 H220       -4.3655  -21.8361  -50.3160 H         1 UNK         0.3000 
    221 H221       -5.4605  -19.4017  -51.2813 H         1 UNK         0.0600 
    222 H222       -6.2028  -21.0619  -48.8143 H         1 UNK         0.0600 
    223 H223       -4.9337  -19.8359  -48.8875 H         1 UNK         0.0600 
    224 H224       -6.6174  -19.3725  -49.0750 H         1 UNK         0.0600 
    225 H225       -6.7386  -22.6972  -51.4223 H         1 UNK         0.3000 
    226 H226       -9.5041  -21.9513  -51.8776 H         1 UNK         0.0600 
    227 H227       -8.8061  -24.1960  -50.9784 H         1 UNK         0.0600 
    228 H228       -9.7890  -24.3253  -52.4291 H         1 UNK         0.0600 
    229 H229       -8.0534  -24.5697  -52.5296 H         1 UNK         0.0600 
    230 H230       -6.6220  -22.1355  -53.8408 H         1 UNK         0.3000 
    231 H231       -8.1002  -21.8188  -56.4020 H         1 UNK         0.0600 
    232 H232       -6.2119  -23.4693  -56.2999 H         1 UNK         0.0600 
    233 H233       -5.1090  -22.1787  -55.8251 H         1 UNK         0.0600 
    234 H234       -5.8685  -22.1549  -57.4113 H         1 UNK         0.0600 
    235 H235       -7.4410  -19.8688  -53.9220 H         1 UNK         0.3000 
    236 H236       -7.1467  -17.7461  -53.4910 H         1 UNK         0.0600 
    237 H237       -7.7764  -16.0285  -55.1212 H         1 UNK         0.0600 
    238 H238       -7.5832  -17.1476  -56.4614 H         1 UNK         0.0600 
    239 H239       -8.8708  -17.3908  -55.2810 H         1 UNK         0.0600 
    240 H240       -4.8371  -19.4410  -54.3637 H         1 UNK         0.3000 
    241 H241       -2.7258  -19.4233  -54.8750 H         1 UNK         0.0600 
    242 H242       -2.6555  -16.9430  -57.6754 H         1 UNK         0.3800 
    243 H243       -3.9839  -17.8607  -57.0115 H         1 UNK         0.3800 
    244 H244       -1.2853  -18.1449  -53.2834 H         1 UNK         0.0800 
    245 H245       -2.5893  -19.0515  -52.5953 H         1 UNK         0.0800 
    246 H246       -3.4212  -16.6251  -49.9441 H         1 UNK         0.0800 
    247 H247       -3.2612  -18.2748  -50.4785 H         1 UNK         0.0800 
@<TRIPOS>BOND
     1    1    2 1    
     2    1  127 1    
     3    1  128 1    
     4    1  129 1    
     5    2    3 2    
     6    2    4 am   BACKBONE|DICT|INTERRES
     7    4    5 1    
     8    4  130 1    
     9    5    6 1    
    10    5   65 1    
    11    5  131 1    
    12    6    7 1    
    13    6  132 1    
    14    6  133 1    
    15    7    8 1    
    16    8    9 1    
    17    8  134 1    
    18    8  135 1    
    19    9   10 ar   
    20    9   14 ar   
    21   10   11 ar   
    22   10  136 1    
    23   11   12 ar   
    24   11  126 1    
    25   12   13 ar   
    26   12  137 1    
    27   13   14 ar   
    28   13   15 1    
    29   14  138 1    
    30   15   16 1    
    31   15  139 1    
    32   15  140 1    
    33   16   17 1    
    34   17   18 1    
    35   17  141 1    
    36   17  142 1    
    37   18   19 1    
    38   18   67 1    
    39   18  143 1    
    40   19   20 am   BACKBONE|DICT|INTERRES
    41   19  144 1    
    42   20   21 2    
    43   20   22 1    
    44   22   23 1    
    45   22   24 1    
    46   22  145 1    
    47   23  146 1    
    48   23  147 1    
    49   23  148 1    
    50   24   25 am   BACKBONE|DICT|INTERRES
    51   24  149 1    
    52   25   26 2    
    53   25   27 1    
    54   27   28 1    
    55   27   29 1    
    56   27  150 1    
    57   28  151 1    
    58   28  152 1    
    59   28  153 1    
    60   29   30 am   BACKBONE|DICT|INTERRES
    61   29  154 1    
    62   30   31 2    
    63   30   32 1    
    64   32   33 1    
    65   32   34 1    
    66   32  155 1    
    67   33  156 1    
    68   33  157 1    
    69   33  158 1    
    70   34   35 am   BACKBONE|DICT|INTERRES
    71   34  159 1    
    72   35   36 2    
    73   35   37 1    
    74   37   38 1    
    75   37   39 1    
    76   37  160 1    
    77   38  161 1    
    78   38  162 1    
    79   38  163 1    
    80   39   40 am   BACKBONE|DICT|INTERRES
    81   39  164 1    
    82   40   41 2    
    83   40   42 1    
    84   42   43 1    
    85   42   44 1    
    86   42  165 1    
    87   43  166 1    
    88   43  167 1    
    89   43  168 1    
    90   44   45 am   BACKBONE|DICT|INTERRES
    91   44  169 1    
    92   45   46 2    
    93   45   47 1    
    94   47   48 1    
    95   47   49 1    
    96   47  170 1    
    97   48  171 1    
    98   48  172 1    
    99   48  173 1    
   100   49   50 am   BACKBONE|DICT|INTERRES
   101   49  174 1    
   102   50   51 2    
   103   50   52 1    
   104   52   53 1    
   105   52   54 1    
   106   52  175 1    
   107   53  176 1    
   108   53  177 1    
   109   53  178 1    
   110   54   55 am   BACKBONE|DICT|INTERRES
   111   54  179 1    
   112   55   56 2    
   113   55   57 1    
   114   57   58 1    
   115   57   59 1    
   116   57  180 1    
   117   58  181 1    
   118   58  182 1    
   119   58  183 1    
   120   59   60 am   BACKBONE|DICT|INTERRES
   121   59  184 1    
   122   60   61 2    
   123   60   62 1    
   124   62   63 1    
   125   62   64 1    
   126   62  185 1    
   127   63  186 1    
   128   63  187 1    
   129   63  188 1    
   130   64   65 am   BACKBONE|DICT|INTERRES
   131   64  189 1    
   132   65   66 2    
   133   67   68 2    
   134   67   69 am   BACKBONE|DICT|INTERRES
   135   69   70 1    
   136   69  190 1    
   137   70   71 1    
   138   70   72 1    
   139   70  191 1    
   140   71  192 1    
   141   71  193 1    
   142   71  194 1    
   143   72   73 2    
   144   72   74 am   BACKBONE|DICT|INTERRES
   145   74   75 1    
   146   74  195 1    
   147   75   76 1    
   148   75   77 1    
   149   75  196 1    
   150   76  197 1    
   151   76  198 1    
   152   76  199 1    
   153   77   78 2    
   154   77   79 am   BACKBONE|DICT|INTERRES
   155   79   80 1    
   156   79  200 1    
   157   80   81 1    
   158   80   82 1    
   159   80  201 1    
   160   81  202 1    
   161   81  203 1    
   162   81  204 1    
   163   82   83 2    
   164   82   84 am   BACKBONE|DICT|INTERRES
   165   84   85 1    
   166   84  205 1    
   167   85   86 1    
   168   85   87 1    
   169   85  206 1    
   170   86  207 1    
   171   86  208 1    
   172   86  209 1    
   173   87   88 2    
   174   87   89 am   BACKBONE|DICT|INTERRES
   175   89   90 1    
   176   89  210 1    
   177   90   91 1    
   178   90   92 1    
   179   90  211 1    
   180   91  212 1    
   181   91  213 1    
   182   91  214 1    
   183   92   93 2    
   184   92   94 am   BACKBONE|DICT|INTERRES
   185   94   95 1    
   186   94  215 1    
   187   95   96 1    
   188   95   97 1    
   189   95  216 1    
   190   96  217 1    
   191   96  218 1    
   192   96  219 1    
   193   97   98 2    
   194   97   99 am   BACKBONE|DICT|INTERRES
   195   99  100 1    
   196   99  220 1    
   197  100  101 1    
   198  100  102 1    
   199  100  221 1    
   200  101  222 1    
   201  101  223 1    
   202  101  224 1    
   203  102  103 2    
   204  102  104 am   BACKBONE|DICT|INTERRES
   205  104  105 1    
   206  104  225 1    
   207  105  106 1    
   208  105  107 1    
   209  105  226 1    
   210  106  227 1    
   211  106  228 1    
   212  106  229 1    
   213  107  108 2    
   214  107  109 am   BACKBONE|DICT|INTERRES
   215  109  110 1    
   216  109  230 1    
   217  110  111 1    
   218  110  112 1    
   219  110  231 1    
   220  111  232 1    
   221  111  233 1    
   222  111  234 1    
   223  112  113 2    
   224  112  114 am   BACKBONE|DICT|INTERRES
   225  114  115 1    
   226  114  235 1    
   227  115  116 1    
   228  115  117 1    
   229  115  236 1    
   230  116  237 1    
   231  116  238 1    
   232  116  239 1    
   233  117  118 2    
   234  117  119 am   BACKBONE|DICT|INTERRES
   235  119  120 1    
   236  119  240 1    
   237  120  121 1    
   238  120  124 1    
   239  120  241 1    
   240  121  122 am   BACKBONE|DICT|INTERRES
   241  121  123 2    
   242  122  242 1    
   243  122  243 1    
   244  124  125 1    
   245  124  244 1    
   246  124  245 1    
   247  125  126 1    
   248  126  246 1    
   249  126  247 1    
@<TRIPOS>SUBSTRUCTURE
     1 UNK         1 GROUP             0       ****    0 ROOT    
