@<TRIPOS>MOLECULE
3R540
247   249    1
SMALL
USER_CHARGES


@<TRIPOS>ATOM
      1 CA          4.8749  -15.9641  -48.1089 C.3       0 UNK        -0.1800 
      2 C           3.5871  -15.3232  -47.6137 C.2       0 UNK         0.5000 
      3 O           3.2608  -15.4374  -46.4335 O.2       0 UNK        -0.5000 
      4 N           2.8632  -14.6258  -48.4996 N.am      1 UNK        -0.5000 
      5 CA          1.6049  -13.9111  -48.2277 C.3       1 UNK         0.1400 
      6 C6          0.7505  -13.7901  -49.5221 C.3       23 UNK        -0.0398 
      7 S7         -1.0478  -13.9726  -49.2414 S.3       23 UNK        -0.2404 
      8 C8         -1.2754  -15.7643  -48.9543 C.3       23 UNK        -0.0205 
      9 C9         -0.5221  -16.6360  -49.9475 C.ar      23 UNK        -0.0193 
     10 C10        -1.0226  -16.8564  -51.2339 C.ar      23 UNK        -0.1150 
     11 C11        -0.3050  -17.6362  -52.1476 C.ar      23 UNK        -0.0193 
     12 C12         0.9118  -18.2064  -51.7612 C.ar      23 UNK        -0.1150 
     13 C13         1.4232  -17.9867  -50.4798 C.ar      23 UNK        -0.0193 
     14 C14         0.6989  -17.2043  -49.5781 C.ar      23 UNK        -0.1150 
     15 C15         2.7800  -18.5510  -50.0880 C.3       23 UNK        -0.0205 
     16 S16         2.6804  -20.2649  -49.4932 S.3       23 UNK        -0.2404 
     17 C17         1.9263  -20.0452  -47.8450 C.3       23 UNK        -0.0398 
     18 CA          1.0368  -21.2394  -47.4409 C.3       11 UNK         0.1400 
     19 N           0.7688  -21.2489  -46.0037 N.am      11 UNK        -0.5000 
     20 C           0.2665  -22.2982  -45.3405 C.2       10 UNK         0.5000 
     21 O           0.0166  -23.3831  -45.8666 O.2       10 UNK        -0.5000 
     22 CA         -0.0543  -22.0824  -43.8513 C.3       10 UNK         0.1400 
     23 CB          1.2168  -22.2002  -42.9976 C.3       10 UNK        -0.1800 
     24 N          -0.7085  -20.7964  -43.5984 N.am      10 UNK        -0.5000 
     25 C          -1.9094  -20.4570  -44.0899 C.2       9 UNK         0.5000 
     26 O          -2.6006  -21.2081  -44.7754 O.2       9 UNK        -0.5000 
     27 CA         -2.4168  -19.0352  -43.8019 C.3       9 UNK         0.1400 
     28 CB         -3.0251  -18.9567  -42.3940 C.3       9 UNK        -0.1800 
     29 N          -1.3804  -18.0152  -43.9570 N.am      9 UNK        -0.5000 
     30 C          -0.7586  -17.7214  -45.1085 C.2       8 UNK         0.5000 
     31 O          -1.0025  -18.2725  -46.1812 O.2       8 UNK        -0.5000 
     32 CA          0.3703  -16.6778  -45.0397 C.3       8 UNK         0.1400 
     33 CB         -0.1889  -15.2518  -44.9247 C.3       8 UNK        -0.1800 
     34 N           1.2899  -16.9335  -43.9335 N.am      8 UNK        -0.5000 
     35 C           2.0293  -18.0438  -43.8007 C.2       7 UNK         0.5000 
     36 O           2.0465  -18.9657  -44.6181 O.2       7 UNK        -0.5000 
     37 CA          2.8395  -18.1665  -42.5007 C.3       7 UNK         0.1400 
     38 CB          4.1471  -17.3644  -42.5896 C.3       7 UNK        -0.1800 
     39 N           2.0642  -17.7267  -41.3396 N.am      7 UNK        -0.5000 
     40 C           1.0197  -18.3978  -40.8331 C.2       6 UNK         0.5000 
     41 O           0.6163  -19.4719  -41.2784 O.2       6 UNK        -0.5000 
     42 CA          0.2773  -17.7405  -39.6550 C.3       6 UNK         0.1400 
     43 CB          1.0160  -18.0012  -38.3338 C.3       6 UNK        -0.1800 
     44 N           0.0932  -16.2998  -39.8331 N.am      6 UNK        -0.5000 
     45 C          -0.6620  -15.7482  -40.7930 C.2       5 UNK         0.5000 
     46 O          -1.3054  -16.3984  -41.6137 O.2       5 UNK        -0.5000 
     47 CA         -0.6715  -14.2127  -40.8822 C.3       5 UNK         0.1400 
     48 CB         -1.7747  -13.6287  -39.9876 C.3       5 UNK        -0.1800 
     49 N           0.6051  -13.5785  -40.5492 N.am      5 UNK        -0.5000 
     50 C           1.7813  -13.8268  -41.1392 C.2       4 UNK         0.5000 
     51 O           1.9538  -14.7057  -41.9867 O.2       4 UNK        -0.5000 
     52 CA          2.9414  -12.8953  -40.7384 C.3       4 UNK         0.1400 
     53 CB          4.3134  -13.5618  -40.9421 C.3       4 UNK        -0.1800 
     54 N           2.8890  -11.6707  -41.5326 N.am      4 UNK        -0.5000 
     55 C           1.9687  -10.7010  -41.4231 C.2       3 UNK         0.5000 
     56 O           1.1610  -10.6310  -40.4954 O.2       3 UNK        -0.5000 
     57 CA          1.9257   -9.6440  -42.5486 C.3       3 UNK         0.1400 
     58 CB          2.5467   -8.3225  -42.0705 C.3       3 UNK        -0.1800 
     59 N           2.6020  -10.0694  -43.7796 N.am      3 UNK        -0.5000 
     60 C           2.2079  -11.0783  -44.5703 C.2       2 UNK         0.5000 
     61 O           1.1650  -11.7131  -44.3963 O.2       2 UNK        -0.5000 
     62 CA          3.1818  -11.4551  -45.7028 C.3       2 UNK         0.1400 
     63 CB          4.5672  -11.8284  -45.1416 C.3       2 UNK        -0.1800 
     64 N           2.7060  -12.5934  -46.4809 N.am      2 UNK        -0.5000 
     65 C           1.8608  -12.5561  -47.5153 C.2       1 UNK         0.5000 
     66 O           1.3485  -11.5145  -47.9296 O.2       1 UNK        -0.5000 
     67 C          -0.2668  -21.3263  -48.2651 C.2       11 UNK         0.5000 
     68 O          -0.3314  -22.1246  -49.1984 O.2       11 UNK        -0.5000 
     69 N          -1.3039  -20.5705  -47.8731 N.am      12 UNK        -0.5000 
     70 CA         -2.6365  -20.6239  -48.4802 C.3       12 UNK         0.1400 
     71 CB         -3.5221  -19.5170  -47.8909 C.3       12 UNK        -0.1800 
     72 C          -3.3151  -21.9998  -48.3318 C.2       12 UNK         0.5000 
     73 O          -3.9840  -22.4464  -49.2642 O.2       12 UNK        -0.5000 
     74 N          -3.1188  -22.6569  -47.1802 N.am      13 UNK        -0.5000 
     75 CA         -3.5677  -24.0227  -46.9151 C.3       13 UNK         0.1400 
     76 CB         -3.4033  -24.3531  -45.4244 C.3       13 UNK        -0.1800 
     77 C          -2.8441  -25.0571  -47.7957 C.2       13 UNK         0.5000 
     78 O          -3.4983  -25.9350  -48.3589 O.2       13 UNK        -0.5000 
     79 N          -1.5177  -24.9159  -47.9306 N.am      14 UNK        -0.5000 
     80 CA         -0.6804  -25.7491  -48.7972 C.3       14 UNK         0.1400 
     81 CB          0.8007  -25.4450  -48.5262 C.3       14 UNK        -0.1800 
     82 C          -1.0094  -25.5828  -50.2941 C.2       14 UNK         0.5000 
     83 O          -0.9614  -26.5614  -51.0409 O.2       14 UNK        -0.5000 
     84 N          -1.3772  -24.3609  -50.6989 N.am      15 UNK        -0.5000 
     85 CA         -1.7872  -23.9650  -52.0470 C.3       15 UNK         0.1400 
     86 CB         -1.6511  -22.4388  -52.1599 C.3       15 UNK        -0.1800 
     87 C          -3.1995  -24.4636  -52.4326 C.2       15 UNK         0.5000 
     88 O          -4.0466  -23.6700  -52.8489 O.2       15 UNK        -0.5000 
     89 N          -3.4127  -25.7805  -52.3057 N.am      16 UNK        -0.5000 
     90 CA         -4.6233  -26.5402  -52.6414 C.3       16 UNK         0.1400 
     91 CB         -4.8848  -26.5097  -54.1620 C.3       16 UNK        -0.1800 
     92 C          -5.8662  -26.1539  -51.8103 C.2       16 UNK         0.5000 
     93 O          -6.9884  -26.3263  -52.2875 O.2       16 UNK        -0.5000 
     94 N          -5.6309  -25.6860  -50.5754 N.am      17 UNK        -0.5000 
     95 CA         -6.5838  -25.1843  -49.5819 C.3       17 UNK         0.1400 
     96 CB         -7.6759  -26.2178  -49.2438 C.3       17 UNK        -0.1800 
     97 C          -7.1889  -23.8218  -49.9657 C.2       17 UNK         0.5000 
     98 O          -7.7548  -23.6708  -51.0475 O.2       17 UNK        -0.5000 
     99 N          -7.0821  -22.8572  -49.0412 N.am      18 UNK        -0.5000 
    100 CA        -7.6352  -21.4998  -49.1143 C.3       18 UNK         0.1400 
    101 CB        -9.1732  -21.5445  -48.9915 C.3       18 UNK        -0.1800 
    102 C         -7.1534  -20.6845  -50.3357 C.2       18 UNK         0.5000 
    103 O         -7.9287  -19.9056  -50.8936 O.2       18 UNK        -0.5000 
    104 N         -5.8778  -20.8681  -50.7131 N.am      19 UNK        -0.5000 
    105 CA        -5.1764  -20.1828  -51.8059 C.3       19 UNK         0.1400 
    106 CB        -5.0300  -18.6763  -51.4867 C.3       19 UNK        -0.1800 
    107 C         -5.7929  -20.4557  -53.1971 C.2       19 UNK         0.5000 
    108 O         -5.8389  -19.5608  -54.0433 O.2       19 UNK        -0.5000 
    109 N         -6.2820  -21.6849  -53.4043 N.am      20 UNK        -0.5000 
    110 CA        -6.9880  -22.0978  -54.6149 C.3       20 UNK         0.1400 
    111 CB        -7.8299  -23.3449  -54.3119 C.3       20 UNK        -0.1800 
    112 C         -6.0724  -22.3573  -55.8236 C.2       20 UNK         0.5000 
    113 O         -6.5330  -22.1768  -56.9518 O.2       20 UNK        -0.5000 
    114 N         -4.8275  -22.8049  -55.5900 N.am      21 UNK        -0.5000 
    115 CA        -3.8871  -23.1890  -56.6510 C.3       21 UNK         0.1400 
    116 CB        -2.6808  -23.9646  -56.0896 C.3       21 UNK        -0.1800 
    117 C         -3.5050  -22.0378  -57.6161 C.2       21 UNK         0.5000 
    118 O         -3.7958  -22.1563  -58.8056 O.2       21 UNK        -0.5000 
    119 N         -2.9216  -20.9134  -57.1727 N.am      22 UNK        -0.5000 
    120 CA        -2.2148  -20.6911  -55.9006 C.3       22 UNK         0.1400 
    121 C         -0.7052  -21.0952  -55.9689 C.2       22 UNK         0.5000 
    122 N         -0.1642  -21.4613  -57.1255 N.am      22 UNK        -0.7600 
    123 O         -0.0130  -21.1099  -54.9573 O.2       22 UNK        -0.5000 
    124 C124       -2.4131  -19.2335  -55.4119 C.3       23 UNK        -0.0398 
    125 S125       -2.1672  -19.0514  -53.6129 S.3       23 UNK        -0.2404 
    126 C126       -0.8221  -17.8350  -53.5631 C.3       23 UNK        -0.0205 
    127 H127        5.7354  -15.4416  -47.6913 H         1 UNK         0.0600 
    128 H128        4.9502  -15.9342  -49.1961 H         1 UNK         0.0600 
    129 H129        4.9233  -17.0058  -47.7916 H         1 UNK         0.0600 
    130 H130        3.2146  -14.5313  -49.4419 H         1 UNK         0.3000 
    131 H131        1.0463  -14.5218  -47.5167 H         1 UNK         0.0600 
    132 H132        0.9252  -12.8432  -50.0351 H         1 UNK         0.0800 
    133 H133        1.0501  -14.5368  -50.2568 H         1 UNK         0.0800 
    134 H134       -0.9662  -16.0060  -47.9375 H         1 UNK         0.0800 
    135 H135       -2.3401  -15.9970  -49.0037 H         1 UNK         0.0800 
    136 H136       -1.9618  -16.4100  -51.5293 H         1 UNK         0.1150 
    137 H137        1.4713  -18.8079  -52.4641 H         1 UNK         0.1150 
    138 H138        1.0960  -17.0141  -48.5916 H         1 UNK         0.1150 
    139 H139        3.4502  -18.5166  -50.9482 H         1 UNK         0.0800 
    140 H140        3.2421  -17.9325  -49.3201 H         1 UNK         0.0800 
    141 H141        1.3602  -19.1175  -47.7851 H         1 UNK         0.0800 
    142 H142        2.7469  -19.9372  -47.1342 H         1 UNK         0.0800 
    143 H143        1.6042  -22.1491  -47.6507 H         1 UNK         0.0600 
    144 H144        0.9791  -20.3965  -45.4924 H         1 UNK         0.3000 
    145 H145       -0.7425  -22.8725  -43.5440 H         1 UNK         0.0600 
    146 H146        0.9820  -22.1522  -41.9343 H         1 UNK         0.0600 
    147 H147        1.7212  -23.1507  -43.1759 H         1 UNK         0.0600 
    148 H148        1.9273  -21.4034  -43.2196 H         1 UNK         0.0600 
    149 H149       -0.2143  -20.1431  -42.9991 H         1 UNK         0.3000 
    150 H150       -3.2068  -18.8136  -44.5219 H         1 UNK         0.0600 
    151 H151       -3.7990  -19.7133  -42.2586 H         1 UNK         0.0600 
    152 H152       -3.4879  -17.9854  -42.2191 H         1 UNK         0.0600 
    153 H153       -2.2719  -19.1133  -41.6209 H         1 UNK         0.0600 
    154 H154       -1.1471  -17.4849  -43.1207 H         1 UNK         0.3000 
    155 H155        0.9404  -16.7471  -45.9679 H         1 UNK         0.0600 
    156 H156       -0.8455  -15.0156  -45.7619 H         1 UNK         0.0600 
    157 H157        0.6142  -14.5140  -44.9209 H         1 UNK         0.0600 
    158 H158       -0.7667  -15.1183  -44.0110 H         1 UNK         0.0600 
    159 H159        1.3697  -16.2126  -43.2235 H         1 UNK         0.3000 
    160 H160        3.0962  -19.2190  -42.3625 H         1 UNK         0.0600 
    161 H161        3.9626  -16.3013  -42.7456 H         1 UNK         0.0600 
    162 H162        4.7592  -17.7132  -43.4222 H         1 UNK         0.0600 
    163 H163        4.7400  -17.4727  -41.6814 H         1 UNK         0.0600 
    164 H164        2.2777  -16.8092  -40.9746 H         1 UNK         0.3000 
    165 H165       -0.7110  -18.2005  -39.5887 H         1 UNK         0.0600 
    166 H166        0.4540  -17.6121  -37.4846 H         1 UNK         0.0600 
    167 H167        2.0035  -17.5381  -38.3242 H         1 UNK         0.0600 
    168 H168        1.1533  -19.0708  -38.1686 H         1 UNK         0.0600 
    169 H169        0.5931  -15.6894  -39.2037 H         1 UNK         0.3000 
    170 H170       -0.8998  -13.9477  -41.9161 H         1 UNK         0.0600 
    171 H171       -2.7456  -14.0635  -40.2295 H         1 UNK         0.0600 
    172 H172       -1.5813  -13.8223  -38.9318 H         1 UNK         0.0600 
    173 H173       -1.8609  -12.5501  -40.1214 H         1 UNK         0.0600 
    174 H174        0.5563  -12.7852  -39.9230 H         1 UNK         0.3000 
    175 H175        2.8382  -12.6426  -39.6811 H         1 UNK         0.0600 
    176 H176        4.4989  -13.7988  -41.9906 H         1 UNK         0.0600 
    177 H177        5.1201  -12.9142  -40.5985 H         1 UNK         0.0600 
    178 H178        4.3820  -14.4933  -40.3787 H         1 UNK         0.0600 
    179 H179        3.4991  -11.6403  -42.3346 H         1 UNK         0.3000 
    180 H180        0.8750   -9.4645  -42.7852 H         1 UNK         0.0600 
    181 H181        3.6049   -8.4378  -41.8325 H         1 UNK         0.0600 
    182 H182        2.0464   -7.9576  -41.1724 H         1 UNK         0.0600 
    183 H183        2.4546   -7.5453  -42.8295 H         1 UNK         0.0600 
    184 H184        3.4630   -9.5889  -43.9983 H         1 UNK         0.3000 
    185 H185        3.2890  -10.5901  -46.3604 H         1 UNK         0.0600 
    186 H186        5.0340  -10.9906  -44.6229 H         1 UNK         0.0600 
    187 H187        4.5048  -12.6607  -44.4388 H         1 UNK         0.0600 
    188 H188        5.2474  -12.1222  -45.9416 H         1 UNK         0.0600 
    189 H189        3.0350  -13.5089  -46.1905 H         1 UNK         0.3000 
    190 H190       -1.1759  -19.8987  -47.1202 H         1 UNK         0.3000 
    191 H191       -2.5201  -20.4265  -49.5476 H         1 UNK         0.0600 
    192 H192       -3.6310  -19.6217  -46.8117 H         1 UNK         0.0600 
    193 H193       -4.5226  -19.5408  -48.3240 H         1 UNK         0.0600 
    194 H194       -3.1030  -18.5307  -48.0915 H         1 UNK         0.0600 
    195 H195       -2.6352  -22.1820  -46.4228 H         1 UNK         0.3000 
    196 H196       -4.6321  -24.0699  -47.1445 H         1 UNK         0.0600 
    197 H197       -3.7553  -25.3624  -45.2075 H         1 UNK         0.0600 
    198 H198       -3.9805  -23.6675  -44.8038 H         1 UNK         0.0600 
    199 H199       -2.3627  -24.2938  -45.1070 H         1 UNK         0.0600 
    200 H200       -1.0457  -24.1901  -47.4004 H         1 UNK         0.3000 
    201 H201       -0.8650  -26.7926  -48.5338 H         1 UNK         0.0600 
    202 H202        1.0537  -25.6182  -47.4800 H         1 UNK         0.0600 
    203 H203        1.0505  -24.4108  -48.7632 H         1 UNK         0.0600 
    204 H204        1.4469  -26.0849  -49.1283 H         1 UNK         0.0600 
    205 H205       -1.3205  -23.6068  -50.0206 H         1 UNK         0.3000 
    206 H206       -1.0918  -24.4106  -52.7608 H         1 UNK         0.0600 
    207 H207       -0.6212  -22.1187  -52.0001 H         1 UNK         0.0600 
    208 H208       -1.9440  -22.0882  -53.1466 H         1 UNK         0.0600 
    209 H209       -2.2757  -21.9273  -51.4295 H         1 UNK         0.0600 
    210 H210       -2.6396  -26.3270  -51.9349 H         1 UNK         0.3000 
    211 H211       -4.4054  -27.5749  -52.3735 H         1 UNK         0.0600 
    212 H212       -5.1454  -25.5101  -54.5091 H         1 UNK         0.0600 
    213 H213       -5.7067  -27.1727  -54.4341 H         1 UNK         0.0600 
    214 H214       -4.0091  -26.8447  -54.7170 H         1 UNK         0.0600 
    215 H215       -4.6624  -25.6143  -50.2895 H         1 UNK         0.3000 
    216 H216       -5.9990  -25.0443  -48.6749 H         1 UNK         0.0600 
    217 H217       -8.2729  -25.8829  -48.3949 H         1 UNK         0.0600 
    218 H218       -7.2400  -27.1804  -48.9762 H         1 UNK         0.0600 
    219 H219       -8.3627  -26.3771  -50.0753 H         1 UNK         0.0600 
    220 H220       -6.5731  -23.0640  -48.1946 H         1 UNK         0.3000 
    221 H221       -7.2538  -20.9718  -48.2392 H         1 UNK         0.0600 
    222 H222       -9.6336  -22.0144  -49.8612 H         1 UNK         0.0600 
    223 H223       -9.4825  -22.1010  -48.1068 H         1 UNK         0.0600 
    224 H224       -9.5900  -20.5406  -48.9025 H         1 UNK         0.0600 
    225 H225       -5.3236  -21.5567  -50.2080 H         1 UNK         0.3000 
    226 H226       -4.1746  -20.6101  -51.8396 H         1 UNK         0.0600 
    227 H227       -4.4726  -18.5217  -50.5638 H         1 UNK         0.0600 
    228 H228       -4.4940  -18.1472  -52.2730 H         1 UNK         0.0600 
    229 H229       -5.9963  -18.1835  -51.3826 H         1 UNK         0.0600 
    230 H230       -6.1901  -22.3781  -52.6727 H         1 UNK         0.3000 
    231 H231       -7.6756  -21.2973  -54.8964 H         1 UNK         0.0600 
    232 H232       -8.3528  -23.6957  -55.2025 H         1 UNK         0.0600 
    233 H233       -8.5863  -23.1339  -53.5562 H         1 UNK         0.0600 
    234 H234       -7.2114  -24.1654  -53.9481 H         1 UNK         0.0600 
    235 H235       -4.5415  -22.9621  -54.6277 H         1 UNK         0.3000 
    236 H236       -4.4236  -23.9104  -57.2717 H         1 UNK         0.0600 
    237 H237       -2.2376  -23.4921  -55.2160 H         1 UNK         0.0600 
    238 H238       -2.9750  -24.9697  -55.7920 H         1 UNK         0.0600 
    239 H239       -1.8972  -24.0737  -56.8405 H         1 UNK         0.0600 
    240 H240       -2.7824  -20.1778  -57.8492 H         1 UNK         0.3000 
    241 H241       -2.6748  -21.3239  -55.1470 H         1 UNK         0.0600 
    242 H242        0.8076  -21.7280  -57.1493 H         1 UNK         0.3800 
    243 H243       -0.7040  -21.4681  -57.9763 H         1 UNK         0.3800 
    244 H244       -1.7737  -18.5427  -55.9641 H         1 UNK         0.0800 
    245 H245       -3.4374  -18.9145  -55.6116 H         1 UNK         0.0800 
    246 H246       -0.0140  -18.1657  -54.2178 H         1 UNK         0.0800 
    247 H247       -1.1776  -16.8837  -53.9618 H         1 UNK         0.0800 
@<TRIPOS>BOND
     1    1    2 1    
     2    1  127 1    
     3    1  128 1    
     4    1  129 1    
     5    2    3 2    
     6    2    4 am   BACKBONE|DICT|INTERRES
     7    4    5 1    
     8    4  130 1    
     9    5    6 1    
    10    5   65 1    
    11    5  131 1    
    12    6    7 1    
    13    6  132 1    
    14    6  133 1    
    15    7    8 1    
    16    8    9 1    
    17    8  134 1    
    18    8  135 1    
    19    9   10 ar   
    20    9   14 ar   
    21   10   11 ar   
    22   10  136 1    
    23   11   12 ar   
    24   11  126 1    
    25   12   13 ar   
    26   12  137 1    
    27   13   14 ar   
    28   13   15 1    
    29   14  138 1    
    30   15   16 1    
    31   15  139 1    
    32   15  140 1    
    33   16   17 1    
    34   17   18 1    
    35   17  141 1    
    36   17  142 1    
    37   18   19 1    
    38   18   67 1    
    39   18  143 1    
    40   19   20 am   BACKBONE|DICT|INTERRES
    41   19  144 1    
    42   20   21 2    
    43   20   22 1    
    44   22   23 1    
    45   22   24 1    
    46   22  145 1    
    47   23  146 1    
    48   23  147 1    
    49   23  148 1    
    50   24   25 am   BACKBONE|DICT|INTERRES
    51   24  149 1    
    52   25   26 2    
    53   25   27 1    
    54   27   28 1    
    55   27   29 1    
    56   27  150 1    
    57   28  151 1    
    58   28  152 1    
    59   28  153 1    
    60   29   30 am   BACKBONE|DICT|INTERRES
    61   29  154 1    
    62   30   31 2    
    63   30   32 1    
    64   32   33 1    
    65   32   34 1    
    66   32  155 1    
    67   33  156 1    
    68   33  157 1    
    69   33  158 1    
    70   34   35 am   BACKBONE|DICT|INTERRES
    71   34  159 1    
    72   35   36 2    
    73   35   37 1    
    74   37   38 1    
    75   37   39 1    
    76   37  160 1    
    77   38  161 1    
    78   38  162 1    
    79   38  163 1    
    80   39   40 am   BACKBONE|DICT|INTERRES
    81   39  164 1    
    82   40   41 2    
    83   40   42 1    
    84   42   43 1    
    85   42   44 1    
    86   42  165 1    
    87   43  166 1    
    88   43  167 1    
    89   43  168 1    
    90   44   45 am   BACKBONE|DICT|INTERRES
    91   44  169 1    
    92   45   46 2    
    93   45   47 1    
    94   47   48 1    
    95   47   49 1    
    96   47  170 1    
    97   48  171 1    
    98   48  172 1    
    99   48  173 1    
   100   49   50 am   BACKBONE|DICT|INTERRES
   101   49  174 1    
   102   50   51 2    
   103   50   52 1    
   104   52   53 1    
   105   52   54 1    
   106   52  175 1    
   107   53  176 1    
   108   53  177 1    
   109   53  178 1    
   110   54   55 am   BACKBONE|DICT|INTERRES
   111   54  179 1    
   112   55   56 2    
   113   55   57 1    
   114   57   58 1    
   115   57   59 1    
   116   57  180 1    
   117   58  181 1    
   118   58  182 1    
   119   58  183 1    
   120   59   60 am   BACKBONE|DICT|INTERRES
   121   59  184 1    
   122   60   61 2    
   123   60   62 1    
   124   62   63 1    
   125   62   64 1    
   126   62  185 1    
   127   63  186 1    
   128   63  187 1    
   129   63  188 1    
   130   64   65 am   BACKBONE|DICT|INTERRES
   131   64  189 1    
   132   65   66 2    
   133   67   68 2    
   134   67   69 am   BACKBONE|DICT|INTERRES
   135   69   70 1    
   136   69  190 1    
   137   70   71 1    
   138   70   72 1    
   139   70  191 1    
   140   71  192 1    
   141   71  193 1    
   142   71  194 1    
   143   72   73 2    
   144   72   74 am   BACKBONE|DICT|INTERRES
   145   74   75 1    
   146   74  195 1    
   147   75   76 1    
   148   75   77 1    
   149   75  196 1    
   150   76  197 1    
   151   76  198 1    
   152   76  199 1    
   153   77   78 2    
   154   77   79 am   BACKBONE|DICT|INTERRES
   155   79   80 1    
   156   79  200 1    
   157   80   81 1    
   158   80   82 1    
   159   80  201 1    
   160   81  202 1    
   161   81  203 1    
   162   81  204 1    
   163   82   83 2    
   164   82   84 am   BACKBONE|DICT|INTERRES
   165   84   85 1    
   166   84  205 1    
   167   85   86 1    
   168   85   87 1    
   169   85  206 1    
   170   86  207 1    
   171   86  208 1    
   172   86  209 1    
   173   87   88 2    
   174   87   89 am   BACKBONE|DICT|INTERRES
   175   89   90 1    
   176   89  210 1    
   177   90   91 1    
   178   90   92 1    
   179   90  211 1    
   180   91  212 1    
   181   91  213 1    
   182   91  214 1    
   183   92   93 2    
   184   92   94 am   BACKBONE|DICT|INTERRES
   185   94   95 1    
   186   94  215 1    
   187   95   96 1    
   188   95   97 1    
   189   95  216 1    
   190   96  217 1    
   191   96  218 1    
   192   96  219 1    
   193   97   98 2    
   194   97   99 am   BACKBONE|DICT|INTERRES
   195   99  100 1    
   196   99  220 1    
   197  100  101 1    
   198  100  102 1    
   199  100  221 1    
   200  101  222 1    
   201  101  223 1    
   202  101  224 1    
   203  102  103 2    
   204  102  104 am   BACKBONE|DICT|INTERRES
   205  104  105 1    
   206  104  225 1    
   207  105  106 1    
   208  105  107 1    
   209  105  226 1    
   210  106  227 1    
   211  106  228 1    
   212  106  229 1    
   213  107  108 2    
   214  107  109 am   BACKBONE|DICT|INTERRES
   215  109  110 1    
   216  109  230 1    
   217  110  111 1    
   218  110  112 1    
   219  110  231 1    
   220  111  232 1    
   221  111  233 1    
   222  111  234 1    
   223  112  113 2    
   224  112  114 am   BACKBONE|DICT|INTERRES
   225  114  115 1    
   226  114  235 1    
   227  115  116 1    
   228  115  117 1    
   229  115  236 1    
   230  116  237 1    
   231  116  238 1    
   232  116  239 1    
   233  117  118 2    
   234  117  119 am   BACKBONE|DICT|INTERRES
   235  119  120 1    
   236  119  240 1    
   237  120  121 1    
   238  120  124 1    
   239  120  241 1    
   240  121  122 am   BACKBONE|DICT|INTERRES
   241  121  123 2    
   242  122  242 1    
   243  122  243 1    
   244  124  125 1    
   245  124  244 1    
   246  124  245 1    
   247  125  126 1    
   248  126  246 1    
   249  126  247 1    
@<TRIPOS>SUBSTRUCTURE
     1 UNK         1 GROUP             0       ****    0 ROOT    
