@<TRIPOS>MOLECULE
3R540
247   249    1
SMALL
USER_CHARGES


@<TRIPOS>ATOM
      1 CA         -1.3782  -12.6834  -51.6008 C.3       0 UNK        -0.1800 
      2 C          -1.7442  -13.8567  -50.7037 C.2       0 UNK         0.5000 
      3 O          -1.0919  -14.8962  -50.7642 O.2       0 UNK        -0.5000 
      4 N          -2.7858  -13.6878  -49.8786 N.am      1 UNK        -0.5000 
      5 CA         -3.2921  -14.6796  -48.9236 C.3       1 UNK         0.1400 
      6 C6         -4.6403  -14.2088  -48.3057 C.3       23 UNK        -0.0398 
      7 S7         -5.2634  -15.1863  -46.8893 S.3       23 UNK        -0.2404 
      8 C8         -6.7005  -16.0355  -47.6141 C.3       23 UNK        -0.0205 
      9 C9         -6.3224  -17.0449  -48.6901 C.ar      23 UNK        -0.0193 
     10 C10        -6.9222  -16.9795  -49.9520 C.ar      23 UNK        -0.1150 
     11 C11        -6.6328  -17.9351  -50.9321 C.ar      23 UNK        -0.0193 
     12 C12        -5.7372  -18.9640  -50.6316 C.ar      23 UNK        -0.1150 
     13 C13        -5.1184  -19.0345  -49.3817 C.ar      23 UNK        -0.0193 
     14 C14        -5.4145  -18.0726  -48.4135 C.ar      23 UNK        -0.1150 
     15 C15        -4.1268  -20.1483  -49.0911 C.3       23 UNK        -0.0205 
     16 S16        -4.9445  -21.6632  -48.5048 S.3       23 UNK        -0.2404 
     17 C17        -4.8855  -21.4377  -46.6957 C.3       23 UNK        -0.0398 
     18 CA         -3.5504  -21.9197  -46.0672 C.3       11 UNK         0.1400 
     19 N          -3.2968  -21.3509  -44.7423 N.am      11 UNK        -0.5000 
     20 C          -4.0572  -21.4001  -43.6419 C.2       10 UNK         0.5000 
     21 O          -5.1121  -22.0311  -43.5681 O.2       10 UNK        -0.5000 
     22 CA         -3.5464  -20.6152  -42.4159 C.3       10 UNK         0.1400 
     23 CB         -2.7369  -21.5368  -41.4915 C.3       10 UNK        -0.1800 
     24 N          -2.7235  -19.4584  -42.7826 N.am      10 UNK        -0.5000 
     25 C          -3.1937  -18.3419  -43.3598 C.2       9 UNK         0.5000 
     26 O          -4.3918  -18.1183  -43.5355 O.2       9 UNK        -0.5000 
     27 CA         -2.1501  -17.3225  -43.8620 C.3       9 UNK         0.1400 
     28 CB         -1.6952  -16.3936  -42.7260 C.3       9 UNK        -0.1800 
     29 N          -0.9790  -17.9580  -44.4694 N.am      9 UNK        -0.5000 
     30 C          -1.0192  -18.7295  -45.5662 C.2       8 UNK         0.5000 
     31 O          -2.0410  -18.9593  -46.2099 O.2       8 UNK        -0.5000 
     32 CA          0.2842  -19.4380  -45.9633 C.3       8 UNK         0.1400 
     33 CB          1.2029  -18.5114  -46.7672 C.3       8 UNK        -0.1800 
     34 N           0.9979  -19.9550  -44.7968 N.am      8 UNK        -0.5000 
     35 C           0.5971  -21.0092  -44.0730 C.2       7 UNK         0.5000 
     36 O          -0.3913  -21.6905  -44.3444 O.2       7 UNK        -0.5000 
     37 CA          1.4296  -21.3443  -42.8232 C.3       7 UNK         0.1400 
     38 CB          2.6142  -22.2490  -43.1920 C.3       7 UNK        -0.1800 
     39 N           1.9155  -20.1527  -42.1286 N.am      7 UNK        -0.5000 
     40 C           1.1221  -19.2803  -41.4904 C.2       6 UNK         0.5000 
     41 O          -0.0997  -19.4041  -41.4063 O.2       6 UNK        -0.5000 
     42 CA          1.8057  -18.0395  -40.8855 C.3       6 UNK         0.1400 
     43 CB          2.2942  -18.3338  -39.4595 C.3       6 UNK        -0.1800 
     44 N           2.9256  -17.5417  -41.6918 N.am      6 UNK        -0.5000 
     45 C           2.8053  -17.0782  -42.9428 C.2       5 UNK         0.5000 
     46 O           1.7369  -17.0624  -43.5540 O.2       5 UNK        -0.5000 
     47 CA          4.0947  -16.6166  -43.6356 C.3       5 UNK         0.1400 
     48 CB          4.5969  -17.6806  -44.6262 C.3       5 UNK        -0.1800 
     49 N           3.8758  -15.3525  -44.3386 N.am      5 UNK        -0.5000 
     50 C           4.7955  -14.3797  -44.4385 C.2       4 UNK         0.5000 
     51 O           5.9252  -14.4754  -43.9537 O.2       4 UNK        -0.5000 
     52 CA          4.4000  -13.0767  -45.1761 C.3       4 UNK         0.1400 
     53 CB          5.6189  -12.2651  -45.6648 C.3       4 UNK        -0.1800 
     54 N           3.4405  -13.2736  -46.2656 N.am      4 UNK        -0.5000 
     55 C           3.5882  -14.0227  -47.3688 C.2       3 UNK         0.5000 
     56 O           4.6443  -14.5737  -47.6837 O.2       3 UNK        -0.5000 
     57 CA          2.3352  -14.1930  -48.2663 C.3       3 UNK         0.1400 
     58 CB          2.3028  -15.5769  -48.9441 C.3       3 UNK        -0.1800 
     59 N           1.0433  -13.9375  -47.6047 N.am      3 UNK        -0.5000 
     60 C           0.5900  -14.4798  -46.4630 C.2       2 UNK         0.5000 
     61 O           1.2578  -15.2142  -45.7419 O.2       2 UNK        -0.5000 
     62 CA         -0.8336  -14.1052  -46.0271 C.3       2 UNK         0.1400 
     63 CB         -0.8261  -12.8081  -45.2049 C.3       2 UNK        -0.1800 
     64 N          -1.7630  -13.9691  -47.1462 N.am      2 UNK        -0.5000 
     65 C          -2.2241  -15.0074  -47.8588 C.2       1 UNK         0.5000 
     66 O          -1.8473  -16.1677  -47.7057 O.2       1 UNK        -0.5000 
     67 C          -3.3706  -23.4497  -46.0965 C.2       11 UNK         0.5000 
     68 O          -2.5712  -23.9512  -46.8895 O.2       11 UNK        -0.5000 
     69 N          -4.0734  -24.1648  -45.2090 N.am      12 UNK        -0.5000 
     70 CA         -4.0343  -25.6231  -45.0826 C.3       12 UNK         0.1400 
     71 CB         -5.1006  -26.0711  -44.0727 C.3       12 UNK        -0.1800 
     72 C          -2.6479  -26.1599  -44.6825 C.2       12 UNK         0.5000 
     73 O          -2.2335  -27.2066  -45.1800 O.2       12 UNK        -0.5000 
     74 N          -1.9352  -25.4086  -43.8321 N.am      13 UNK        -0.5000 
     75 CA         -0.5741  -25.7155  -43.3857 C.3       13 UNK         0.1400 
     76 CB         -0.2282  -24.8124  -42.1953 C.3       13 UNK        -0.1800 
     77 C           0.4803  -25.5843  -44.5035 C.2       13 UNK         0.5000 
     78 O           1.4950  -26.2796  -44.4613 O.2       13 UNK        -0.5000 
     79 N           0.2065  -24.7285  -45.4973 N.am      14 UNK        -0.5000 
     80 CA          0.9956  -24.5757  -46.7212 C.3       14 UNK         0.1400 
     81 CB          0.9447  -23.1031  -47.1657 C.3       14 UNK        -0.1800 
     82 C           0.5150  -25.5071  -47.8532 C.2       14 UNK         0.5000 
     83 O           0.9866  -25.3655  -48.9813 O.2       14 UNK        -0.5000 
     84 N          -0.4405  -26.4064  -47.5645 N.am      15 UNK        -0.5000 
     85 CA         -1.1005  -27.3277  -48.4992 C.3       15 UNK         0.1400 
     86 CB         -0.1113  -28.4064  -48.9869 C.3       15 UNK        -0.1800 
     87 C          -1.8164  -26.5998  -49.6590 C.2       15 UNK         0.5000 
     88 O          -1.8913  -27.1268  -50.7701 O.2       15 UNK        -0.5000 
     89 N          -2.3077  -25.3855  -49.3718 N.am      16 UNK        -0.5000 
     90 CA         -2.9514  -24.4367  -50.2797 C.3       16 UNK         0.1400 
     91 CB         -4.2928  -24.9879  -50.8037 C.3       16 UNK        -0.1800 
     92 C          -2.0396  -23.9025  -51.4041 C.2       16 UNK         0.5000 
     93 O          -2.5530  -23.3797  -52.3923 O.2       16 UNK        -0.5000 
     94 N          -0.7086  -23.9786  -51.2377 N.am      17 UNK        -0.5000 
     95 CA          0.2727  -23.4768  -52.2102 C.3       17 UNK         0.1400 
     96 CB          1.6882  -23.8615  -51.7576 C.3       17 UNK        -0.1800 
     97 C           0.1807  -21.9561  -52.4520 C.2       17 UNK         0.5000 
     98 O           0.4363  -21.4946  -53.5647 O.2       17 UNK        -0.5000 
     99 N          -0.2343  -21.2112  -51.4180 N.am      18 UNK        -0.5000 
    100 CA        -0.4715  -19.7678  -51.4621 C.3       18 UNK         0.1400 
    101 CB        -0.5351  -19.2278  -50.0261 C.3       18 UNK        -0.1800 
    102 C         -1.7142  -19.3561  -52.2800 C.2       18 UNK         0.5000 
    103 O         -1.8588  -18.1717  -52.5833 O.2       18 UNK        -0.5000 
    104 N         -2.5669  -20.3162  -52.6777 N.am      19 UNK        -0.5000 
    105 CA        -3.7218  -20.0846  -53.5540 C.3       19 UNK         0.1400 
    106 CB        -4.6339  -21.3205  -53.5565 C.3       19 UNK        -0.1800 
    107 C         -3.3370  -19.6924  -54.9932 C.2       19 UNK         0.5000 
    108 O         -4.1764  -19.1524  -55.7133 O.2       19 UNK        -0.5000 
    109 N         -2.0724  -19.9244  -55.3750 N.am      20 UNK        -0.5000 
    110 CA        -1.4671  -19.4045  -56.6011 C.3       20 UNK         0.1400 
    111 CB        -0.0981  -20.0716  -56.8015 C.3       20 UNK        -0.1800 
    112 C         -1.3247  -17.8672  -56.5926 C.2       20 UNK         0.5000 
    113 O         -1.2945  -17.2626  -57.6652 O.2       20 UNK        -0.5000 
    114 N         -1.2512  -17.2679  -55.3951 N.am      21 UNK        -0.5000 
    115 CA        -1.2477  -15.8257  -55.1809 C.3       21 UNK         0.1400 
    116 CB        -0.2034  -15.4671  -54.1106 C.3       21 UNK        -0.1800 
    117 C         -2.6613  -15.3598  -54.7964 C.2       21 UNK         0.5000 
    118 O         -3.2675  -14.6036  -55.5561 O.2       21 UNK        -0.5000 
    119 N         -3.1645  -15.8285  -53.6433 N.am      22 UNK        -0.5000 
    120 CA        -4.4982  -15.5787  -53.0528 C.3       22 UNK         0.1400 
    121 C         -4.8376  -14.0896  -52.7184 C.2       22 UNK         0.5000 
    122 N         -4.4033  -13.1124  -53.5001 N.am      22 UNK        -0.7600 
    123 O         -5.4822  -13.8115  -51.7122 O.2       22 UNK        -0.5000 
    124 C124       -5.6175  -16.2669  -53.8822 C.3       23 UNK        -0.0398 
    125 S125       -7.2754  -16.2829  -53.1104 S.3       23 UNK        -0.2404 
    126 C126       -7.3367  -17.9085  -52.2856 C.3       23 UNK        -0.0205 
    127 H127       -1.6092  -12.9202  -52.6388 H         1 UNK         0.0600 
    128 H128       -0.3118  -12.4702  -51.5266 H         1 UNK         0.0600 
    129 H129       -1.9254  -11.7803  -51.3297 H         1 UNK         0.0600 
    130 H130       -3.2947  -12.8162  -49.9127 H         1 UNK         0.3000 
    131 H131       -3.4874  -15.6003  -49.4785 H         1 UNK         0.0600 
    132 H132       -5.4051  -14.1815  -49.0822 H         1 UNK         0.0800 
    133 H133       -4.5474  -13.1802  -47.9544 H         1 UNK         0.0800 
    134 H134       -7.3945  -15.2886  -48.0030 H         1 UNK         0.0800 
    135 H135       -7.2309  -16.5609  -46.8191 H         1 UNK         0.0800 
    136 H136       -7.6334  -16.1947  -50.1687 H         1 UNK         0.1150 
    137 H137       -5.5351  -19.7310  -51.3615 H         1 UNK         0.1150 
    138 H138       -4.9428  -18.1259  -47.4417 H         1 UNK         0.1150 
    139 H139       -3.5765  -20.3884  -50.0006 H         1 UNK         0.0800 
    140 H140       -3.3860  -19.8133  -48.3647 H         1 UNK         0.0800 
    141 H141       -5.7367  -21.9562  -46.2520 H         1 UNK         0.0800 
    142 H142       -5.0378  -20.3797  -46.4786 H         1 UNK         0.0800 
    143 H143       -2.7424  -21.5195  -46.6811 H         1 UNK         0.0600 
    144 H144       -2.4098  -20.8698  -44.6630 H         1 UNK         0.3000 
    145 H145       -4.4184  -20.2571  -41.8649 H         1 UNK         0.0600 
    146 H146       -2.4364  -21.0160  -40.5822 H         1 UNK         0.0600 
    147 H147       -3.3229  -22.4062  -41.1908 H         1 UNK         0.0600 
    148 H148       -1.8333  -21.9006  -41.9799 H         1 UNK         0.0600 
    149 H149       -1.7290  -19.5263  -42.5908 H         1 UNK         0.3000 
    150 H150       -2.6293  -16.7146  -44.6325 H         1 UNK         0.0600 
    151 H151       -2.5404  -15.8421  -42.3129 H         1 UNK         0.0600 
    152 H152       -0.9670  -15.6622  -43.0770 H         1 UNK         0.0600 
    153 H153       -1.2370  -16.9517  -41.9096 H         1 UNK         0.0600 
    154 H154       -0.0790  -17.7785  -44.0343 H         1 UNK         0.3000 
    155 H155        0.0145  -20.2781  -46.6066 H         1 UNK         0.0600 
    156 H156        1.6297  -17.7308  -46.1408 H         1 UNK         0.0600 
    157 H157        0.6530  -18.0157  -47.5679 H         1 UNK         0.0600 
    158 H158        2.0248  -19.0647  -47.2213 H         1 UNK         0.0600 
    159 H159        1.7849  -19.4132  -44.4721 H         1 UNK         0.3000 
    160 H160        0.7874  -21.8851  -42.1278 H         1 UNK         0.0600 
    161 H161        3.3171  -21.7439  -43.8556 H         1 UNK         0.0600 
    162 H162        2.2729  -23.1508  -43.7021 H         1 UNK         0.0600 
    163 H163        3.1591  -22.5670  -42.3031 H         1 UNK         0.0600 
    164 H164        2.9093  -19.9783  -42.1494 H         1 UNK         0.3000 
    165 H165        1.0565  -17.2468  -40.8315 H         1 UNK         0.0600 
    166 H166        2.6985  -17.4379  -38.9881 H         1 UNK         0.0600 
    167 H167        1.4750  -18.6878  -38.8319 H         1 UNK         0.0600 
    168 H168        3.0707  -19.0997  -39.4487 H         1 UNK         0.0600 
    169 H169        3.8338  -17.5408  -41.2499 H         1 UNK         0.3000 
    170 H170        4.8528  -16.4808  -42.8614 H         1 UNK         0.0600 
    171 H171        4.7278  -18.6463  -44.1364 H         1 UNK         0.0600 
    172 H172        3.9015  -17.8198  -45.4537 H         1 UNK         0.0600 
    173 H173        5.5610  -17.3974  -45.0490 H         1 UNK         0.0600 
    174 H174        2.9514  -15.2378  -44.7518 H         1 UNK         0.3000 
    175 H175        3.8836  -12.4672  -44.4335 H         1 UNK         0.0600 
    176 H176        6.2329  -12.8359  -46.3618 H         1 UNK         0.0600 
    177 H177        5.3074  -11.3482  -46.1652 H         1 UNK         0.0600 
    178 H178        6.2574  -11.9747  -44.8298 H         1 UNK         0.0600 
    179 H179        2.5229  -12.8846  -46.1055 H         1 UNK         0.3000 
    180 H180        2.4242  -13.4424  -49.0527 H         1 UNK         0.0600 
    181 H181        1.3996  -15.7079  -49.5408 H         1 UNK         0.0600 
    182 H182        2.3386  -16.3784  -48.2076 H         1 UNK         0.0600 
    183 H183        3.1548  -15.7088  -49.6117 H         1 UNK         0.0600 
    184 H184        0.4135  -13.3294  -48.1075 H         1 UNK         0.3000 
    185 H185       -1.1963  -14.9084  -45.3842 H         1 UNK         0.0600 
    186 H186       -1.8190  -12.5844  -44.8142 H         1 UNK         0.0600 
    187 H187       -0.1544  -12.8932  -44.3494 H         1 UNK         0.0600 
    188 H188       -0.4974  -11.9540  -45.7982 H         1 UNK         0.0600 
    189 H189       -2.1102  -13.0426  -47.3448 H         1 UNK         0.3000 
    190 H190       -4.6749  -23.6570  -44.5669 H         1 UNK         0.3000 
    191 H191       -4.2836  -26.0486  -46.0570 H         1 UNK         0.0600 
    192 H192       -5.1081  -27.1569  -43.9673 H         1 UNK         0.0600 
    193 H193       -6.0979  -25.7697  -44.3935 H         1 UNK         0.0600 
    194 H194       -4.9235  -25.6452  -43.0842 H         1 UNK         0.0600 
    195 H195       -2.3465  -24.5542  -43.4872 H         1 UNK         0.3000 
    196 H196       -0.5537  -26.7519  -43.0421 H         1 UNK         0.0600 
    197 H197       -0.3591  -23.7640  -42.4525 H         1 UNK         0.0600 
    198 H198       -0.8677  -25.0276  -41.3390 H         1 UNK         0.0600 
    199 H199        0.8052  -24.9526  -41.8751 H         1 UNK         0.0600 
    200 H200       -0.6527  -24.1967  -45.4566 H         1 UNK         0.3000 
    201 H201        2.0387  -24.8296  -46.5229 H         1 UNK         0.0600 
    202 H202       -0.0800  -22.7593  -47.3101 H         1 UNK         0.0600 
    203 H203        1.4806  -22.9468  -48.1027 H         1 UNK         0.0600 
    204 H204        1.4175  -22.4602  -46.4255 H         1 UNK         0.0600 
    205 H205       -0.7896  -26.4412  -46.6148 H         1 UNK         0.3000 
    206 H206       -1.8835  -27.8307  -47.9303 H         1 UNK         0.0600 
    207 H207        0.3730  -28.9047  -48.1471 H         1 UNK         0.0600 
    208 H208       -0.6242  -29.1749  -49.5662 H         1 UNK         0.0600 
    209 H209        0.6682  -27.9844  -49.6219 H         1 UNK         0.0600 
    210 H210       -2.2033  -25.0428  -48.4196 H         1 UNK         0.3000 
    211 H211       -3.1762  -23.5672  -49.6650 H         1 UNK         0.0600 
    212 H212       -4.8486  -24.2190  -51.3418 H         1 UNK         0.0600 
    213 H213       -4.9259  -25.3262  -49.9833 H         1 UNK         0.0600 
    214 H214       -4.1484  -25.8251  -51.4868 H         1 UNK         0.0600 
    215 H215       -0.3362  -24.4420  -50.4164 H         1 UNK         0.3000 
    216 H216        0.0749  -23.9707  -53.1637 H         1 UNK         0.0600 
    217 H217        1.9365  -23.4172  -50.7928 H         1 UNK         0.0600 
    218 H218        2.4352  -23.5244  -52.4774 H         1 UNK         0.0600 
    219 H219        1.7918  -24.9428  -51.6650 H         1 UNK         0.0600 
    220 H220       -0.4262  -21.6781  -50.5445 H         1 UNK         0.3000 
    221 H221        0.3859  -19.3009  -51.9515 H         1 UNK         0.0600 
    222 H222        0.4216  -19.3664  -49.5236 H         1 UNK         0.0600 
    223 H223       -1.2952  -19.7323  -49.4325 H         1 UNK         0.0600 
    224 H224       -0.7573  -18.1591  -50.0098 H         1 UNK         0.0600 
    225 H225       -2.3788  -21.2831  -52.4372 H         1 UNK         0.3000 
    226 H226       -4.2810  -19.2437  -53.1435 H         1 UNK         0.0600 
    227 H227       -4.1722  -22.1573  -54.0816 H         1 UNK         0.0600 
    228 H228       -4.8690  -21.6507  -52.5446 H         1 UNK         0.0600 
    229 H229       -5.5782  -21.1045  -54.0576 H         1 UNK         0.0600 
    230 H230       -1.4524  -20.3986  -54.7317 H         1 UNK         0.3000 
    231 H231       -2.1097  -19.6752  -57.4414 H         1 UNK         0.0600 
    232 H232        0.5844  -19.8424  -55.9819 H         1 UNK         0.0600 
    233 H233        0.3712  -19.7316  -57.7256 H         1 UNK         0.0600 
    234 H234       -0.1925  -21.1558  -56.8646 H         1 UNK         0.0600 
    235 H235       -1.3352  -17.8350  -54.5601 H         1 UNK         0.3000 
    236 H236       -0.9643  -15.3069  -56.0991 H         1 UNK         0.0600 
    237 H237        0.7984  -15.7487  -54.4350 H         1 UNK         0.0600 
    238 H238       -0.1908  -14.3939  -53.9210 H         1 UNK         0.0600 
    239 H239       -0.3943  -15.9685  -53.1619 H         1 UNK         0.0600 
    240 H240       -2.5811  -16.4642  -53.1053 H         1 UNK         0.3000 
    241 H241       -4.4617  -16.0888  -52.0889 H         1 UNK         0.0600 
    242 H242       -4.6241  -12.1534  -53.2866 H         1 UNK         0.3800 
    243 H243       -3.9205  -13.3553  -54.3605 H         1 UNK         0.3800 
    244 H244       -5.3333  -17.2943  -54.1049 H         1 UNK         0.0800 
    245 H245       -5.7117  -15.7760  -54.8520 H         1 UNK         0.0800 
    246 H246       -8.3833  -18.1698  -52.1245 H         1 UNK         0.0800 
    247 H247       -6.9352  -18.6703  -52.9555 H         1 UNK         0.0800 
@<TRIPOS>BOND
     1    1    2 1    
     2    1  127 1    
     3    1  128 1    
     4    1  129 1    
     5    2    3 2    
     6    2    4 am   BACKBONE|DICT|INTERRES
     7    4    5 1    
     8    4  130 1    
     9    5    6 1    
    10    5   65 1    
    11    5  131 1    
    12    6    7 1    
    13    6  132 1    
    14    6  133 1    
    15    7    8 1    
    16    8    9 1    
    17    8  134 1    
    18    8  135 1    
    19    9   10 ar   
    20    9   14 ar   
    21   10   11 ar   
    22   10  136 1    
    23   11   12 ar   
    24   11  126 1    
    25   12   13 ar   
    26   12  137 1    
    27   13   14 ar   
    28   13   15 1    
    29   14  138 1    
    30   15   16 1    
    31   15  139 1    
    32   15  140 1    
    33   16   17 1    
    34   17   18 1    
    35   17  141 1    
    36   17  142 1    
    37   18   19 1    
    38   18   67 1    
    39   18  143 1    
    40   19   20 am   BACKBONE|DICT|INTERRES
    41   19  144 1    
    42   20   21 2    
    43   20   22 1    
    44   22   23 1    
    45   22   24 1    
    46   22  145 1    
    47   23  146 1    
    48   23  147 1    
    49   23  148 1    
    50   24   25 am   BACKBONE|DICT|INTERRES
    51   24  149 1    
    52   25   26 2    
    53   25   27 1    
    54   27   28 1    
    55   27   29 1    
    56   27  150 1    
    57   28  151 1    
    58   28  152 1    
    59   28  153 1    
    60   29   30 am   BACKBONE|DICT|INTERRES
    61   29  154 1    
    62   30   31 2    
    63   30   32 1    
    64   32   33 1    
    65   32   34 1    
    66   32  155 1    
    67   33  156 1    
    68   33  157 1    
    69   33  158 1    
    70   34   35 am   BACKBONE|DICT|INTERRES
    71   34  159 1    
    72   35   36 2    
    73   35   37 1    
    74   37   38 1    
    75   37   39 1    
    76   37  160 1    
    77   38  161 1    
    78   38  162 1    
    79   38  163 1    
    80   39   40 am   BACKBONE|DICT|INTERRES
    81   39  164 1    
    82   40   41 2    
    83   40   42 1    
    84   42   43 1    
    85   42   44 1    
    86   42  165 1    
    87   43  166 1    
    88   43  167 1    
    89   43  168 1    
    90   44   45 am   BACKBONE|DICT|INTERRES
    91   44  169 1    
    92   45   46 2    
    93   45   47 1    
    94   47   48 1    
    95   47   49 1    
    96   47  170 1    
    97   48  171 1    
    98   48  172 1    
    99   48  173 1    
   100   49   50 am   BACKBONE|DICT|INTERRES
   101   49  174 1    
   102   50   51 2    
   103   50   52 1    
   104   52   53 1    
   105   52   54 1    
   106   52  175 1    
   107   53  176 1    
   108   53  177 1    
   109   53  178 1    
   110   54   55 am   BACKBONE|DICT|INTERRES
   111   54  179 1    
   112   55   56 2    
   113   55   57 1    
   114   57   58 1    
   115   57   59 1    
   116   57  180 1    
   117   58  181 1    
   118   58  182 1    
   119   58  183 1    
   120   59   60 am   BACKBONE|DICT|INTERRES
   121   59  184 1    
   122   60   61 2    
   123   60   62 1    
   124   62   63 1    
   125   62   64 1    
   126   62  185 1    
   127   63  186 1    
   128   63  187 1    
   129   63  188 1    
   130   64   65 am   BACKBONE|DICT|INTERRES
   131   64  189 1    
   132   65   66 2    
   133   67   68 2    
   134   67   69 am   BACKBONE|DICT|INTERRES
   135   69   70 1    
   136   69  190 1    
   137   70   71 1    
   138   70   72 1    
   139   70  191 1    
   140   71  192 1    
   141   71  193 1    
   142   71  194 1    
   143   72   73 2    
   144   72   74 am   BACKBONE|DICT|INTERRES
   145   74   75 1    
   146   74  195 1    
   147   75   76 1    
   148   75   77 1    
   149   75  196 1    
   150   76  197 1    
   151   76  198 1    
   152   76  199 1    
   153   77   78 2    
   154   77   79 am   BACKBONE|DICT|INTERRES
   155   79   80 1    
   156   79  200 1    
   157   80   81 1    
   158   80   82 1    
   159   80  201 1    
   160   81  202 1    
   161   81  203 1    
   162   81  204 1    
   163   82   83 2    
   164   82   84 am   BACKBONE|DICT|INTERRES
   165   84   85 1    
   166   84  205 1    
   167   85   86 1    
   168   85   87 1    
   169   85  206 1    
   170   86  207 1    
   171   86  208 1    
   172   86  209 1    
   173   87   88 2    
   174   87   89 am   BACKBONE|DICT|INTERRES
   175   89   90 1    
   176   89  210 1    
   177   90   91 1    
   178   90   92 1    
   179   90  211 1    
   180   91  212 1    
   181   91  213 1    
   182   91  214 1    
   183   92   93 2    
   184   92   94 am   BACKBONE|DICT|INTERRES
   185   94   95 1    
   186   94  215 1    
   187   95   96 1    
   188   95   97 1    
   189   95  216 1    
   190   96  217 1    
   191   96  218 1    
   192   96  219 1    
   193   97   98 2    
   194   97   99 am   BACKBONE|DICT|INTERRES
   195   99  100 1    
   196   99  220 1    
   197  100  101 1    
   198  100  102 1    
   199  100  221 1    
   200  101  222 1    
   201  101  223 1    
   202  101  224 1    
   203  102  103 2    
   204  102  104 am   BACKBONE|DICT|INTERRES
   205  104  105 1    
   206  104  225 1    
   207  105  106 1    
   208  105  107 1    
   209  105  226 1    
   210  106  227 1    
   211  106  228 1    
   212  106  229 1    
   213  107  108 2    
   214  107  109 am   BACKBONE|DICT|INTERRES
   215  109  110 1    
   216  109  230 1    
   217  110  111 1    
   218  110  112 1    
   219  110  231 1    
   220  111  232 1    
   221  111  233 1    
   222  111  234 1    
   223  112  113 2    
   224  112  114 am   BACKBONE|DICT|INTERRES
   225  114  115 1    
   226  114  235 1    
   227  115  116 1    
   228  115  117 1    
   229  115  236 1    
   230  116  237 1    
   231  116  238 1    
   232  116  239 1    
   233  117  118 2    
   234  117  119 am   BACKBONE|DICT|INTERRES
   235  119  120 1    
   236  119  240 1    
   237  120  121 1    
   238  120  124 1    
   239  120  241 1    
   240  121  122 am   BACKBONE|DICT|INTERRES
   241  121  123 2    
   242  122  242 1    
   243  122  243 1    
   244  124  125 1    
   245  124  244 1    
   246  124  245 1    
   247  125  126 1    
   248  126  246 1    
   249  126  247 1    
@<TRIPOS>SUBSTRUCTURE
     1 UNK         1 GROUP             0       ****    0 ROOT    
