@<TRIPOS>MOLECULE
3R540
247   249    1
SMALL
USER_CHARGES


@<TRIPOS>ATOM
      1 CA          0.3449  -10.4580  -44.6336 C.3       0 UNK        -0.1800 
      2 C           1.1928  -11.6153  -45.1407 C.2       0 UNK         0.5000 
      3 O           2.4080  -11.4767  -45.2768 O.2       0 UNK        -0.5000 
      4 N           0.5607  -12.7653  -45.3986 N.am      1 UNK        -0.5000 
      5 CA          1.1863  -13.9890  -45.9224 C.3       1 UNK         0.1400 
      6 C6          0.2019  -14.8311  -46.7744 C.3       23 UNK        -0.0398 
      7 S7         -0.6120  -13.8366  -48.0737 S.3       23 UNK        -0.2404 
      8 C8          0.4604  -14.1259  -49.5117 C.3       23 UNK        -0.0205 
      9 C9          0.1718  -15.4613  -50.1776 C.ar      23 UNK        -0.0193 
     10 C10        -0.9591  -15.6128  -50.9848 C.ar      23 UNK        -0.1150 
     11 C11        -1.2130  -16.8247  -51.6336 C.ar      23 UNK        -0.0193 
     12 C12        -0.3305  -17.8943  -51.4622 C.ar      23 UNK        -0.1150 
     13 C13         0.8023  -17.7539  -50.6557 C.ar      23 UNK        -0.0193 
     14 C14         1.0481  -16.5362  -50.0159 C.ar      23 UNK        -0.1150 
     15 C15         1.7831  -18.9018  -50.4936 C.3       23 UNK        -0.0205 
     16 S16         1.6702  -19.6507  -48.8426 S.3       23 UNK        -0.2404 
     17 C17         0.1816  -20.6900  -48.9895 C.3       23 UNK        -0.0398 
     18 CA         -0.9044  -20.3008  -47.9529 C.3       11 UNK         0.1400 
     19 N          -1.5385  -19.0121  -48.2817 N.am      11 UNK        -0.5000 
     20 C          -2.2327  -18.2410  -47.4358 C.2       10 UNK         0.5000 
     21 O          -2.4469  -18.5541  -46.2630 O.2       10 UNK        -0.5000 
     22 CA         -2.8589  -16.9562  -47.9963 C.3       10 UNK         0.1400 
     23 CB         -3.9601  -17.3089  -49.0190 C.3       10 UNK        -0.1800 
     24 N          -3.4101  -16.2164  -46.8632 N.am      10 UNK        -0.5000 
     25 C          -4.0448  -15.0396  -46.8734 C.2       9 UNK         0.5000 
     26 O          -4.2257  -14.3563  -47.8813 O.2       9 UNK        -0.5000 
     27 CA         -4.5909  -14.5483  -45.5200 C.3       9 UNK         0.1400 
     28 CB         -5.9962  -15.1195  -45.2730 C.3       9 UNK        -0.1800 
     29 N          -3.7306  -14.8945  -44.3857 N.am      9 UNK        -0.5000 
     30 C          -2.5979  -14.2489  -44.0777 C.2       8 UNK         0.5000 
     31 O          -2.1444  -13.3152  -44.7392 O.2       8 UNK        -0.5000 
     32 CA         -1.8477  -14.6901  -42.8074 C.3       8 UNK         0.1400 
     33 CB         -2.0954  -13.6920  -41.6665 C.3       8 UNK        -0.1800 
     34 N          -2.2056  -16.0341  -42.3502 N.am      8 UNK        -0.5000 
     35 C          -1.6652  -17.1570  -42.8378 C.2       7 UNK         0.5000 
     36 O          -0.8497  -17.1787  -43.7606 O.2       7 UNK        -0.5000 
     37 CA         -2.1173  -18.4741  -42.1845 C.3       7 UNK         0.1400 
     38 CB         -3.0589  -19.2626  -43.1082 C.3       7 UNK        -0.1800 
     39 N          -0.9536  -19.2966  -41.8673 N.am      7 UNK        -0.5000 
     40 C          -0.2263  -19.1880  -40.7479 C.2       6 UNK         0.5000 
     41 O          -0.5273  -18.4525  -39.8068 O.2       6 UNK        -0.5000 
     42 CA          1.0573  -20.0412  -40.6611 C.3       6 UNK         0.1400 
     43 CB          0.7921  -21.3375  -39.8804 C.3       6 UNK        -0.1800 
     44 N           1.6364  -20.3747  -41.9679 N.am      6 UNK        -0.5000 
     45 C           2.1976  -19.4745  -42.7860 C.2       5 UNK         0.5000 
     46 O           2.2914  -18.2792  -42.5118 O.2       5 UNK        -0.5000 
     47 CA          2.7235  -19.9919  -44.1318 C.3       5 UNK         0.1400 
     48 CB          1.5688  -20.4857  -45.0204 C.3       5 UNK        -0.1800 
     49 N           3.4370  -18.9147  -44.8129 N.am      5 UNK        -0.5000 
     50 C           4.4201  -19.0756  -45.7051 C.2       4 UNK         0.5000 
     51 O           4.8443  -20.1760  -46.0606 O.2       4 UNK        -0.5000 
     52 CA          5.0500  -17.8019  -46.2943 C.3       4 UNK         0.1400 
     53 CB          4.2796  -17.3502  -47.5456 C.3       4 UNK        -0.1800 
     54 N           5.0796  -16.7003  -45.3306 N.am      4 UNK        -0.5000 
     55 C           6.1382  -16.3796  -44.5725 C.2       3 UNK         0.5000 
     56 O           7.1911  -17.0188  -44.5709 O.2       3 UNK        -0.5000 
     57 CA          6.0296  -15.1213  -43.6859 C.3       3 UNK         0.1400 
     58 CB          6.7120  -13.9272  -44.3714 C.3       3 UNK        -0.1800 
     59 N           4.6469  -14.7571  -43.3826 N.am      3 UNK        -0.5000 
     60 C           3.9063  -15.3193  -42.4189 C.2       2 UNK         0.5000 
     61 O           4.3624  -16.1097  -41.5923 O.2       2 UNK        -0.5000 
     62 CA          2.4121  -14.9289  -42.3591 C.3       2 UNK         0.1400 
     63 CB          2.1498  -13.9821  -41.1777 C.3       2 UNK        -0.1800 
     64 N           1.8855  -14.3047  -43.5767 N.am      2 UNK        -0.5000 
     65 C           1.8377  -14.8392  -44.8068 C.2       1 UNK         0.5000 
     66 O           2.3122  -15.9409  -45.0826 O.2       1 UNK        -0.5000 
     67 C          -1.8951  -21.4644  -47.6762 C.2       11 UNK         0.5000 
     68 O          -1.5417  -22.6262  -47.8752 O.2       11 UNK        -0.5000 
     69 N          -3.0942  -21.1619  -47.1616 N.am      12 UNK        -0.5000 
     70 CA         -4.1567  -22.1141  -46.8235 C.3       12 UNK         0.1400 
     71 CB         -5.3965  -21.3305  -46.3662 C.3       12 UNK        -0.1800 
     72 C          -3.7476  -23.1436  -45.7530 C.2       12 UNK         0.5000 
     73 O          -4.2441  -24.2699  -45.7700 O.2       12 UNK        -0.5000 
     74 N          -2.8297  -22.7439  -44.8613 N.am      13 UNK        -0.5000 
     75 CA         -2.2232  -23.6066  -43.8478 C.3       13 UNK         0.1400 
     76 CB         -1.5316  -22.7349  -42.7892 C.3       13 UNK        -0.1800 
     77 C          -1.2311  -24.6302  -44.4348 C.2       13 UNK         0.5000 
     78 O          -1.0106  -25.6688  -43.8108 O.2       13 UNK        -0.5000 
     79 N          -0.6535  -24.3329  -45.6089 N.am      14 UNK        -0.5000 
     80 CA          0.1981  -25.2591  -46.3530 C.3       14 UNK         0.1400 
     81 CB          1.1707  -24.4823  -47.2563 C.3       14 UNK        -0.1800 
     82 C          -0.6707  -26.2331  -47.1642 C.2       14 UNK         0.5000 
     83 O          -0.4922  -27.4458  -47.0440 O.2       14 UNK        -0.5000 
     84 N          -1.6220  -25.6878  -47.9335 N.am      15 UNK        -0.5000 
     85 CA         -2.6226  -26.4311  -48.6915 C.3       15 UNK         0.1400 
     86 CB         -1.9742  -27.1603  -49.8862 C.3       15 UNK        -0.1800 
     87 C          -3.6888  -25.4582  -49.2025 C.2       15 UNK         0.5000 
     88 O          -3.3640  -24.3207  -49.5463 O.2       15 UNK        -0.5000 
     89 N          -4.9296  -25.9404  -49.3462 N.am      16 UNK        -0.5000 
     90 CA         -6.0203  -25.1975  -49.9880 C.3       16 UNK         0.1400 
     91 CB         -7.3276  -25.9927  -49.8629 C.3       16 UNK        -0.1800 
     92 C          -5.7188  -24.8707  -51.4643 C.2       16 UNK         0.5000 
     93 O          -6.0735  -23.7916  -51.9359 O.2       16 UNK        -0.5000 
     94 N          -5.0040  -25.7813  -52.1411 N.am      17 UNK        -0.5000 
     95 CA         -4.4913  -25.6117  -53.5003 C.3       17 UNK         0.1400 
     96 CB         -3.8923  -26.9422  -53.9795 C.3       17 UNK        -0.1800 
     97 C          -3.4517  -24.4804  -53.6242 C.2       17 UNK         0.5000 
     98 O          -3.4073  -23.8166  -54.6593 O.2       17 UNK        -0.5000 
     99 N          -2.6520  -24.2626  -52.5688 N.am      18 UNK        -0.5000 
    100 CA        -1.6559  -23.1920  -52.5066 C.3       18 UNK         0.1400 
    101 CB        -0.6344  -23.4837  -51.3963 C.3       18 UNK        -0.1800 
    102 C         -2.3078  -21.8124  -52.3156 C.2       18 UNK         0.5000 
    103 O         -1.8103  -20.8322  -52.8660 O.2       18 UNK        -0.5000 
    104 N         -3.4270  -21.7600  -51.5796 N.am      19 UNK        -0.5000 
    105 CA        -4.2666  -20.5675  -51.4686 C.3       19 UNK         0.1400 
    106 CB        -5.2214  -20.7062  -50.2762 C.3       19 UNK        -0.1800 
    107 C         -5.0397  -20.2828  -52.7688 C.2       19 UNK         0.5000 
    108 O         -5.0667  -19.1384  -53.2230 O.2       19 UNK        -0.5000 
    109 N         -5.6209  -21.3345  -53.3652 N.am      20 UNK        -0.5000 
    110 CA        -6.3869  -21.2791  -54.6144 C.3       20 UNK         0.1400 
    111 CB        -7.0347  -22.6454  -54.8794 C.3       20 UNK        -0.1800 
    112 C         -5.5655  -20.8309  -55.8383 C.2       20 UNK         0.5000 
    113 O         -6.1419  -20.2848  -56.7799 O.2       20 UNK        -0.5000 
    114 N         -4.2389  -21.0230  -55.7939 N.am      21 UNK        -0.5000 
    115 CA        -3.2780  -20.5813  -56.8090 C.3       21 UNK         0.1400 
    116 CB        -1.8737  -21.0658  -56.4186 C.3       21 UNK        -0.1800 
    117 C         -3.2722  -19.0571  -57.0539 C.2       21 UNK         0.5000 
    118 O         -2.9008  -18.6282  -58.1473 O.2       21 UNK        -0.5000 
    119 N         -3.7075  -18.2730  -56.0580 N.am      22 UNK        -0.5000 
    120 CA        -3.9520  -16.8275  -56.1830 C.3       22 UNK         0.1400 
    121 C         -5.2885  -16.4639  -56.8998 C.2       22 UNK         0.5000 
    122 N         -6.1606  -17.4065  -57.2390 N.am      22 UNK        -0.7600 
    123 O         -5.5369  -15.2919  -57.1697 O.2       22 UNK        -0.5000 
    124 C124       -3.8419  -16.1063  -54.8164 C.3       23 UNK        -0.0398 
    125 S125       -2.1504  -16.1574  -54.1346 S.3       23 UNK        -0.2404 
    126 C126       -2.4317  -16.9636  -52.5305 C.3       23 UNK        -0.0205 
    127 H127        0.4170   -9.6125  -45.3175 H         1 UNK         0.0600 
    128 H128        0.6950  -10.1367  -43.6527 H         1 UNK         0.0600 
    129 H129       -0.7060  -10.7360  -44.5457 H         1 UNK         0.0600 
    130 H130       -0.4469  -12.8258  -45.2599 H         1 UNK         0.3000 
    131 H131        2.0026  -13.6929  -46.5844 H         1 UNK         0.0600 
    132 H132        0.7125  -15.6782  -47.2351 H         1 UNK         0.0800 
    133 H133       -0.5771  -15.2612  -46.1430 H         1 UNK         0.0800 
    134 H134        0.2969  -13.3256  -50.2348 H         1 UNK         0.0800 
    135 H135        1.5070  -14.0540  -49.2120 H         1 UNK         0.0800 
    136 H136       -1.6365  -14.7808  -51.1187 H         1 UNK         0.1150 
    137 H137       -0.5139  -18.8285  -51.9726 H         1 UNK         0.1150 
    138 H138        1.9294  -16.4261  -49.3998 H         1 UNK         0.1150 
    139 H139        1.6314  -19.6640  -51.2597 H         1 UNK         0.0800 
    140 H140        2.7969  -18.5253  -50.6370 H         1 UNK         0.0800 
    141 H141        0.5334  -21.7121  -48.8474 H         1 UNK         0.0800 
    142 H142       -0.2231  -20.6500  -50.0015 H         1 UNK         0.0800 
    143 H143       -0.3986  -20.1605  -46.9991 H         1 UNK         0.0600 
    144 H144       -1.3977  -18.6872  -49.2273 H         1 UNK         0.3000 
    145 H145       -2.0786  -16.3613  -48.4689 H         1 UNK         0.0600 
    146 H146       -4.3942  -16.4183  -49.4719 H         1 UNK         0.0600 
    147 H147       -3.5596  -17.9058  -49.8366 H         1 UNK         0.0600 
    148 H148       -4.7680  -17.8795  -48.5592 H         1 UNK         0.0600 
    149 H149       -3.2867  -16.7054  -45.9842 H         1 UNK         0.3000 
    150 H150       -4.6747  -13.4604  -45.5728 H         1 UNK         0.0600 
    151 H151       -5.9812  -16.2071  -45.1902 H         1 UNK         0.0600 
    152 H152       -6.6710  -14.8622  -46.0904 H         1 UNK         0.0600 
    153 H153       -6.4298  -14.7181  -44.3568 H         1 UNK         0.0600 
    154 H154       -4.0374  -15.6463  -43.7870 H         1 UNK         0.3000 
    155 H155       -0.7821  -14.6708  -43.0385 H         1 UNK         0.0600 
    156 H156       -3.1486  -13.6542  -41.3852 H         1 UNK         0.0600 
    157 H157       -1.7964  -12.6838  -41.9569 H         1 UNK         0.0600 
    158 H158       -1.5197  -13.9563  -40.7793 H         1 UNK         0.0600 
    159 H159       -2.8637  -16.0913  -41.5859 H         1 UNK         0.3000 
    160 H160       -2.6636  -18.2451  -41.2669 H         1 UNK         0.0600 
    161 H161       -3.5339  -20.0848  -42.5735 H         1 UNK         0.0600 
    162 H162       -2.5249  -19.6840  -43.9589 H         1 UNK         0.0600 
    163 H163       -3.8558  -18.6287  -43.4993 H         1 UNK         0.0600 
    164 H164       -0.5872  -19.8608  -42.6173 H         1 UNK         0.3000 
    165 H165        1.7958  -19.4591  -40.1054 H         1 UNK         0.0600 
    166 H166        0.4050  -21.1198  -38.8841 H         1 UNK         0.0600 
    167 H167        0.0606  -21.9695  -40.3833 H         1 UNK         0.0600 
    168 H168        1.7068  -21.9165  -39.7521 H         1 UNK         0.0600 
    169 H169        1.6111  -21.3464  -42.2401 H         1 UNK         0.3000 
    170 H170        3.4124  -20.8147  -43.9300 H         1 UNK         0.0600 
    171 H171        1.0671  -21.3478  -44.5820 H         1 UNK         0.0600 
    172 H172        0.8255  -19.6995  -45.1592 H         1 UNK         0.0600 
    173 H173        1.9267  -20.7926  -46.0030 H         1 UNK         0.0600 
    174 H174        3.1488  -17.9804  -44.5405 H         1 UNK         0.3000 
    175 H175        6.0676  -18.0477  -46.6054 H         1 UNK         0.0600 
    176 H176        4.7130  -16.4463  -47.9737 H         1 UNK         0.0600 
    177 H177        4.3090  -18.1207  -48.3168 H         1 UNK         0.0600 
    178 H178        3.2307  -17.1489  -47.3252 H         1 UNK         0.0600 
    179 H179        4.2133  -16.1822  -45.2240 H         1 UNK         0.3000 
    180 H180        6.5606  -15.3250  -42.7535 H         1 UNK         0.0600 
    181 H181        6.2249  -13.6707  -45.3131 H         1 UNK         0.0600 
    182 H182        7.7573  -14.1478  -44.5918 H         1 UNK         0.0600 
    183 H183        6.6954  -13.0437  -43.7330 H         1 UNK         0.0600 
    184 H184        4.2033  -14.0921  -43.9988 H         1 UNK         0.3000 
    185 H185        1.8356  -15.8381  -42.1904 H         1 UNK         0.0600 
    186 H186        2.4878  -14.4242  -40.2395 H         1 UNK         0.0600 
    187 H187        2.6720  -13.0325  -41.3006 H         1 UNK         0.0600 
    188 H188        1.0860  -13.7706  -41.0687 H         1 UNK         0.0600 
    189 H189        1.5062  -13.3757  -43.4696 H         1 UNK         0.3000 
    190 H190       -3.2559  -20.1909  -46.9176 H         1 UNK         0.3000 
    191 H191       -4.4122  -22.6656  -47.7297 H         1 UNK         0.0600 
    192 H192       -5.7474  -20.6517  -47.1434 H         1 UNK         0.0600 
    193 H193       -6.2203  -22.0055  -46.1304 H         1 UNK         0.0600 
    194 H194       -5.1900  -20.7382  -45.4737 H         1 UNK         0.0600 
    195 H195       -2.4898  -21.7965  -44.9221 H         1 UNK         0.3000 
    196 H196       -3.0190  -24.1696  -43.3554 H         1 UNK         0.0600 
    197 H197       -1.0480  -23.3548  -42.0333 H         1 UNK         0.0600 
    198 H198       -2.2490  -22.1000  -42.2704 H         1 UNK         0.0600 
    199 H199       -0.7672  -22.0954  -43.2289 H         1 UNK         0.0600 
    200 H200       -0.9456  -23.5009  -46.1061 H         1 UNK         0.3000 
    201 H201        0.7974  -25.8389  -45.6475 H         1 UNK         0.0600 
    202 H202        1.8972  -25.1586  -47.7076 H         1 UNK         0.0600 
    203 H203        0.6590  -23.9730  -48.0718 H         1 UNK         0.0600 
    204 H204        1.7281  -23.7357  -46.6903 H         1 UNK         0.0600 
    205 H205       -1.7117  -24.6755  -47.9899 H         1 UNK         0.3000 
    206 H206       -3.0977  -27.1566  -48.0282 H         1 UNK         0.0600 
    207 H207       -1.2681  -27.9227  -49.5584 H         1 UNK         0.0600 
    208 H208       -2.7248  -27.6657  -50.4949 H         1 UNK         0.0600 
    209 H209       -1.4369  -26.4674  -50.5346 H         1 UNK         0.0600 
    210 H210       -5.1344  -26.8842  -49.0507 H         1 UNK         0.3000 
    211 H211       -6.1415  -24.2503  -49.4577 H         1 UNK         0.0600 
    212 H212       -7.2591  -26.9634  -50.3555 H         1 UNK         0.0600 
    213 H213       -8.1580  -25.4511  -50.3182 H         1 UNK         0.0600 
    214 H214       -7.5867  -26.1632  -48.8178 H         1 UNK         0.0600 
    215 H215       -4.7638  -26.6417  -51.6723 H         1 UNK         0.3000 
    216 H216       -5.3340  -25.3655  -54.1481 H         1 UNK         0.0600 
    217 H217       -3.5211  -26.8571  -55.0018 H         1 UNK         0.0600 
    218 H218       -4.6385  -27.7368  -53.9717 H         1 UNK         0.0600 
    219 H219       -3.0575  -27.2579  -53.3524 H         1 UNK         0.0600 
    220 H220       -2.7924  -24.7976  -51.7238 H         1 UNK         0.3000 
    221 H221       -1.1167  -23.1727  -53.4564 H         1 UNK         0.0600 
    222 H222       -1.0885  -23.4654  -50.4065 H         1 UNK         0.0600 
    223 H223       -0.1683  -24.4592  -51.5333 H         1 UNK         0.0600 
    224 H224        0.1641  -22.7411  -51.4013 H         1 UNK         0.0600 
    225 H225       -3.7541  -22.6059  -51.1307 H         1 UNK         0.3000 
    226 H226       -3.6165  -19.7131  -51.2771 H         1 UNK         0.0600 
    227 H227       -5.8776  -19.8386  -50.1962 H         1 UNK         0.0600 
    228 H228       -5.8522  -21.5915  -50.3567 H         1 UNK         0.0600 
    229 H229       -4.6633  -20.7739  -49.3460 H         1 UNK         0.0600 
    230 H230       -5.5988  -22.2352  -52.8937 H         1 UNK         0.3000 
    231 H231       -7.1847  -20.5468  -54.4751 H         1 UNK         0.0600 
    232 H232       -6.2830  -23.4186  -55.0340 H         1 UNK         0.0600 
    233 H233       -7.6609  -22.6145  -55.7719 H         1 UNK         0.0600 
    234 H234       -7.6701  -22.9517  -54.0483 H         1 UNK         0.0600 
    235 H235       -3.8591  -21.5285  -55.0046 H         1 UNK         0.3000 
    236 H236       -3.5560  -21.0614  -57.7493 H         1 UNK         0.0600 
    237 H237       -1.8492  -22.1470  -56.2819 H         1 UNK         0.0600 
    238 H238       -1.1471  -20.8201  -57.1940 H         1 UNK         0.0600 
    239 H239       -1.5328  -20.6008  -55.4936 H         1 UNK         0.0600 
    240 H240       -4.0060  -18.7019  -55.1910 H         1 UNK         0.3000 
    241 H241       -3.1698  -16.4146  -56.8232 H         1 UNK         0.0600 
    242 H242       -7.0112  -17.1385  -57.7078 H         1 UNK         0.3800 
    243 H243       -5.9921  -18.3888  -57.0441 H         1 UNK         0.3800 
    244 H244       -4.5525  -16.5323  -54.1064 H         1 UNK         0.0800 
    245 H245       -4.1074  -15.0520  -54.9119 H         1 UNK         0.0800 
    246 H246       -2.6663  -18.0146  -52.7005 H         1 UNK         0.0800 
    247 H247       -3.2978  -16.5200  -52.0372 H         1 UNK         0.0800 
@<TRIPOS>BOND
     1    1    2 1    
     2    1  127 1    
     3    1  128 1    
     4    1  129 1    
     5    2    3 2    
     6    2    4 am   BACKBONE|DICT|INTERRES
     7    4    5 1    
     8    4  130 1    
     9    5    6 1    
    10    5   65 1    
    11    5  131 1    
    12    6    7 1    
    13    6  132 1    
    14    6  133 1    
    15    7    8 1    
    16    8    9 1    
    17    8  134 1    
    18    8  135 1    
    19    9   10 ar   
    20    9   14 ar   
    21   10   11 ar   
    22   10  136 1    
    23   11   12 ar   
    24   11  126 1    
    25   12   13 ar   
    26   12  137 1    
    27   13   14 ar   
    28   13   15 1    
    29   14  138 1    
    30   15   16 1    
    31   15  139 1    
    32   15  140 1    
    33   16   17 1    
    34   17   18 1    
    35   17  141 1    
    36   17  142 1    
    37   18   19 1    
    38   18   67 1    
    39   18  143 1    
    40   19   20 am   BACKBONE|DICT|INTERRES
    41   19  144 1    
    42   20   21 2    
    43   20   22 1    
    44   22   23 1    
    45   22   24 1    
    46   22  145 1    
    47   23  146 1    
    48   23  147 1    
    49   23  148 1    
    50   24   25 am   BACKBONE|DICT|INTERRES
    51   24  149 1    
    52   25   26 2    
    53   25   27 1    
    54   27   28 1    
    55   27   29 1    
    56   27  150 1    
    57   28  151 1    
    58   28  152 1    
    59   28  153 1    
    60   29   30 am   BACKBONE|DICT|INTERRES
    61   29  154 1    
    62   30   31 2    
    63   30   32 1    
    64   32   33 1    
    65   32   34 1    
    66   32  155 1    
    67   33  156 1    
    68   33  157 1    
    69   33  158 1    
    70   34   35 am   BACKBONE|DICT|INTERRES
    71   34  159 1    
    72   35   36 2    
    73   35   37 1    
    74   37   38 1    
    75   37   39 1    
    76   37  160 1    
    77   38  161 1    
    78   38  162 1    
    79   38  163 1    
    80   39   40 am   BACKBONE|DICT|INTERRES
    81   39  164 1    
    82   40   41 2    
    83   40   42 1    
    84   42   43 1    
    85   42   44 1    
    86   42  165 1    
    87   43  166 1    
    88   43  167 1    
    89   43  168 1    
    90   44   45 am   BACKBONE|DICT|INTERRES
    91   44  169 1    
    92   45   46 2    
    93   45   47 1    
    94   47   48 1    
    95   47   49 1    
    96   47  170 1    
    97   48  171 1    
    98   48  172 1    
    99   48  173 1    
   100   49   50 am   BACKBONE|DICT|INTERRES
   101   49  174 1    
   102   50   51 2    
   103   50   52 1    
   104   52   53 1    
   105   52   54 1    
   106   52  175 1    
   107   53  176 1    
   108   53  177 1    
   109   53  178 1    
   110   54   55 am   BACKBONE|DICT|INTERRES
   111   54  179 1    
   112   55   56 2    
   113   55   57 1    
   114   57   58 1    
   115   57   59 1    
   116   57  180 1    
   117   58  181 1    
   118   58  182 1    
   119   58  183 1    
   120   59   60 am   BACKBONE|DICT|INTERRES
   121   59  184 1    
   122   60   61 2    
   123   60   62 1    
   124   62   63 1    
   125   62   64 1    
   126   62  185 1    
   127   63  186 1    
   128   63  187 1    
   129   63  188 1    
   130   64   65 am   BACKBONE|DICT|INTERRES
   131   64  189 1    
   132   65   66 2    
   133   67   68 2    
   134   67   69 am   BACKBONE|DICT|INTERRES
   135   69   70 1    
   136   69  190 1    
   137   70   71 1    
   138   70   72 1    
   139   70  191 1    
   140   71  192 1    
   141   71  193 1    
   142   71  194 1    
   143   72   73 2    
   144   72   74 am   BACKBONE|DICT|INTERRES
   145   74   75 1    
   146   74  195 1    
   147   75   76 1    
   148   75   77 1    
   149   75  196 1    
   150   76  197 1    
   151   76  198 1    
   152   76  199 1    
   153   77   78 2    
   154   77   79 am   BACKBONE|DICT|INTERRES
   155   79   80 1    
   156   79  200 1    
   157   80   81 1    
   158   80   82 1    
   159   80  201 1    
   160   81  202 1    
   161   81  203 1    
   162   81  204 1    
   163   82   83 2    
   164   82   84 am   BACKBONE|DICT|INTERRES
   165   84   85 1    
   166   84  205 1    
   167   85   86 1    
   168   85   87 1    
   169   85  206 1    
   170   86  207 1    
   171   86  208 1    
   172   86  209 1    
   173   87   88 2    
   174   87   89 am   BACKBONE|DICT|INTERRES
   175   89   90 1    
   176   89  210 1    
   177   90   91 1    
   178   90   92 1    
   179   90  211 1    
   180   91  212 1    
   181   91  213 1    
   182   91  214 1    
   183   92   93 2    
   184   92   94 am   BACKBONE|DICT|INTERRES
   185   94   95 1    
   186   94  215 1    
   187   95   96 1    
   188   95   97 1    
   189   95  216 1    
   190   96  217 1    
   191   96  218 1    
   192   96  219 1    
   193   97   98 2    
   194   97   99 am   BACKBONE|DICT|INTERRES
   195   99  100 1    
   196   99  220 1    
   197  100  101 1    
   198  100  102 1    
   199  100  221 1    
   200  101  222 1    
   201  101  223 1    
   202  101  224 1    
   203  102  103 2    
   204  102  104 am   BACKBONE|DICT|INTERRES
   205  104  105 1    
   206  104  225 1    
   207  105  106 1    
   208  105  107 1    
   209  105  226 1    
   210  106  227 1    
   211  106  228 1    
   212  106  229 1    
   213  107  108 2    
   214  107  109 am   BACKBONE|DICT|INTERRES
   215  109  110 1    
   216  109  230 1    
   217  110  111 1    
   218  110  112 1    
   219  110  231 1    
   220  111  232 1    
   221  111  233 1    
   222  111  234 1    
   223  112  113 2    
   224  112  114 am   BACKBONE|DICT|INTERRES
   225  114  115 1    
   226  114  235 1    
   227  115  116 1    
   228  115  117 1    
   229  115  236 1    
   230  116  237 1    
   231  116  238 1    
   232  116  239 1    
   233  117  118 2    
   234  117  119 am   BACKBONE|DICT|INTERRES
   235  119  120 1    
   236  119  240 1    
   237  120  121 1    
   238  120  124 1    
   239  120  241 1    
   240  121  122 am   BACKBONE|DICT|INTERRES
   241  121  123 2    
   242  122  242 1    
   243  122  243 1    
   244  124  125 1    
   245  124  244 1    
   246  124  245 1    
   247  125  126 1    
   248  126  246 1    
   249  126  247 1    
@<TRIPOS>SUBSTRUCTURE
     1 UNK         1 GROUP             0       ****    0 ROOT    
