@<TRIPOS>MOLECULE
3R540
247   249    1
SMALL
USER_CHARGES


@<TRIPOS>ATOM
      1 CA          3.3910  -15.6231  -47.5296 C.3       0 UNK        -0.1800 
      2 C           1.8956  -15.7175  -47.7924 C.2       0 UNK         0.5000 
      3 O           1.1334  -16.1163  -46.9137 O.2       0 UNK        -0.5000 
      4 N           1.4742  -15.3290  -49.0000 N.am      1 UNK        -0.5000 
      5 CA          0.0728  -15.2499  -49.4178 C.3       1 UNK         0.1400 
      6 C6         -0.1199  -15.7129  -50.8836 C.3       23 UNK        -0.0398 
      7 S7         -0.1082  -17.5308  -51.0078 S.3       23 UNK        -0.2404 
      8 C8          1.6516  -17.8916  -51.2890 C.3       23 UNK        -0.0205 
      9 C9          1.9081  -19.3905  -51.3502 C.ar      23 UNK        -0.0193 
     10 C10         1.4658  -20.1211  -52.4552 C.ar      23 UNK        -0.1150 
     11 C11         1.7092  -21.4980  -52.5550 C.ar      23 UNK        -0.0193 
     12 C12         2.4234  -22.1284  -51.5310 C.ar      23 UNK        -0.1150 
     13 C13         2.8847  -21.4102  -50.4230 C.ar      23 UNK        -0.0193 
     14 C14         2.6105  -20.0417  -50.3304 C.ar      23 UNK        -0.1150 
     15 C15         3.7444  -22.1049  -49.3735 C.3       23 UNK        -0.0205 
     16 S16         2.8127  -23.3021  -48.3667 S.3       23 UNK        -0.2404 
     17 C17         2.1650  -22.2281  -47.0466 C.3       23 UNK        -0.0398 
     18 CA          1.2112  -22.9662  -46.0664 C.3       11 UNK         0.1400 
     19 N           1.3088  -22.3895  -44.7206 N.am      11 UNK        -0.5000 
     20 C           1.9455  -22.9525  -43.6834 C.2       10 UNK         0.5000 
     21 O           2.3687  -24.1095  -43.6809 O.2       10 UNK        -0.5000 
     22 CA          2.1747  -22.0326  -42.4640 C.3       10 UNK         0.1400 
     23 CB          3.1526  -22.6116  -41.4206 C.3       10 UNK        -0.1800 
     24 N           2.5697  -20.6833  -42.8882 N.am      10 UNK        -0.5000 
     25 C           3.6696  -20.3445  -43.5785 C.2       9 UNK         0.5000 
     26 O           4.6193  -21.1029  -43.7756 O.2       9 UNK        -0.5000 
     27 CA          3.7060  -18.9407  -44.2039 C.3       9 UNK         0.1400 
     28 CB          3.2987  -19.0101  -45.6849 C.3       9 UNK        -0.1800 
     29 N           2.8426  -17.9719  -43.5217 N.am      9 UNK        -0.5000 
     30 C           3.2044  -16.7093  -43.2561 C.2       8 UNK         0.5000 
     31 O           4.3161  -16.2471  -43.5178 O.2       8 UNK        -0.5000 
     32 CA          2.1618  -15.7912  -42.5922 C.3       8 UNK         0.1400 
     33 CB          1.4370  -14.9412  -43.6452 C.3       8 UNK        -0.1800 
     34 N           1.1675  -16.4961  -41.7834 N.am      8 UNK        -0.5000 
     35 C           1.4137  -17.0283  -40.5782 C.2       7 UNK         0.5000 
     36 O           2.5313  -17.0698  -40.0631 O.2       7 UNK        -0.5000 
     37 CA          0.2084  -17.5988  -39.8158 C.3       7 UNK         0.1400 
     38 CB         -0.6057  -16.4639  -39.1733 C.3       7 UNK        -0.1800 
     39 N          -0.6624  -18.3633  -40.7049 N.am      7 UNK        -0.5000 
     40 C          -0.6950  -19.7004  -40.7760 C.2       6 UNK         0.5000 
     41 O          -0.0011  -20.4434  -40.0826 O.2       6 UNK        -0.5000 
     42 CA         -1.6619  -20.3188  -41.8048 C.3       6 UNK         0.1400 
     43 CB         -3.0184  -20.6098  -41.1436 C.3       6 UNK        -0.1800 
     44 N          -1.8731  -19.4629  -42.9730 N.am      6 UNK        -0.5000 
     45 C          -0.9388  -19.1627  -43.8850 C.2       5 UNK         0.5000 
     46 O           0.1786  -19.6770  -43.9062 O.2       5 UNK        -0.5000 
     47 CA         -1.2897  -18.0879  -44.9289 C.3       5 UNK         0.1400 
     48 CB         -1.5424  -18.7299  -46.2998 C.3       5 UNK        -0.1800 
     49 N          -2.4291  -17.2387  -44.5592 N.am      5 UNK        -0.5000 
     50 C          -2.4445  -16.3961  -43.5180 C.2       4 UNK         0.5000 
     51 O          -1.5196  -16.2923  -42.7078 O.2       4 UNK        -0.5000 
     52 CA         -3.7069  -15.5510  -43.3253 C.3       4 UNK         0.1400 
     53 CB         -4.4034  -15.8912  -41.9978 C.3       4 UNK        -0.1800 
     54 N          -3.2817  -14.1603  -43.3171 N.am      4 UNK        -0.5000 
     55 C          -3.8593  -13.1704  -44.0040 C.2       3 UNK         0.5000 
     56 O          -4.9312  -13.2824  -44.6010 O.2       3 UNK        -0.5000 
     57 CA         -3.0928  -11.8332  -44.0857 C.3       3 UNK         0.1400 
     58 CB         -2.1062  -11.6009  -42.9178 C.3       3 UNK        -0.1800 
     59 N          -2.4155  -11.6948  -45.3814 N.am      3 UNK        -0.5000 
     60 C          -1.4954  -12.5251  -45.8930 C.2       2 UNK         0.5000 
     61 O          -1.0292  -13.4961  -45.2918 O.2       2 UNK        -0.5000 
     62 CA         -1.0092  -12.2261  -47.3173 C.3       2 UNK         0.1400 
     63 CB          0.1020  -11.1626  -47.3177 C.3       2 UNK        -0.1800 
     64 N          -0.5015  -13.4746  -47.8669 N.am      2 UNK        -0.5000 
     65 C          -0.4214  -13.8152  -49.1548 C.2       1 UNK         0.5000 
     66 O          -0.6871  -13.0545  -50.0866 O.2       1 UNK        -0.5000 
     67 C          -0.2439  -22.9851  -46.5785 C.2       11 UNK         0.5000 
     68 O          -0.4545  -23.1911  -47.7725 O.2       11 UNK        -0.5000 
     69 N          -1.2244  -22.7615  -45.6883 N.am      12 UNK        -0.5000 
     70 CA         -2.6429  -22.5190  -45.9895 C.3       12 UNK         0.1400 
     71 CB         -3.4350  -22.4405  -44.6785 C.3       12 UNK        -0.1800 
     72 C          -3.3236  -23.5074  -46.9541 C.2       12 UNK         0.5000 
     73 O          -4.1654  -23.0801  -47.7452 O.2       12 UNK        -0.5000 
     74 N          -2.9422  -24.7890  -46.8834 N.am      13 UNK        -0.5000 
     75 CA         -3.4637  -25.8561  -47.7385 C.3       13 UNK         0.1400 
     76 CB         -3.0585  -27.2158  -47.1493 C.3       13 UNK        -0.1800 
     77 C          -3.0054  -25.7460  -49.2059 C.2       13 UNK         0.5000 
     78 O          -3.7791  -26.0798  -50.1037 O.2       13 UNK        -0.5000 
     79 N          -1.7688  -25.2798  -49.4252 N.am      14 UNK        -0.5000 
     80 CA         -1.1915  -25.0655  -50.7536 C.3       14 UNK         0.1400 
     81 CB          0.3224  -25.3151  -50.6996 C.3       14 UNK        -0.1800 
     82 C          -1.4870  -23.6452  -51.2569 C.2       14 UNK         0.5000 
     83 O          -1.8127  -23.4682  -52.4288 O.2       14 UNK        -0.5000 
     84 N          -1.4028  -22.6684  -50.3456 N.am      15 UNK        -0.5000 
     85 CA         -1.6840  -21.2517  -50.5679 C.3       15 UNK         0.1400 
     86 CB         -1.2013  -20.4758  -49.3345 C.3       15 UNK        -0.1800 
     87 C          -3.1692  -20.9404  -50.8234 C.2       15 UNK         0.5000 
     88 O          -3.4811  -19.8187  -51.2232 O.2       15 UNK        -0.5000 
     89 N          -4.0565  -21.9064  -50.5436 N.am      16 UNK        -0.5000 
     90 CA         -5.5154  -21.8332  -50.6508 C.3       16 UNK         0.1400 
     91 CB         -5.9399  -21.7391  -52.1297 C.3       16 UNK        -0.1800 
     92 C          -6.0900  -20.7023  -49.7759 C.2       16 UNK         0.5000 
     93 O          -6.8488  -19.8627  -50.2600 O.2       16 UNK        -0.5000 
     94 N          -5.6559  -20.6781  -48.5069 N.am      17 UNK        -0.5000 
     95 CA         -5.9671  -19.6650  -47.4912 C.3       17 UNK         0.1400 
     96 CB         -7.4447  -19.7656  -47.0602 C.3       17 UNK        -0.1800 
     97 C          -5.5537  -18.2371  -47.9186 C.2       17 UNK         0.5000 
     98 O          -6.3134  -17.2872  -47.7282 O.2       17 UNK        -0.5000 
     99 N          -4.3454  -18.1318  -48.4928 N.am      18 UNK        -0.5000 
    100 CA        -3.6856  -16.9195  -48.9984 C.3       18 UNK         0.1400 
    101 CB        -3.5656  -15.8262  -47.9115 C.3       18 UNK        -0.1800 
    102 C         -4.2637  -16.3694  -50.3191 C.2       18 UNK         0.5000 
    103 O         -3.9081  -15.2559  -50.7072 O.2       18 UNK        -0.5000 
    104 N         -5.1034  -17.1490  -51.0156 N.am      19 UNK        -0.5000 
    105 CA        -5.6131  -16.8090  -52.3479 C.3       19 UNK         0.1400 
    106 CB        -6.8640  -17.6485  -52.6464 C.3       19 UNK        -0.1800 
    107 C         -4.5633  -16.9981  -53.4626 C.2       19 UNK         0.5000 
    108 O         -4.7142  -16.4080  -54.5327 O.2       19 UNK        -0.5000 
    109 N         -3.5388  -17.8238  -53.1979 N.am      20 UNK        -0.5000 
    110 CA        -2.4438  -18.2200  -54.0899 C.3       20 UNK         0.1400 
    111 CB        -1.5948  -17.0053  -54.5182 C.3       20 UNK        -0.1800 
    112 C         -2.9150  -19.0778  -55.2829 C.2       20 UNK         0.5000 
    113 O         -2.2520  -19.1124  -56.3212 O.2       20 UNK        -0.5000 
    114 N         -4.0376  -19.7891  -55.1097 N.am      21 UNK        -0.5000 
    115 CA        -4.6051  -20.7317  -56.0752 C.3       21 UNK         0.1400 
    116 CB        -6.1301  -20.7943  -55.8750 C.3       21 UNK        -0.1800 
    117 C         -3.9198  -22.1085  -55.9522 C.2       21 UNK         0.5000 
    118 O         -4.5692  -23.1052  -55.6305 O.2       21 UNK        -0.5000 
    119 N         -2.6004  -22.1128  -56.1648 N.am      22 UNK        -0.5000 
    120 CA        -1.6986  -23.2639  -56.0266 C.3       22 UNK         0.1400 
    121 C         -2.0001  -24.4018  -57.0407 C.2       22 UNK         0.5000 
    122 N         -1.8717  -25.6567  -56.6315 N.am      22 UNK        -0.7600 
    123 O         -2.3032  -24.1580  -58.2069 O.2       22 UNK        -0.5000 
    124 C124       -0.2138  -22.8283  -56.1303 C.3       23 UNK        -0.0398 
    125 S125        0.2149  -21.4786  -54.9763 S.3       23 UNK        -0.2404 
    126 C126        1.2527  -22.3436  -53.7479 C.3       23 UNK        -0.0205 
    127 H127        3.5867  -15.5390  -46.4601 H         1 UNK         0.0600 
    128 H128        3.8975  -16.5117  -47.9057 H         1 UNK         0.0600 
    129 H129        3.8210  -14.7493  -48.0195 H         1 UNK         0.0600 
    130 H130        2.1467  -14.9741  -49.6643 H         1 UNK         0.3000 
    131 H131       -0.5395  -15.8992  -48.7879 H         1 UNK         0.0600 
    132 H132       -1.0893  -15.3878  -51.2661 H         1 UNK         0.0800 
    133 H133        0.6300  -15.2787  -51.5466 H         1 UNK         0.0800 
    134 H134        1.9712  -17.4295  -52.2241 H         1 UNK         0.0800 
    135 H135        2.2509  -17.4418  -50.4979 H         1 UNK         0.0800 
    136 H136        0.9314  -19.5941  -53.2311 H         1 UNK         0.1150 
    137 H137        2.6389  -23.1854  -51.6024 H         1 UNK         0.1150 
    138 H138        2.9685  -19.4780  -49.4804 H         1 UNK         0.1150 
    139 H139        4.5486  -22.6377  -49.8828 H         1 UNK         0.0800 
    140 H140        4.2329  -21.3773  -48.7235 H         1 UNK         0.0800 
    141 H141        3.0394  -21.8670  -46.5045 H         1 UNK         0.0800 
    142 H142        1.6951  -21.3444  -47.4832 H         1 UNK         0.0800 
    143 H143        1.5081  -24.0158  -46.0223 H         1 UNK         0.0600 
    144 H144        0.9829  -21.4337  -44.6168 H         1 UNK         0.3000 
    145 H145        1.2044  -21.9325  -41.9787 H         1 UNK         0.0600 
    146 H146        3.2879  -21.9234  -40.5862 H         1 UNK         0.0600 
    147 H147        2.7718  -23.5474  -41.0103 H         1 UNK         0.0600 
    148 H148        4.1336  -22.8203  -41.8476 H         1 UNK         0.0600 
    149 H149        1.8108  -20.0146  -42.8737 H         1 UNK         0.3000 
    150 H150        4.7475  -18.6165  -44.1520 H         1 UNK         0.0600 
    151 H151        3.9517  -19.6817  -46.2427 H         1 UNK         0.0600 
    152 H152        3.3710  -18.0314  -46.1526 H         1 UNK         0.0600 
    153 H153        2.2723  -19.3583  -45.8063 H         1 UNK         0.0600 
    154 H154        1.9015  -18.2627  -43.3008 H         1 UNK         0.3000 
    155 H155        2.7073  -15.1092  -41.9364 H         1 UNK         0.0600 
    156 H156        0.8188  -15.5538  -44.3005 H         1 UNK         0.0600 
    157 H157        2.1443  -14.4006  -44.2754 H         1 UNK         0.0600 
    158 H158        0.7878  -14.2014  -43.1768 H         1 UNK         0.0600 
    159 H159        0.2086  -16.4606  -42.1216 H         1 UNK         0.3000 
    160 H160        0.5888  -18.2343  -39.0131 H         1 UNK         0.0600 
    161 H161       -1.4327  -16.8600  -38.5839 H         1 UNK         0.0600 
    162 H162       -1.0230  -15.7890  -39.9219 H         1 UNK         0.0600 
    163 H163        0.0155  -15.8684  -38.5029 H         1 UNK         0.0600 
    164 H164       -1.2349  -17.8229  -41.3421 H         1 UNK         0.3000 
    165 H165       -1.2331  -21.2637  -42.1442 H         1 UNK         0.0600 
    166 H166       -3.7025  -21.1057  -41.8314 H         1 UNK         0.0600 
    167 H167       -2.8982  -21.2662  -40.2807 H         1 UNK         0.0600 
    168 H168       -3.5000  -19.6954  -40.7945 H         1 UNK         0.0600 
    169 H169       -2.7675  -19.0013  -43.0393 H         1 UNK         0.3000 
    170 H170       -0.4096  -17.4489  -45.0190 H         1 UNK         0.0600 
    171 H171       -0.7780  -19.4722  -46.5345 H         1 UNK         0.0600 
    172 H172       -2.5129  -19.2227  -46.3421 H         1 UNK         0.0600 
    173 H173       -1.5045  -17.9827  -47.0915 H         1 UNK         0.0600 
    174 H174       -3.2315  -17.2736  -45.1695 H         1 UNK         0.3000 
    175 H175       -4.3954  -15.7418  -44.1514 H         1 UNK         0.0600 
    176 H176       -3.7496  -15.7195  -41.1414 H         1 UNK         0.0600 
    177 H177       -5.2989  -15.2852  -41.8594 H         1 UNK         0.0600 
    178 H178       -4.7106  -16.9374  -41.9738 H         1 UNK         0.0600 
    179 H179       -2.3578  -14.0053  -42.9349 H         1 UNK         0.3000 
    180 H180       -3.8451  -11.0443  -44.0391 H         1 UNK         0.0600 
    181 H181       -1.2759  -12.3074  -42.9200 H         1 UNK         0.0600 
    182 H182       -2.6126  -11.6895  -41.9558 H         1 UNK         0.0600 
    183 H183       -1.6810  -10.5984  -42.9652 H         1 UNK         0.0600 
    184 H184       -2.7480  -10.9355  -45.9594 H         1 UNK         0.3000 
    185 H185       -1.8562  -11.8831  -47.9151 H         1 UNK         0.0600 
    186 H186       -0.2552  -10.2222  -46.8965 H         1 UNK         0.0600 
    187 H187        0.9619  -11.4826  -46.7276 H         1 UNK         0.0600 
    188 H188        0.4497  -10.9537  -48.3295 H         1 UNK         0.0600 
    189 H189       -0.2627  -14.1595  -47.1555 H         1 UNK         0.3000 
    190 H190       -0.9531  -22.6556  -44.7224 H         1 UNK         0.3000 
    191 H191       -2.6990  -21.5406  -46.4649 H         1 UNK         0.0600 
    192 H192       -3.3522  -23.3620  -44.1011 H         1 UNK         0.0600 
    193 H193       -4.4950  -22.2625  -44.8661 H         1 UNK         0.0600 
    194 H194       -3.0792  -21.6218  -44.0589 H         1 UNK         0.0600 
    195 H195       -2.2370  -25.0449  -46.2083 H         1 UNK         0.3000 
    196 H196       -4.5542  -25.7944  -47.7290 H         1 UNK         0.0600 
    197 H197       -3.4527  -28.0355  -47.7516 H         1 UNK         0.0600 
    198 H198       -3.4486  -27.3400  -46.1390 H         1 UNK         0.0600 
    199 H199       -1.9746  -27.3304  -47.1082 H         1 UNK         0.0600 
    200 H200       -1.2250  -24.9480  -48.6375 H         1 UNK         0.3000 
    201 H201       -1.6229  -25.7740  -51.4641 H         1 UNK         0.0600 
    202 H202        0.5439  -26.3310  -50.3726 H         1 UNK         0.0600 
    203 H203        0.8157  -24.6273  -50.0139 H         1 UNK         0.0600 
    204 H204        0.7764  -25.1816  -51.6821 H         1 UNK         0.0600 
    205 H205       -1.0856  -22.9111  -49.4086 H         1 UNK         0.3000 
    206 H206       -1.1230  -20.9163  -51.4417 H         1 UNK         0.0600 
    207 H207       -1.4400  -19.4166  -49.4067 H         1 UNK         0.0600 
    208 H208       -0.1216  -20.5612  -49.2128 H         1 UNK         0.0600 
    209 H209       -1.6731  -20.8459  -48.4267 H         1 UNK         0.0600 
    210 H210       -3.6934  -22.7652  -50.1545 H         1 UNK         0.3000 
    211 H211       -5.9080  -22.7683  -50.2486 H         1 UNK         0.0600 
    212 H212       -5.5784  -20.8230  -52.5947 H         1 UNK         0.0600 
    213 H213       -7.0258  -21.7525  -52.2288 H         1 UNK         0.0600 
    214 H214       -5.5494  -22.5790  -52.7049 H         1 UNK         0.0600 
    215 H215       -5.0542  -21.4429  -48.2105 H         1 UNK         0.3000 
    216 H216       -5.3563  -19.9087  -46.6207 H         1 UNK         0.0600 
    217 H217       -7.6538  -19.1007  -46.2213 H         1 UNK         0.0600 
    218 H218       -7.6933  -20.7775  -46.7405 H         1 UNK         0.0600 
    219 H219       -8.1228  -19.4936  -47.8697 H         1 UNK         0.0600 
    220 H220       -3.8446  -18.9910  -48.6653 H         1 UNK         0.3000 
    221 H221       -2.6710  -17.2306  -49.2480 H         1 UNK         0.0600 
    222 H222       -4.5363  -15.4254  -47.6210 H         1 UNK         0.0600 
    223 H223       -3.0757  -16.2011  -47.0164 H         1 UNK         0.0600 
    224 H224       -2.9743  -14.9828  -48.2650 H         1 UNK         0.0600 
    225 H225       -5.3551  -18.0578  -50.6478 H         1 UNK         0.3000 
    226 H226       -5.9082  -15.7576  -52.3481 H         1 UNK         0.0600 
    227 H227       -7.6226  -17.5168  -51.8746 H         1 UNK         0.0600 
    228 H228       -7.3121  -17.3570  -53.5971 H         1 UNK         0.0600 
    229 H229       -6.6306  -18.7108  -52.7090 H         1 UNK         0.0600 
    230 H230       -3.5492  -18.3152  -52.3062 H         1 UNK         0.3000 
    231 H231       -1.8006  -18.8697  -53.4941 H         1 UNK         0.0600 
    232 H232       -1.3046  -16.4025  -53.6585 H         1 UNK         0.0600 
    233 H233       -2.1300  -16.3604  -55.2152 H         1 UNK         0.0600 
    234 H234       -0.6771  -17.3280  -55.0111 H         1 UNK         0.0600 
    235 H235       -4.4962  -19.7315  -54.2130 H         1 UNK         0.3000 
    236 H236       -4.4225  -20.3650  -57.0876 H         1 UNK         0.0600 
    237 H237       -6.5923  -21.4496  -56.6142 H         1 UNK         0.0600 
    238 H238       -6.3973  -21.1743  -54.8895 H         1 UNK         0.0600 
    239 H239       -6.5827  -19.8089  -55.9874 H         1 UNK         0.0600 
    240 H240       -2.1581  -21.2319  -56.3989 H         1 UNK         0.3000 
    241 H241       -1.8600  -23.6654  -55.0257 H         1 UNK         0.0600 
    242 H242       -2.0486  -26.4049  -57.2840 H         1 UNK         0.3800 
    243 H243       -1.6206  -25.8805  -55.6809 H         1 UNK         0.3800 
    244 H244        0.4463  -23.6787  -55.9511 H         1 UNK         0.0800 
    245 H245        0.0087  -22.4816  -57.1411 H         1 UNK         0.0800 
    246 H246        2.1369  -22.7322  -54.2548 H         1 UNK         0.0800 
    247 H247        0.7013  -23.2072  -53.3763 H         1 UNK         0.0800 
@<TRIPOS>BOND
     1    1    2 1    
     2    1  127 1    
     3    1  128 1    
     4    1  129 1    
     5    2    3 2    
     6    2    4 am   BACKBONE|DICT|INTERRES
     7    4    5 1    
     8    4  130 1    
     9    5    6 1    
    10    5   65 1    
    11    5  131 1    
    12    6    7 1    
    13    6  132 1    
    14    6  133 1    
    15    7    8 1    
    16    8    9 1    
    17    8  134 1    
    18    8  135 1    
    19    9   10 ar   
    20    9   14 ar   
    21   10   11 ar   
    22   10  136 1    
    23   11   12 ar   
    24   11  126 1    
    25   12   13 ar   
    26   12  137 1    
    27   13   14 ar   
    28   13   15 1    
    29   14  138 1    
    30   15   16 1    
    31   15  139 1    
    32   15  140 1    
    33   16   17 1    
    34   17   18 1    
    35   17  141 1    
    36   17  142 1    
    37   18   19 1    
    38   18   67 1    
    39   18  143 1    
    40   19   20 am   BACKBONE|DICT|INTERRES
    41   19  144 1    
    42   20   21 2    
    43   20   22 1    
    44   22   23 1    
    45   22   24 1    
    46   22  145 1    
    47   23  146 1    
    48   23  147 1    
    49   23  148 1    
    50   24   25 am   BACKBONE|DICT|INTERRES
    51   24  149 1    
    52   25   26 2    
    53   25   27 1    
    54   27   28 1    
    55   27   29 1    
    56   27  150 1    
    57   28  151 1    
    58   28  152 1    
    59   28  153 1    
    60   29   30 am   BACKBONE|DICT|INTERRES
    61   29  154 1    
    62   30   31 2    
    63   30   32 1    
    64   32   33 1    
    65   32   34 1    
    66   32  155 1    
    67   33  156 1    
    68   33  157 1    
    69   33  158 1    
    70   34   35 am   BACKBONE|DICT|INTERRES
    71   34  159 1    
    72   35   36 2    
    73   35   37 1    
    74   37   38 1    
    75   37   39 1    
    76   37  160 1    
    77   38  161 1    
    78   38  162 1    
    79   38  163 1    
    80   39   40 am   BACKBONE|DICT|INTERRES
    81   39  164 1    
    82   40   41 2    
    83   40   42 1    
    84   42   43 1    
    85   42   44 1    
    86   42  165 1    
    87   43  166 1    
    88   43  167 1    
    89   43  168 1    
    90   44   45 am   BACKBONE|DICT|INTERRES
    91   44  169 1    
    92   45   46 2    
    93   45   47 1    
    94   47   48 1    
    95   47   49 1    
    96   47  170 1    
    97   48  171 1    
    98   48  172 1    
    99   48  173 1    
   100   49   50 am   BACKBONE|DICT|INTERRES
   101   49  174 1    
   102   50   51 2    
   103   50   52 1    
   104   52   53 1    
   105   52   54 1    
   106   52  175 1    
   107   53  176 1    
   108   53  177 1    
   109   53  178 1    
   110   54   55 am   BACKBONE|DICT|INTERRES
   111   54  179 1    
   112   55   56 2    
   113   55   57 1    
   114   57   58 1    
   115   57   59 1    
   116   57  180 1    
   117   58  181 1    
   118   58  182 1    
   119   58  183 1    
   120   59   60 am   BACKBONE|DICT|INTERRES
   121   59  184 1    
   122   60   61 2    
   123   60   62 1    
   124   62   63 1    
   125   62   64 1    
   126   62  185 1    
   127   63  186 1    
   128   63  187 1    
   129   63  188 1    
   130   64   65 am   BACKBONE|DICT|INTERRES
   131   64  189 1    
   132   65   66 2    
   133   67   68 2    
   134   67   69 am   BACKBONE|DICT|INTERRES
   135   69   70 1    
   136   69  190 1    
   137   70   71 1    
   138   70   72 1    
   139   70  191 1    
   140   71  192 1    
   141   71  193 1    
   142   71  194 1    
   143   72   73 2    
   144   72   74 am   BACKBONE|DICT|INTERRES
   145   74   75 1    
   146   74  195 1    
   147   75   76 1    
   148   75   77 1    
   149   75  196 1    
   150   76  197 1    
   151   76  198 1    
   152   76  199 1    
   153   77   78 2    
   154   77   79 am   BACKBONE|DICT|INTERRES
   155   79   80 1    
   156   79  200 1    
   157   80   81 1    
   158   80   82 1    
   159   80  201 1    
   160   81  202 1    
   161   81  203 1    
   162   81  204 1    
   163   82   83 2    
   164   82   84 am   BACKBONE|DICT|INTERRES
   165   84   85 1    
   166   84  205 1    
   167   85   86 1    
   168   85   87 1    
   169   85  206 1    
   170   86  207 1    
   171   86  208 1    
   172   86  209 1    
   173   87   88 2    
   174   87   89 am   BACKBONE|DICT|INTERRES
   175   89   90 1    
   176   89  210 1    
   177   90   91 1    
   178   90   92 1    
   179   90  211 1    
   180   91  212 1    
   181   91  213 1    
   182   91  214 1    
   183   92   93 2    
   184   92   94 am   BACKBONE|DICT|INTERRES
   185   94   95 1    
   186   94  215 1    
   187   95   96 1    
   188   95   97 1    
   189   95  216 1    
   190   96  217 1    
   191   96  218 1    
   192   96  219 1    
   193   97   98 2    
   194   97   99 am   BACKBONE|DICT|INTERRES
   195   99  100 1    
   196   99  220 1    
   197  100  101 1    
   198  100  102 1    
   199  100  221 1    
   200  101  222 1    
   201  101  223 1    
   202  101  224 1    
   203  102  103 2    
   204  102  104 am   BACKBONE|DICT|INTERRES
   205  104  105 1    
   206  104  225 1    
   207  105  106 1    
   208  105  107 1    
   209  105  226 1    
   210  106  227 1    
   211  106  228 1    
   212  106  229 1    
   213  107  108 2    
   214  107  109 am   BACKBONE|DICT|INTERRES
   215  109  110 1    
   216  109  230 1    
   217  110  111 1    
   218  110  112 1    
   219  110  231 1    
   220  111  232 1    
   221  111  233 1    
   222  111  234 1    
   223  112  113 2    
   224  112  114 am   BACKBONE|DICT|INTERRES
   225  114  115 1    
   226  114  235 1    
   227  115  116 1    
   228  115  117 1    
   229  115  236 1    
   230  116  237 1    
   231  116  238 1    
   232  116  239 1    
   233  117  118 2    
   234  117  119 am   BACKBONE|DICT|INTERRES
   235  119  120 1    
   236  119  240 1    
   237  120  121 1    
   238  120  124 1    
   239  120  241 1    
   240  121  122 am   BACKBONE|DICT|INTERRES
   241  121  123 2    
   242  122  242 1    
   243  122  243 1    
   244  124  125 1    
   245  124  244 1    
   246  124  245 1    
   247  125  126 1    
   248  126  246 1    
   249  126  247 1    
@<TRIPOS>SUBSTRUCTURE
     1 UNK         1 GROUP             0       ****    0 ROOT    
