@<TRIPOS>MOLECULE
3R540
247   249    1
SMALL
USER_CHARGES


@<TRIPOS>ATOM
      1 CA         -3.4473  -17.4660  -44.7920 C.3       0 UNK        -0.1800 
      2 C          -3.5381  -16.5265  -45.9843 C.2       0 UNK         0.5000 
      3 O          -4.3767  -16.7149  -46.8651 O.2       0 UNK        -0.5000 
      4 N          -2.6814  -15.5040  -45.9859 N.am      1 UNK        -0.5000 
      5 CA         -2.6827  -14.3719  -46.9113 C.3       1 UNK         0.1400 
      6 C6         -1.5223  -14.4411  -47.9370 C.3       23 UNK        -0.0398 
      7 S7         -1.6944  -15.7968  -49.1486 S.3       23 UNK        -0.2404 
      8 C8         -0.4204  -16.9529  -48.5567 C.3       23 UNK        -0.0205 
      9 C9          0.0389  -17.9180  -49.6366 C.ar      23 UNK        -0.0193 
     10 C10         0.7350  -17.4377  -50.7490 C.ar      23 UNK        -0.1150 
     11 C11         1.2264  -18.3175  -51.7167 C.ar      23 UNK        -0.0193 
     12 C12         1.0285  -19.6915  -51.5559 C.ar      23 UNK        -0.1150 
     13 C13         0.3155  -20.1833  -50.4597 C.ar      23 UNK        -0.0193 
     14 C14        -0.1807  -19.2913  -49.5036 C.ar      23 UNK        -0.1150 
     15 C15         0.0679  -21.6774  -50.3256 C.3       23 UNK        -0.0205 
     16 S16         1.4881  -22.5477  -49.5906 S.3       23 UNK        -0.2404 
     17 C17         1.4255  -21.9949  -47.8513 C.3       23 UNK        -0.0398 
     18 CA          0.7206  -23.0050  -46.9177 C.3       11 UNK         0.1400 
     19 N           1.0573  -22.7687  -45.5122 N.am      11 UNK        -0.5000 
     20 C           0.7656  -23.6137  -44.5140 C.2       10 UNK         0.5000 
     21 O           0.2209  -24.7042  -44.6840 O.2       10 UNK        -0.5000 
     22 CA          1.0959  -23.1457  -43.0862 C.3       10 UNK         0.1400 
     23 CB          2.5880  -23.3433  -42.7803 C.3       10 UNK        -0.1800 
     24 N           0.7218  -21.7498  -42.8526 N.am      10 UNK        -0.5000 
     25 C          -0.5382  -21.2906  -42.8585 C.2       9 UNK         0.5000 
     26 O          -1.5254  -22.0083  -43.0164 O.2       9 UNK        -0.5000 
     27 CA         -0.7294  -19.7708  -42.6945 C.3       9 UNK         0.1400 
     28 CB         -0.6548  -19.3639  -41.2156 C.3       9 UNK        -0.1800 
     29 N           0.2338  -18.9825  -43.4637 N.am      9 UNK        -0.5000 
     30 C           0.3470  -18.9991  -44.7993 C.2       8 UNK         0.5000 
     31 O          -0.3658  -19.6677  -45.5465 O.2       8 UNK        -0.5000 
     32 CA          1.4920  -18.1670  -45.3965 C.3       8 UNK         0.1400 
     33 CB          1.1548  -16.6656  -45.3808 C.3       8 UNK        -0.1800 
     34 N           2.7539  -18.4053  -44.6957 N.am      8 UNK        -0.5000 
     35 C           3.3987  -19.5815  -44.6682 C.2       7 UNK         0.5000 
     36 O           3.0240  -20.5840  -45.2763 O.2       7 UNK        -0.5000 
     37 CA          4.6465  -19.6607  -43.7703 C.3       7 UNK         0.1400 
     38 CB          5.8785  -19.1122  -44.5051 C.3       7 UNK        -0.1800 
     39 N           4.4734  -18.9414  -42.5071 N.am      7 UNK        -0.5000 
     40 C           3.6103  -19.2955  -41.5434 C.2       6 UNK         0.5000 
     41 O           2.8926  -20.2926  -41.6009 O.2       6 UNK        -0.5000 
     42 CA          3.4908  -18.3416  -40.3403 C.3       6 UNK         0.1400 
     43 CB          4.5715  -18.6496  -39.2934 C.3       6 UNK        -0.1800 
     44 N           3.5725  -16.9308  -40.7293 N.am      6 UNK        -0.5000 
     45 C           2.6795  -16.3162  -41.5156 C.2       5 UNK         0.5000 
     46 O           1.6824  -16.8754  -41.9792 O.2       5 UNK        -0.5000 
     47 CA          3.0008  -14.8625  -41.9048 C.3       5 UNK         0.1400 
     48 CB          3.9473  -14.8312  -43.1160 C.3       5 UNK        -0.1800 
     49 N           1.7958  -14.1059  -42.2371 N.am      5 UNK        -0.5000 
     50 C           0.9044  -13.6541  -41.3457 C.2       4 UNK         0.5000 
     51 O           1.0215  -13.8163  -40.1292 O.2       4 UNK        -0.5000 
     52 CA         -0.3160  -12.8919  -41.9115 C.3       4 UNK         0.1400 
     53 CB         -0.9241  -11.9011  -40.8972 C.3       4 UNK        -0.1800 
     54 N          -0.0686  -12.2219  -43.1956 N.am      4 UNK        -0.5000 
     55 C           0.8301  -11.2575  -43.4588 C.2       3 UNK         0.5000 
     56 O           1.6248  -10.8124  -42.6302 O.2       3 UNK        -0.5000 
     57 CA          0.8567  -10.6952  -44.8968 C.3       3 UNK         0.1400 
     58 CB          1.9521  -11.3944  -45.7176 C.3       3 UNK        -0.1800 
     59 N          -0.4191  -10.8291  -45.6037 N.am      3 UNK        -0.5000 
     60 C          -1.5530  -10.1932  -45.2761 C.2       2 UNK         0.5000 
     61 O          -1.6182   -9.3264  -44.4036 O.2       2 UNK        -0.5000 
     62 CA         -2.8390  -10.6052  -46.0270 C.3       2 UNK         0.1400 
     63 CB         -3.1941   -9.5545  -47.0907 C.3       2 UNK        -0.1800 
     64 N          -2.8126  -11.9306  -46.6644 N.am      2 UNK        -0.5000 
     65 C          -2.5739  -13.0981  -46.0497 C.2       1 UNK         0.5000 
     66 O          -2.2467  -13.1867  -44.8615 O.2       1 UNK        -0.5000 
     67 C          -0.8075  -23.0361  -47.1357 C.2       11 UNK         0.5000 
     68 O          -1.3030  -23.9274  -47.8243 O.2       11 UNK        -0.5000 
     69 N          -1.5364  -22.1099  -46.4979 N.am      12 UNK        -0.5000 
     70 CA         -2.9991  -22.0201  -46.5348 C.3       12 UNK         0.1400 
     71 CB         -3.4349  -20.6852  -45.9201 C.3       12 UNK        -0.1800 
     72 C          -3.7376  -23.2002  -45.8647 C.2       12 UNK         0.5000 
     73 O          -4.9442  -23.3458  -46.0643 O.2       12 UNK        -0.5000 
     74 N          -3.0216  -24.0225  -45.0867 N.am      13 UNK        -0.5000 
     75 CA         -3.5265  -25.2806  -44.5391 C.3       13 UNK         0.1400 
     76 CB         -2.8296  -25.5594  -43.1983 C.3       13 UNK        -0.1800 
     77 C          -3.3294  -26.4616  -45.5123 C.2       13 UNK         0.5000 
     78 O          -4.0079  -27.4782  -45.3586 O.2       13 UNK        -0.5000 
     79 N          -2.4093  -26.3260  -46.4781 N.am      14 UNK        -0.5000 
     80 CA         -2.0549  -27.3616  -47.4497 C.3       14 UNK         0.1400 
     81 CB         -0.5283  -27.3710  -47.6317 C.3       14 UNK        -0.1800 
     82 C          -2.7545  -27.1499  -48.8036 C.2       14 UNK         0.5000 
     83 O          -3.1801  -28.1260  -49.4230 O.2       14 UNK        -0.5000 
     84 N          -2.8604  -25.8901  -49.2378 N.am      15 UNK        -0.5000 
     85 CA         -3.4946  -25.4569  -50.4809 C.3       15 UNK         0.1400 
     86 CB         -2.3937  -25.0374  -51.4711 C.3       15 UNK        -0.1800 
     87 C          -4.4366  -24.2799  -50.1881 C.2       15 UNK         0.5000 
     88 O          -4.3867  -23.7117  -49.0992 O.2       15 UNK        -0.5000 
     89 N          -5.2555  -23.8916  -51.1743 N.am      16 UNK        -0.5000 
     90 CA         -6.2150  -22.7821  -51.0655 C.3       16 UNK         0.1400 
     91 CB         -7.3591  -22.9949  -52.0723 C.3       16 UNK        -0.1800 
     92 C          -5.5823  -21.3750  -51.1958 C.2       16 UNK         0.5000 
     93 O          -6.3153  -20.3950  -51.3374 O.2       16 UNK        -0.5000 
     94 N          -4.2443  -21.2911  -51.1443 N.am      17 UNK        -0.5000 
     95 CA         -3.4261  -20.0766  -51.1339 C.3       17 UNK         0.1400 
     96 CB         -3.6108  -19.3240  -49.7969 C.3       17 UNK        -0.1800 
     97 C          -3.6610  -19.2127  -52.3863 C.2       17 UNK         0.5000 
     98 O          -3.3741  -19.6725  -53.4933 O.2       17 UNK        -0.5000 
     99 N          -4.2019  -18.0012  -52.2079 N.am      18 UNK        -0.5000 
    100 CA        -4.5418  -17.0683  -53.2817 C.3       18 UNK         0.1400 
    101 CB        -5.0022  -15.7390  -52.6662 C.3       18 UNK        -0.1800 
    102 C         -5.6039  -17.6147  -54.2558 C.2       18 UNK         0.5000 
    103 O         -5.5279  -17.3248  -55.4495 O.2       18 UNK        -0.5000 
    104 N         -6.5398  -18.4352  -53.7540 N.am      19 UNK        -0.5000 
    105 CA        -7.5686  -19.0954  -54.5639 C.3       19 UNK         0.1400 
    106 CB        -8.7304  -19.5354  -53.6616 C.3       19 UNK        -0.1800 
    107 C         -7.0191  -20.2820  -55.3812 C.2       19 UNK         0.5000 
    108 O         -7.6248  -20.6515  -56.3872 O.2       19 UNK        -0.5000 
    109 N         -5.8699  -20.8318  -54.9634 N.am      20 UNK        -0.5000 
    110 CA        -5.0988  -21.8280  -55.7105 C.3       20 UNK         0.1400 
    111 CB        -4.4053  -22.7789  -54.7166 C.3       20 UNK        -0.1800 
    112 C         -4.0555  -21.1760  -56.6401 C.2       20 UNK         0.5000 
    113 O         -3.3232  -21.9020  -57.3136 O.2       20 UNK        -0.5000 
    114 N         -3.9560  -19.8359  -56.6237 N.am      21 UNK        -0.5000 
    115 CA        -2.9377  -19.0136  -57.2884 C.3       21 UNK         0.1400 
    116 CB        -3.1476  -19.0217  -58.8165 C.3       21 UNK        -0.1800 
    117 C         -1.5041  -19.4073  -56.8679 C.2       21 UNK         0.5000 
    118 O         -0.6043  -19.4654  -57.7075 O.2       21 UNK        -0.5000 
    119 N         -1.3460  -19.7152  -55.5732 N.am      22 UNK        -0.5000 
    120 CA        -0.1484  -20.2842  -54.9338 C.3       22 UNK         0.1400 
    121 C          0.1340  -21.7784  -55.2831 C.2       22 UNK         0.5000 
    122 N         -0.7192  -22.4810  -56.0193 N.am      22 UNK        -0.7600 
    123 O          1.1383  -22.3316  -54.8442 O.2       22 UNK        -0.5000 
    124 C124        1.1277  -19.4046  -55.0779 C.3       23 UNK        -0.0398 
    125 S125        0.9331  -17.7148  -54.4102 S.3       23 UNK        -0.2404 
    126 C126        1.9826  -17.7777  -52.9212 C.3       23 UNK        -0.0205 
    127 H127       -2.5561  -18.0855  -44.8725 H         1 UNK         0.0600 
    128 H128       -4.3203  -18.1169  -44.7430 H         1 UNK         0.0600 
    129 H129       -3.3916  -16.9052  -43.8588 H         1 UNK         0.0600 
    130 H130       -2.0934  -15.3541  -45.1767 H         1 UNK         0.3000 
    131 H131       -3.6348  -14.3219  -47.4440 H         1 UNK         0.0600 
    132 H132       -0.5623  -14.5129  -47.4237 H         1 UNK         0.0800 
    133 H133       -1.4742  -13.5206  -48.5210 H         1 UNK         0.0800 
    134 H134        0.4548  -16.3987  -48.2173 H         1 UNK         0.0800 
    135 H135       -0.8121  -17.4942  -47.6942 H         1 UNK         0.0800 
    136 H136        0.8997  -16.3745  -50.8548 H         1 UNK         0.1150 
    137 H137        1.4226  -20.3822  -52.2873 H         1 UNK         0.1150 
    138 H138       -0.7263  -19.6659  -48.6483 H         1 UNK         0.1150 
    139 H139       -0.8335  -21.8661  -49.7423 H         1 UNK         0.0800 
    140 H140       -0.1227  -22.1007  -51.3131 H         1 UNK         0.0800 
    141 H141        0.9900  -21.0009  -47.7613 H         1 UNK         0.0800 
    142 H142        2.4642  -21.8820  -47.5391 H         1 UNK         0.0800 
    143 H143        1.0985  -24.0005  -47.1622 H         1 UNK         0.0600 
    144 H144        1.5442  -21.9029  -45.3002 H         1 UNK         0.3000 
    145 H145        0.5232  -23.7660  -42.3936 H         1 UNK         0.0600 
    146 H146        2.8122  -23.0990  -41.7419 H         1 UNK         0.0600 
    147 H147        2.8864  -24.3799  -42.9419 H         1 UNK         0.0600 
    148 H148        3.2161  -22.7170  -43.4142 H         1 UNK         0.0600 
    149 H149        1.4789  -21.1051  -42.6444 H         1 UNK         0.3000 
    150 H150       -1.7271  -19.5238  -43.0613 H         1 UNK         0.0600 
    151 H151       -1.3887  -19.9108  -40.6224 H         1 UNK         0.0600 
    152 H152       -0.8595  -18.3006  -41.0890 H         1 UNK         0.0600 
    153 H153        0.3287  -19.5667  -40.7911 H         1 UNK         0.0600 
    154 H154        0.8491  -18.3736  -42.9315 H         1 UNK         0.3000 
    155 H155        1.6162  -18.4769  -46.4365 H         1 UNK         0.0600 
    156 H156        1.1378  -16.2573  -44.3726 H         1 UNK         0.0600 
    157 H157        0.1705  -16.4769  -45.8069 H         1 UNK         0.0600 
    158 H158        1.8791  -16.0938  -45.9608 H         1 UNK         0.0600 
    159 H159        3.1080  -17.6512  -44.1286 H         1 UNK         0.3000 
    160 H160        4.8258  -20.7131  -43.5404 H         1 UNK         0.0600 
    161 H161        5.7717  -18.0523  -44.7394 H         1 UNK         0.0600 
    162 H162        6.0393  -19.6419  -45.4452 H         1 UNK         0.0600 
    163 H163        6.7812  -19.2347  -43.9063 H         1 UNK         0.0600 
    164 H164        5.0292  -18.1098  -42.3742 H         1 UNK         0.3000 
    165 H165        2.5140  -18.5084  -39.8815 H         1 UNK         0.0600 
    166 H166        4.4452  -18.0331  -38.4033 H         1 UNK         0.0600 
    167 H167        4.5198  -19.6918  -38.9752 H         1 UNK         0.0600 
    168 H168        5.5748  -18.4750  -39.6840 H         1 UNK         0.0600 
    169 H169        4.3703  -16.4133  -40.3890 H         1 UNK         0.3000 
    170 H170        3.4953  -14.3757  -41.0615 H         1 UNK         0.0600 
    171 H171        4.8773  -15.3601  -42.9042 H         1 UNK         0.0600 
    172 H172        3.4986  -15.2944  -43.9950 H         1 UNK         0.0600 
    173 H173        4.2130  -13.8070  -43.3791 H         1 UNK         0.0600 
    174 H174        1.6110  -13.9494  -43.2156 H         1 UNK         0.3000 
    175 H175       -1.0705  -13.6532  -42.1150 H         1 UNK         0.0600 
    176 H176       -0.2044  -11.1400  -40.5946 H         1 UNK         0.0600 
    177 H177       -1.7928  -11.3933  -41.3165 H         1 UNK         0.0600 
    178 H178       -1.2557  -12.4158  -39.9947 H         1 UNK         0.0600 
    179 H179       -0.7019  -12.4994  -43.9407 H         1 UNK         0.3000 
    180 H180        1.0994   -9.6326  -44.8316 H         1 UNK         0.0600 
    181 H181        1.7499  -12.4598  -45.8357 H         1 UNK         0.0600 
    182 H182        2.9252  -11.2970  -45.2343 H         1 UNK         0.0600 
    183 H183        2.0403  -10.9564  -46.7121 H         1 UNK         0.0600 
    184 H184       -0.4563  -11.5107  -46.3459 H         1 UNK         0.3000 
    185 H185       -3.6414  -10.6223  -45.2867 H         1 UNK         0.0600 
    186 H186       -3.2573   -8.5574  -46.6525 H         1 UNK         0.0600 
    187 H187       -2.4457   -9.5175  -47.8833 H         1 UNK         0.0600 
    188 H188       -4.1604   -9.7659  -47.5490 H         1 UNK         0.0600 
    189 H189       -3.0643  -11.9439  -47.6425 H         1 UNK         0.3000 
    190 H190       -1.0586  -21.3815  -45.9726 H         1 UNK         0.3000 
    191 H191       -3.2952  -22.0073  -47.5835 H         1 UNK         0.0600 
    192 H192       -2.9974  -19.8478  -46.4631 H         1 UNK         0.0600 
    193 H193       -4.5181  -20.5659  -45.9620 H         1 UNK         0.0600 
    194 H194       -3.1334  -20.6090  -44.8754 H         1 UNK         0.0600 
    195 H195       -2.0469  -23.8106  -44.9198 H         1 UNK         0.3000 
    196 H196       -4.5968  -25.1894  -44.3426 H         1 UNK         0.0600 
    197 H197       -3.2502  -26.4440  -42.7186 H         1 UNK         0.0600 
    198 H198       -2.9528  -24.7246  -42.5079 H         1 UNK         0.0600 
    199 H199       -1.7616  -25.7349  -43.3242 H         1 UNK         0.0600 
    200 H200       -1.9310  -25.4387  -46.5780 H         1 UNK         0.3000 
    201 H201       -2.3492  -28.3433  -47.0725 H         1 UNK         0.0600 
    202 H202       -0.0210  -27.5607  -46.6856 H         1 UNK         0.0600 
    203 H203       -0.1601  -26.4217  -48.0224 H         1 UNK         0.0600 
    204 H204       -0.2232  -28.1530  -48.3281 H         1 UNK         0.0600 
    205 H205       -2.5005  -25.1354  -48.6575 H         1 UNK         0.3000 
    206 H206       -4.0890  -26.2639  -50.9138 H         1 UNK         0.0600 
    207 H207       -1.7237  -25.8700  -51.6863 H         1 UNK         0.0600 
    208 H208       -2.8144  -24.7082  -52.4220 H         1 UNK         0.0600 
    209 H209       -1.7892  -24.2199  -51.0755 H         1 UNK         0.0600 
    210 H210       -5.2405  -24.3894  -52.0526 H         1 UNK         0.3000 
    211 H211       -6.6588  -22.8232  -50.0685 H         1 UNK         0.0600 
    212 H212       -7.0532  -22.7890  -53.0967 H         1 UNK         0.0600 
    213 H213       -8.1968  -22.3352  -51.8458 H         1 UNK         0.0600 
    214 H214       -7.7411  -24.0150  -52.0317 H         1 UNK         0.0600 
    215 H215       -3.7396  -22.1583  -51.0439 H         1 UNK         0.3000 
    216 H216       -2.3893  -20.4028  -51.1938 H         1 UNK         0.0600 
    217 H217       -2.9852  -18.4329  -49.7537 H         1 UNK         0.0600 
    218 H218       -3.3215  -19.9542  -48.9571 H         1 UNK         0.0600 
    219 H219       -4.6427  -19.0127  -49.6316 H         1 UNK         0.0600 
    220 H220       -4.4215  -17.7080  -51.2670 H         1 UNK         0.3000 
    221 H221       -3.6328  -16.8820  -53.8576 H         1 UNK         0.0600 
    222 H222       -5.8958  -15.8669  -52.0539 H         1 UNK         0.0600 
    223 H223       -4.2238  -15.3048  -52.0381 H         1 UNK         0.0600 
    224 H224       -5.2370  -15.0095  -53.4425 H         1 UNK         0.0600 
    225 H225       -6.5070  -18.6838  -52.7719 H         1 UNK         0.3000 
    226 H226       -7.9625  -18.3681  -55.2772 H         1 UNK         0.0600 
    227 H227       -9.1627  -18.6855  -53.1334 H         1 UNK         0.0600 
    228 H228       -9.5280  -19.9939  -54.2474 H         1 UNK         0.0600 
    229 H229       -8.4114  -20.2636  -52.9184 H         1 UNK         0.0600 
    230 H230       -5.4168  -20.4422  -54.1471 H         1 UNK         0.3000 
    231 H231       -5.7653  -22.4226  -56.3383 H         1 UNK         0.0600 
    232 H232       -5.1310  -23.3384  -54.1312 H         1 UNK         0.0600 
    233 H233       -3.7526  -22.2441  -54.0267 H         1 UNK         0.0600 
    234 H234       -3.7916  -23.5153  -55.2369 H         1 UNK         0.0600 
    235 H235       -4.5992  -19.3242  -56.0350 H         1 UNK         0.3000 
    236 H236       -3.0889  -17.9916  -56.9378 H         1 UNK         0.0600 
    237 H237       -2.4723  -18.3201  -59.3074 H         1 UNK         0.0600 
    238 H238       -2.9646  -20.0071  -59.2461 H         1 UNK         0.0600 
    239 H239       -4.1645  -18.7267  -59.0751 H         1 UNK         0.0600 
    240 H240       -2.1565  -19.6529  -54.9623 H         1 UNK         0.3000 
    241 H241       -0.4049  -20.3084  -53.8754 H         1 UNK         0.0600 
    242 H242       -0.5101  -23.4466  -56.2153 H         1 UNK         0.3800 
    243 H243       -1.5531  -22.0651  -56.4186 H         1 UNK         0.3800 
    244 H244        1.9757  -19.8787  -54.5829 H         1 UNK         0.0800 
    245 H245        1.4221  -19.3241  -56.1243 H         1 UNK         0.0800 
    246 H246        2.8778  -18.3735  -53.1037 H         1 UNK         0.0800 
    247 H247        2.3386  -16.7676  -52.7128 H         1 UNK         0.0800 
@<TRIPOS>BOND
     1    1    2 1    
     2    1  127 1    
     3    1  128 1    
     4    1  129 1    
     5    2    3 2    
     6    2    4 am   BACKBONE|DICT|INTERRES
     7    4    5 1    
     8    4  130 1    
     9    5    6 1    
    10    5   65 1    
    11    5  131 1    
    12    6    7 1    
    13    6  132 1    
    14    6  133 1    
    15    7    8 1    
    16    8    9 1    
    17    8  134 1    
    18    8  135 1    
    19    9   10 ar   
    20    9   14 ar   
    21   10   11 ar   
    22   10  136 1    
    23   11   12 ar   
    24   11  126 1    
    25   12   13 ar   
    26   12  137 1    
    27   13   14 ar   
    28   13   15 1    
    29   14  138 1    
    30   15   16 1    
    31   15  139 1    
    32   15  140 1    
    33   16   17 1    
    34   17   18 1    
    35   17  141 1    
    36   17  142 1    
    37   18   19 1    
    38   18   67 1    
    39   18  143 1    
    40   19   20 am   BACKBONE|DICT|INTERRES
    41   19  144 1    
    42   20   21 2    
    43   20   22 1    
    44   22   23 1    
    45   22   24 1    
    46   22  145 1    
    47   23  146 1    
    48   23  147 1    
    49   23  148 1    
    50   24   25 am   BACKBONE|DICT|INTERRES
    51   24  149 1    
    52   25   26 2    
    53   25   27 1    
    54   27   28 1    
    55   27   29 1    
    56   27  150 1    
    57   28  151 1    
    58   28  152 1    
    59   28  153 1    
    60   29   30 am   BACKBONE|DICT|INTERRES
    61   29  154 1    
    62   30   31 2    
    63   30   32 1    
    64   32   33 1    
    65   32   34 1    
    66   32  155 1    
    67   33  156 1    
    68   33  157 1    
    69   33  158 1    
    70   34   35 am   BACKBONE|DICT|INTERRES
    71   34  159 1    
    72   35   36 2    
    73   35   37 1    
    74   37   38 1    
    75   37   39 1    
    76   37  160 1    
    77   38  161 1    
    78   38  162 1    
    79   38  163 1    
    80   39   40 am   BACKBONE|DICT|INTERRES
    81   39  164 1    
    82   40   41 2    
    83   40   42 1    
    84   42   43 1    
    85   42   44 1    
    86   42  165 1    
    87   43  166 1    
    88   43  167 1    
    89   43  168 1    
    90   44   45 am   BACKBONE|DICT|INTERRES
    91   44  169 1    
    92   45   46 2    
    93   45   47 1    
    94   47   48 1    
    95   47   49 1    
    96   47  170 1    
    97   48  171 1    
    98   48  172 1    
    99   48  173 1    
   100   49   50 am   BACKBONE|DICT|INTERRES
   101   49  174 1    
   102   50   51 2    
   103   50   52 1    
   104   52   53 1    
   105   52   54 1    
   106   52  175 1    
   107   53  176 1    
   108   53  177 1    
   109   53  178 1    
   110   54   55 am   BACKBONE|DICT|INTERRES
   111   54  179 1    
   112   55   56 2    
   113   55   57 1    
   114   57   58 1    
   115   57   59 1    
   116   57  180 1    
   117   58  181 1    
   118   58  182 1    
   119   58  183 1    
   120   59   60 am   BACKBONE|DICT|INTERRES
   121   59  184 1    
   122   60   61 2    
   123   60   62 1    
   124   62   63 1    
   125   62   64 1    
   126   62  185 1    
   127   63  186 1    
   128   63  187 1    
   129   63  188 1    
   130   64   65 am   BACKBONE|DICT|INTERRES
   131   64  189 1    
   132   65   66 2    
   133   67   68 2    
   134   67   69 am   BACKBONE|DICT|INTERRES
   135   69   70 1    
   136   69  190 1    
   137   70   71 1    
   138   70   72 1    
   139   70  191 1    
   140   71  192 1    
   141   71  193 1    
   142   71  194 1    
   143   72   73 2    
   144   72   74 am   BACKBONE|DICT|INTERRES
   145   74   75 1    
   146   74  195 1    
   147   75   76 1    
   148   75   77 1    
   149   75  196 1    
   150   76  197 1    
   151   76  198 1    
   152   76  199 1    
   153   77   78 2    
   154   77   79 am   BACKBONE|DICT|INTERRES
   155   79   80 1    
   156   79  200 1    
   157   80   81 1    
   158   80   82 1    
   159   80  201 1    
   160   81  202 1    
   161   81  203 1    
   162   81  204 1    
   163   82   83 2    
   164   82   84 am   BACKBONE|DICT|INTERRES
   165   84   85 1    
   166   84  205 1    
   167   85   86 1    
   168   85   87 1    
   169   85  206 1    
   170   86  207 1    
   171   86  208 1    
   172   86  209 1    
   173   87   88 2    
   174   87   89 am   BACKBONE|DICT|INTERRES
   175   89   90 1    
   176   89  210 1    
   177   90   91 1    
   178   90   92 1    
   179   90  211 1    
   180   91  212 1    
   181   91  213 1    
   182   91  214 1    
   183   92   93 2    
   184   92   94 am   BACKBONE|DICT|INTERRES
   185   94   95 1    
   186   94  215 1    
   187   95   96 1    
   188   95   97 1    
   189   95  216 1    
   190   96  217 1    
   191   96  218 1    
   192   96  219 1    
   193   97   98 2    
   194   97   99 am   BACKBONE|DICT|INTERRES
   195   99  100 1    
   196   99  220 1    
   197  100  101 1    
   198  100  102 1    
   199  100  221 1    
   200  101  222 1    
   201  101  223 1    
   202  101  224 1    
   203  102  103 2    
   204  102  104 am   BACKBONE|DICT|INTERRES
   205  104  105 1    
   206  104  225 1    
   207  105  106 1    
   208  105  107 1    
   209  105  226 1    
   210  106  227 1    
   211  106  228 1    
   212  106  229 1    
   213  107  108 2    
   214  107  109 am   BACKBONE|DICT|INTERRES
   215  109  110 1    
   216  109  230 1    
   217  110  111 1    
   218  110  112 1    
   219  110  231 1    
   220  111  232 1    
   221  111  233 1    
   222  111  234 1    
   223  112  113 2    
   224  112  114 am   BACKBONE|DICT|INTERRES
   225  114  115 1    
   226  114  235 1    
   227  115  116 1    
   228  115  117 1    
   229  115  236 1    
   230  116  237 1    
   231  116  238 1    
   232  116  239 1    
   233  117  118 2    
   234  117  119 am   BACKBONE|DICT|INTERRES
   235  119  120 1    
   236  119  240 1    
   237  120  121 1    
   238  120  124 1    
   239  120  241 1    
   240  121  122 am   BACKBONE|DICT|INTERRES
   241  121  123 2    
   242  122  242 1    
   243  122  243 1    
   244  124  125 1    
   245  124  244 1    
   246  124  245 1    
   247  125  126 1    
   248  126  246 1    
   249  126  247 1    
@<TRIPOS>SUBSTRUCTURE
     1 UNK         1 GROUP             0       ****    0 ROOT    
