@<TRIPOS>MOLECULE
3R540
247   249    1
SMALL
USER_CHARGES


@<TRIPOS>ATOM
      1 CA          1.8820  -11.0181  -51.6200 C.3       0 UNK        -0.1800 
      2 C           2.2470  -12.2465  -50.7981 C.2       0 UNK         0.5000 
      3 O           3.2410  -12.9092  -51.0957 O.2       0 UNK        -0.5000 
      4 N           1.4522  -12.5465  -49.7662 N.am      1 UNK        -0.5000 
      5 CA          1.6520  -13.6812  -48.8596 C.3       1 UNK         0.1400 
      6 C6          1.3023  -15.0572  -49.4900 C.3       23 UNK        -0.0398 
      7 S7         -0.4181  -15.1883  -50.1011 S.3       23 UNK        -0.2404 
      8 C8         -0.9050  -16.8285  -49.4822 C.3       23 UNK        -0.0205 
      9 C9         -0.2466  -17.9439  -50.2784 C.ar      23 UNK        -0.0193 
     10 C10        -0.6718  -18.2050  -51.5830 C.ar      23 UNK        -0.1150 
     11 C11        -0.0667  -19.2091  -52.3424 C.ar      23 UNK        -0.0193 
     12 C12         0.9610  -19.9685  -51.7768 C.ar      23 UNK        -0.1150 
     13 C13         1.3738  -19.7405  -50.4612 C.ar      23 UNK        -0.0193 
     14 C14         0.7752  -18.7174  -49.7191 C.ar      23 UNK        -0.1150 
     15 C15         2.4644  -20.6070  -49.8497 C.3       23 UNK        -0.0205 
     16 S16         1.8008  -22.1864  -49.2293 S.3       23 UNK        -0.2404 
     17 C17         0.9959  -21.6412  -47.6884 C.3       23 UNK        -0.0398 
     18 CA          0.4708  -22.8231  -46.8352 C.3       11 UNK         0.1400 
     19 N           0.4918  -22.5094  -45.4029 N.am      11 UNK        -0.5000 
     20 C           0.2548  -23.3891  -44.4200 C.2       10 UNK         0.5000 
     21 O           0.0225  -24.5809  -44.6118 O.2       10 UNK        -0.5000 
     22 CA          0.2136  -22.8401  -42.9832 C.3       10 UNK         0.1400 
     23 CB          1.6315  -22.6529  -42.4242 C.3       10 UNK        -0.1800 
     24 N          -0.5379  -21.5882  -42.8839 N.am      10 UNK        -0.5000 
     25 C          -1.8467  -21.4753  -43.1552 C.2       9 UNK         0.5000 
     26 O          -2.5625  -22.4261  -43.4677 O.2       9 UNK        -0.5000 
     27 CA         -2.4523  -20.0618  -43.1150 C.3       9 UNK         0.1400 
     28 CB         -2.7746  -19.6501  -41.6710 C.3       9 UNK        -0.1800 
     29 N          -1.5899  -19.0566  -43.7362 N.am      9 UNK        -0.5000 
     30 C          -1.2288  -19.0527  -45.0280 C.2       8 UNK         0.5000 
     31 O          -1.6119  -19.8825  -45.8526 O.2       8 UNK        -0.5000 
     32 CA         -0.2165  -17.9763  -45.4567 C.3       8 UNK         0.1400 
     33 CB         -0.8920  -16.6040  -45.5937 C.3       8 UNK        -0.1800 
     34 N           0.9146  -17.8794  -44.5348 N.am      8 UNK        -0.5000 
     35 C           1.7677  -18.8772  -44.2638 C.2       7 UNK         0.5000 
     36 O           1.7317  -19.9773  -44.8128 O.2       7 UNK        -0.5000 
     37 CA          2.7988  -18.6226  -43.1535 C.3       7 UNK         0.1400 
     38 CB          4.0141  -17.8552  -43.6953 C.3       7 UNK        -0.1800 
     39 N           2.2085  -17.8970  -42.0290 N.am      7 UNK        -0.5000 
     40 C           1.3368  -18.4319  -41.1624 C.2       6 UNK         0.5000 
     41 O           0.9657  -19.6048  -41.2040 O.2       6 UNK        -0.5000 
     42 CA          0.7556  -17.4896  -40.0920 C.3       6 UNK         0.1400 
     43 CB          1.7186  -17.3602  -38.9026 C.3       6 UNK        -0.1800 
     44 N           0.4485  -16.1578  -40.6163 N.am      6 UNK        -0.5000 
     45 C          -0.5138  -15.9067  -41.5143 C.2       5 UNK         0.5000 
     46 O          -1.2613  -16.7697  -41.9729 O.2       5 UNK        -0.5000 
     47 CA         -0.6343  -14.4575  -42.0209 C.3       5 UNK         0.1400 
     48 CB         -1.5231  -13.6307  -41.0803 C.3       5 UNK        -0.1800 
     49 N           0.6433  -13.7636  -42.2119 N.am      5 UNK        -0.5000 
     50 C           1.6654  -14.1995  -42.9608 C.2       4 UNK         0.5000 
     51 O           1.6993  -15.3110  -43.4894 O.2       4 UNK        -0.5000 
     52 CA          2.7999  -13.1912  -43.1977 C.3       4 UNK         0.1400 
     53 CB          4.0370  -13.8304  -43.8533 C.3       4 UNK        -0.1800 
     54 N           2.2747  -12.1596  -44.0832 N.am      4 UNK        -0.5000 
     55 C           1.9007  -10.9284  -43.7114 C.2       3 UNK         0.5000 
     56 O           2.0920  -10.4663  -42.5861 O.2       3 UNK        -0.5000 
     57 CA          1.1450  -10.0847  -44.7600 C.3       3 UNK         0.1400 
     58 CB          2.1231   -9.1978  -45.5453 C.3       3 UNK        -0.1800 
     59 N           0.3778  -10.9012  -45.7040 N.am      3 UNK        -0.5000 
     60 C          -0.6607  -11.6840  -45.3769 C.2       2 UNK         0.5000 
     61 O          -1.1754  -11.6980  -44.2587 O.2       2 UNK        -0.5000 
     62 CA         -1.2028  -12.6339  -46.4651 C.3       2 UNK         0.1400 
     63 CB         -2.5445  -12.1200  -47.0085 C.3       2 UNK        -0.1800 
     64 N          -0.2994  -12.8777  -47.5972 N.am      2 UNK        -0.5000 
     65 C           0.9193  -13.4387  -47.5286 C.2       1 UNK         0.5000 
     66 O           1.4800  -13.7204  -46.4708 O.2       1 UNK        -0.5000 
     67 C          -0.9270  -23.2866  -47.2990 C.2       11 UNK         0.5000 
     68 O          -1.0421  -24.2970  -47.9955 O.2       11 UNK        -0.5000 
     69 N          -1.9719  -22.5707  -46.8612 N.am      12 UNK        -0.5000 
     70 CA         -3.3703  -22.9049  -47.1262 C.3       12 UNK         0.1400 
     71 CB         -4.2746  -21.7667  -46.6328 C.3       12 UNK        -0.1800 
     72 C          -3.7997  -24.2543  -46.5220 C.2       12 UNK         0.5000 
     73 O          -4.5765  -24.9742  -47.1474 O.2       12 UNK        -0.5000 
     74 N          -3.2781  -24.5837  -45.3344 N.am      13 UNK        -0.5000 
     75 CA         -3.5240  -25.8503  -44.6525 C.3       13 UNK         0.1400 
     76 CB         -3.1912  -25.7005  -43.1591 C.3       13 UNK        -0.1800 
     77 C          -2.7404  -27.0197  -45.2757 C.2       13 UNK         0.5000 
     78 O          -3.3408  -28.0423  -45.6080 O.2       13 UNK        -0.5000 
     79 N          -1.4144  -26.8672  -45.3897 N.am      14 UNK        -0.5000 
     80 CA         -0.4956  -27.9533  -45.7304 C.3       14 UNK         0.1400 
     81 CB          0.9031  -27.6311  -45.1811 C.3       14 UNK        -0.1800 
     82 C          -0.4199  -28.2474  -47.2358 C.2       14 UNK         0.5000 
     83 O          -0.3948  -29.4186  -47.6170 O.2       14 UNK        -0.5000 
     84 N          -0.3613  -27.1946  -48.0612 N.am      15 UNK        -0.5000 
     85 CA         -0.1663  -27.3019  -49.5100 C.3       15 UNK         0.1400 
     86 CB          0.8701  -26.2535  -49.9522 C.3       15 UNK        -0.1800 
     87 C          -1.4786  -27.1434  -50.2982 C.2       15 UNK         0.5000 
     88 O          -1.4558  -27.2819  -51.5219 O.2       15 UNK        -0.5000 
     89 N          -2.5856  -26.8405  -49.6000 N.am      16 UNK        -0.5000 
     90 CA         -3.9136  -26.5217  -50.1437 C.3       16 UNK         0.1400 
     91 CB         -4.5304  -27.7440  -50.8565 C.3       16 UNK        -0.1800 
     92 C          -3.9037  -25.2484  -51.0200 C.2       16 UNK         0.5000 
     93 O          -4.6709  -25.1486  -51.9798 O.2       16 UNK        -0.5000 
     94 N          -3.0036  -24.3141  -50.6879 N.am      17 UNK        -0.5000 
     95 CA         -2.7542  -23.0797  -51.4251 C.3       17 UNK         0.1400 
     96 CB         -1.2869  -22.6838  -51.1911 C.3       17 UNK        -0.1800 
     97 C          -3.7276  -21.9472  -51.0346 C.2       17 UNK         0.5000 
     98 O          -4.7130  -22.1804  -50.3304 O.2       17 UNK        -0.5000 
     99 N          -3.4088  -20.7308  -51.4991 N.am      18 UNK        -0.5000 
    100 CA        -4.1446  -19.4793  -51.2963 C.3       18 UNK         0.1400 
    101 CB        -4.1419  -19.0865  -49.8011 C.3       18 UNK        -0.1800 
    102 C         -5.5519  -19.4990  -51.9333 C.2       18 UNK         0.5000 
    103 O         -5.7938  -20.2701  -52.8661 O.2       18 UNK        -0.5000 
    104 N         -6.4412  -18.6184  -51.4505 N.am      19 UNK        -0.5000 
    105 CA        -7.7954  -18.3672  -51.9518 C.3       19 UNK         0.1400 
    106 CB        -8.7166  -19.5800  -51.6872 C.3       19 UNK        -0.1800 
    107 C         -7.7642  -17.9057  -53.4232 C.2       19 UNK         0.5000 
    108 O         -7.4145  -16.7532  -53.6818 O.2       19 UNK        -0.5000 
    109 N         -8.1103  -18.8038  -54.3537 N.am      20 UNK        -0.5000 
    110 CA        -8.0478  -18.5705  -55.7959 C.3       20 UNK         0.1400 
    111 CB        -8.9398  -19.6015  -56.5046 C.3       20 UNK        -0.1800 
    112 C         -6.6132  -18.6233  -56.3588 C.2       20 UNK         0.5000 
    113 O         -6.3534  -18.0038  -57.3919 O.2       20 UNK        -0.5000 
    114 N         -5.7107  -19.3611  -55.6961 N.am      21 UNK        -0.5000 
    115 CA        -4.3091  -19.4835  -56.0923 C.3       21 UNK         0.1400 
    116 CB        -3.7177  -20.7708  -55.4956 C.3       21 UNK        -0.1800 
    117 C         -3.4999  -18.2556  -55.6432 C.2       21 UNK         0.5000 
    118 O         -3.7628  -17.7051  -54.5714 O.2       21 UNK        -0.5000 
    119 N         -2.5033  -17.8854  -56.4569 N.am      22 UNK        -0.5000 
    120 CA        -1.5661  -16.7644  -56.2415 C.3       22 UNK         0.1400 
    121 C         -2.2120  -15.3450  -56.3192 C.2       22 UNK         0.5000 
    122 N         -3.4303  -15.1952  -56.8255 N.am      22 UNK        -0.7600 
    123 O         -1.5876  -14.3536  -55.9511 O.2       22 UNK        -0.5000 
    124 C124       -0.6705  -16.9400  -54.9803 C.3       23 UNK        -0.0398 
    125 S125        0.3048  -18.4866  -55.0039 S.3       23 UNK        -0.2404 
    126 C126       -0.5448  -19.5037  -53.7560 C.3       23 UNK        -0.0205 
    127 H127        2.6971  -10.2948  -51.5964 H         1 UNK         0.0600 
    128 H128        0.9829  -10.5295  -51.2436 H         1 UNK         0.0600 
    129 H129        1.7054  -11.3008  -52.6578 H         1 UNK         0.0600 
    130 H130        0.6728  -11.9422  -49.5528 H         1 UNK         0.3000 
    131 H131        2.7144  -13.7041  -48.6058 H         1 UNK         0.0600 
    132 H132        1.9668  -15.2567  -50.3314 H         1 UNK         0.0800 
    133 H133        1.5021  -15.8534  -48.7712 H         1 UNK         0.0800 
    134 H134       -0.6626  -16.9096  -48.4237 H         1 UNK         0.0800 
    135 H135       -1.9887  -16.9238  -49.5569 H         1 UNK         0.0800 
    136 H136       -1.4725  -17.6148  -52.0027 H         1 UNK         0.1150 
    137 H137        1.4255  -20.7567  -52.3528 H         1 UNK         0.1150 
    138 H138        1.1016  -18.5296  -48.7064 H         1 UNK         0.1150 
    139 H139        3.2239  -20.8183  -50.6037 H         1 UNK         0.0800 
    140 H140        2.9760  -20.0760  -49.0455 H         1 UNK         0.0800 
    141 H141        0.2062  -20.9215  -47.9120 H         1 UNK         0.0800 
    142 H142        1.7531  -21.0897  -47.1316 H         1 UNK         0.0800 
    143 H143        1.1492  -23.6693  -46.9660 H         1 UNK         0.0600 
    144 H144        0.7164  -21.5500  -45.1519 H         1 UNK         0.3000 
    145 H145       -0.2955  -23.5804  -42.3627 H         1 UNK         0.0600 
    146 H146        1.6049  -22.3386  -41.3808 H         1 UNK         0.0600 
    147 H147        2.1936  -23.5865  -42.4682 H         1 UNK         0.0600 
    148 H148        2.1929  -21.9058  -42.9845 H         1 UNK         0.0600 
    149 H149       -0.0222  -20.7679  -42.5835 H         1 UNK         0.3000 
    150 H150       -3.3881  -20.0870  -43.6768 H         1 UNK         0.0600 
    151 H151       -3.4203  -20.3853  -41.1891 H         1 UNK         0.0600 
    152 H152       -3.2945  -18.6924  -41.6419 H         1 UNK         0.0600 
    153 H153       -1.8712  -19.5584  -41.0671 H         1 UNK         0.0600 
    154 H154       -1.2614  -18.3089  -43.1311 H         1 UNK         0.3000 
    155 H155        0.1773  -18.2632  -46.4333 H         1 UNK         0.0600 
    156 H156       -1.2735  -16.2447  -44.6391 H         1 UNK         0.0600 
    157 H157       -1.7348  -16.6465  -46.2843 H         1 UNK         0.0600 
    158 H158       -0.1917  -15.8609  -45.9734 H         1 UNK         0.0600 
    159 H159        1.0557  -16.9864  -44.0682 H         1 UNK         0.3000 
    160 H160        3.1482  -19.5910  -42.7895 H         1 UNK         0.0600 
    161 H161        3.7313  -16.8924  -44.1203 H         1 UNK         0.0600 
    162 H162        4.5102  -18.4240  -44.4826 H         1 UNK         0.0600 
    163 H163        4.7498  -17.6744  -42.9116 H         1 UNK         0.0600 
    164 H164        2.3882  -16.9036  -41.9893 H         1 UNK         0.3000 
    165 H165       -0.1741  -17.9337  -39.7297 H         1 UNK         0.0600 
    166 H166        1.2811  -16.7599  -38.1047 H         1 UNK         0.0600 
    167 H167        1.9511  -18.3391  -38.4812 H         1 UNK         0.0600 
    168 H168        2.6615  -16.8959  -39.1944 H         1 UNK         0.0600 
    169 H169        1.0235  -15.3920  -40.2974 H         1 UNK         0.3000 
    170 H170       -1.1229  -14.4942  -42.9962 H         1 UNK         0.0600 
    171 H171       -2.4916  -14.1111  -40.9344 H         1 UNK         0.0600 
    172 H172       -1.0653  -13.5071  -40.0982 H         1 UNK         0.0600 
    173 H173       -1.7135  -12.6386  -41.4906 H         1 UNK         0.0600 
    174 H174        0.6946  -12.8245  -41.8435 H         1 UNK         0.3000 
    175 H175        3.0979  -12.7753  -42.2332 H         1 UNK         0.0600 
    176 H176        3.7995  -14.2738  -44.8214 H         1 UNK         0.0600 
    177 H177        4.8231  -13.0918  -44.0097 H         1 UNK         0.0600 
    178 H178        4.4501  -14.6170  -43.2211 H         1 UNK         0.0600 
    179 H179        2.0126  -12.4906  -45.0074 H         1 UNK         0.3000 
    180 H180        0.4460   -9.4385  -44.2252 H         1 UNK         0.0600 
    181 H181        2.8359   -9.7931  -46.1175 H         1 UNK         0.0600 
    182 H182        2.6953   -8.5576  -44.8725 H         1 UNK         0.0600 
    183 H183        1.5940   -8.5458  -46.2406 H         1 UNK         0.0600 
    184 H184        0.7264  -10.9477  -46.6494 H         1 UNK         0.3000 
    185 H185       -1.3808  -13.5953  -45.9795 H         1 UNK         0.0600 
    186 H186       -3.2597  -11.9592  -46.2007 H         1 UNK         0.0600 
    187 H187       -2.4272  -11.1729  -47.5365 H         1 UNK         0.0600 
    188 H188       -2.9925  -12.8369  -47.6970 H         1 UNK         0.0600 
    189 H189       -0.7031  -12.7292  -48.5100 H         1 UNK         0.3000 
    190 H190       -1.8019  -21.7261  -46.3208 H         1 UNK         0.3000 
    191 H191       -3.4845  -22.9846  -48.2059 H         1 UNK         0.0600 
    192 H192       -4.0093  -20.8212  -47.1057 H         1 UNK         0.0600 
    193 H193       -5.3194  -21.9681  -46.8722 H         1 UNK         0.0600 
    194 H194       -4.2019  -21.6333  -45.5534 H         1 UNK         0.0600 
    195 H195       -2.6997  -23.9058  -44.8491 H         1 UNK         0.3000 
    196 H196       -4.5880  -26.0837  -44.7311 H         1 UNK         0.0600 
    197 H197       -3.3636  -26.6349  -42.6236 H         1 UNK         0.0600 
    198 H198       -3.8159  -24.9383  -42.6931 H         1 UNK         0.0600 
    199 H199       -2.1500  -25.4174  -43.0013 H         1 UNK         0.0600 
    200 H200       -0.9859  -25.9870  -45.1063 H         1 UNK         0.3000 
    201 H201       -0.8399  -28.8632  -45.2334 H         1 UNK         0.0600 
    202 H202        0.8753  -27.4641  -44.1041 H         1 UNK         0.0600 
    203 H203        1.3243  -26.7394  -45.6469 H         1 UNK         0.0600 
    204 H204        1.5944  -28.4544  -45.3654 H         1 UNK         0.0600 
    205 H205       -0.4369  -26.2536  -47.6892 H         1 UNK         0.3000 
    206 H206        0.2378  -28.2840  -49.7637 H         1 UNK         0.0600 
    207 H207        1.8011  -26.3591  -49.3951 H         1 UNK         0.0600 
    208 H208        1.1120  -26.3658  -51.0097 H         1 UNK         0.0600 
    209 H209        0.5103  -25.2351  -49.8106 H         1 UNK         0.0600 
    210 H210       -2.4870  -26.7431  -48.5993 H         1 UNK         0.3000 
    211 H211       -4.5532  -26.2989  -49.2918 H         1 UNK         0.0600 
    212 H212       -4.0039  -27.9876  -51.7795 H         1 UNK         0.0600 
    213 H213       -5.5727  -27.5573  -51.1170 H         1 UNK         0.0600 
    214 H214       -4.5107  -28.6253  -50.2154 H         1 UNK         0.0600 
    215 H215       -2.4275  -24.4714  -49.8711 H         1 UNK         0.3000 
    216 H216       -2.8874  -23.2762  -52.4911 H         1 UNK         0.0600 
    217 H217       -0.9686  -21.9310  -51.9086 H         1 UNK         0.0600 
    218 H218       -0.6169  -23.5350  -51.3139 H         1 UNK         0.0600 
    219 H219       -1.1323  -22.2780  -50.1907 H         1 UNK         0.0600 
    220 H220       -2.5819  -20.6503  -52.0698 H         1 UNK         0.3000 
    221 H221       -3.5878  -18.7161  -51.8402 H         1 UNK         0.0600 
    222 H222       -4.8244  -19.7066  -49.2191 H         1 UNK         0.0600 
    223 H223       -3.1472  -19.1953  -49.3677 H         1 UNK         0.0600 
    224 H224       -4.4375  -18.0466  -49.6609 H         1 UNK         0.0600 
    225 H225       -6.1402  -18.0064  -50.7058 H         1 UNK         0.3000 
    226 H226       -8.1898  -17.5281  -51.3766 H         1 UNK         0.0600 
    227 H227       -8.7843  -19.7871  -50.6191 H         1 UNK         0.0600 
    228 H228       -9.7301  -19.3856  -52.0405 H         1 UNK         0.0600 
    229 H229       -8.3649  -20.4902  -52.1732 H         1 UNK         0.0600 
    230 H230       -8.3522  -19.7369  -54.0531 H         1 UNK         0.3000 
    231 H231       -8.4478  -17.5761  -56.0054 H         1 UNK         0.0600 
    232 H232       -8.5975  -20.6214  -56.3246 H         1 UNK         0.0600 
    233 H233       -8.9406  -19.4412  -57.5836 H         1 UNK         0.0600 
    234 H234       -9.9734  -19.5286  -56.1658 H         1 UNK         0.0600 
    235 H235       -5.9611  -19.7681  -54.8003 H         1 UNK         0.3000 
    236 H236       -4.2588  -19.5629  -57.1806 H         1 UNK         0.0600 
    237 H237       -4.2910  -21.6467  -55.7994 H         1 UNK         0.0600 
    238 H238       -2.6913  -20.9209  -55.8327 H         1 UNK         0.0600 
    239 H239       -3.7019  -20.7434  -54.4067 H         1 UNK         0.0600 
    240 H240       -2.3597  -18.4022  -57.3127 H         1 UNK         0.3000 
    241 H241       -0.8978  -16.7919  -57.1028 H         1 UNK         0.0600 
    242 H242       -3.8329  -14.2730  -56.8831 H         1 UNK         0.3800 
    243 H243       -3.9605  -15.9941  -57.1361 H         1 UNK         0.3800 
    244 H244        0.0471  -16.1214  -54.9079 H         1 UNK         0.0800 
    245 H245       -1.2743  -16.8807  -54.0770 H         1 UNK         0.0800 
    246 H246       -0.3700  -20.5541  -53.9934 H         1 UNK         0.0800 
    247 H247       -1.6213  -19.3568  -53.8213 H         1 UNK         0.0800 
@<TRIPOS>BOND
     1    1    2 1    
     2    1  127 1    
     3    1  128 1    
     4    1  129 1    
     5    2    3 2    
     6    2    4 am   BACKBONE|DICT|INTERRES
     7    4    5 1    
     8    4  130 1    
     9    5    6 1    
    10    5   65 1    
    11    5  131 1    
    12    6    7 1    
    13    6  132 1    
    14    6  133 1    
    15    7    8 1    
    16    8    9 1    
    17    8  134 1    
    18    8  135 1    
    19    9   10 ar   
    20    9   14 ar   
    21   10   11 ar   
    22   10  136 1    
    23   11   12 ar   
    24   11  126 1    
    25   12   13 ar   
    26   12  137 1    
    27   13   14 ar   
    28   13   15 1    
    29   14  138 1    
    30   15   16 1    
    31   15  139 1    
    32   15  140 1    
    33   16   17 1    
    34   17   18 1    
    35   17  141 1    
    36   17  142 1    
    37   18   19 1    
    38   18   67 1    
    39   18  143 1    
    40   19   20 am   BACKBONE|DICT|INTERRES
    41   19  144 1    
    42   20   21 2    
    43   20   22 1    
    44   22   23 1    
    45   22   24 1    
    46   22  145 1    
    47   23  146 1    
    48   23  147 1    
    49   23  148 1    
    50   24   25 am   BACKBONE|DICT|INTERRES
    51   24  149 1    
    52   25   26 2    
    53   25   27 1    
    54   27   28 1    
    55   27   29 1    
    56   27  150 1    
    57   28  151 1    
    58   28  152 1    
    59   28  153 1    
    60   29   30 am   BACKBONE|DICT|INTERRES
    61   29  154 1    
    62   30   31 2    
    63   30   32 1    
    64   32   33 1    
    65   32   34 1    
    66   32  155 1    
    67   33  156 1    
    68   33  157 1    
    69   33  158 1    
    70   34   35 am   BACKBONE|DICT|INTERRES
    71   34  159 1    
    72   35   36 2    
    73   35   37 1    
    74   37   38 1    
    75   37   39 1    
    76   37  160 1    
    77   38  161 1    
    78   38  162 1    
    79   38  163 1    
    80   39   40 am   BACKBONE|DICT|INTERRES
    81   39  164 1    
    82   40   41 2    
    83   40   42 1    
    84   42   43 1    
    85   42   44 1    
    86   42  165 1    
    87   43  166 1    
    88   43  167 1    
    89   43  168 1    
    90   44   45 am   BACKBONE|DICT|INTERRES
    91   44  169 1    
    92   45   46 2    
    93   45   47 1    
    94   47   48 1    
    95   47   49 1    
    96   47  170 1    
    97   48  171 1    
    98   48  172 1    
    99   48  173 1    
   100   49   50 am   BACKBONE|DICT|INTERRES
   101   49  174 1    
   102   50   51 2    
   103   50   52 1    
   104   52   53 1    
   105   52   54 1    
   106   52  175 1    
   107   53  176 1    
   108   53  177 1    
   109   53  178 1    
   110   54   55 am   BACKBONE|DICT|INTERRES
   111   54  179 1    
   112   55   56 2    
   113   55   57 1    
   114   57   58 1    
   115   57   59 1    
   116   57  180 1    
   117   58  181 1    
   118   58  182 1    
   119   58  183 1    
   120   59   60 am   BACKBONE|DICT|INTERRES
   121   59  184 1    
   122   60   61 2    
   123   60   62 1    
   124   62   63 1    
   125   62   64 1    
   126   62  185 1    
   127   63  186 1    
   128   63  187 1    
   129   63  188 1    
   130   64   65 am   BACKBONE|DICT|INTERRES
   131   64  189 1    
   132   65   66 2    
   133   67   68 2    
   134   67   69 am   BACKBONE|DICT|INTERRES
   135   69   70 1    
   136   69  190 1    
   137   70   71 1    
   138   70   72 1    
   139   70  191 1    
   140   71  192 1    
   141   71  193 1    
   142   71  194 1    
   143   72   73 2    
   144   72   74 am   BACKBONE|DICT|INTERRES
   145   74   75 1    
   146   74  195 1    
   147   75   76 1    
   148   75   77 1    
   149   75  196 1    
   150   76  197 1    
   151   76  198 1    
   152   76  199 1    
   153   77   78 2    
   154   77   79 am   BACKBONE|DICT|INTERRES
   155   79   80 1    
   156   79  200 1    
   157   80   81 1    
   158   80   82 1    
   159   80  201 1    
   160   81  202 1    
   161   81  203 1    
   162   81  204 1    
   163   82   83 2    
   164   82   84 am   BACKBONE|DICT|INTERRES
   165   84   85 1    
   166   84  205 1    
   167   85   86 1    
   168   85   87 1    
   169   85  206 1    
   170   86  207 1    
   171   86  208 1    
   172   86  209 1    
   173   87   88 2    
   174   87   89 am   BACKBONE|DICT|INTERRES
   175   89   90 1    
   176   89  210 1    
   177   90   91 1    
   178   90   92 1    
   179   90  211 1    
   180   91  212 1    
   181   91  213 1    
   182   91  214 1    
   183   92   93 2    
   184   92   94 am   BACKBONE|DICT|INTERRES
   185   94   95 1    
   186   94  215 1    
   187   95   96 1    
   188   95   97 1    
   189   95  216 1    
   190   96  217 1    
   191   96  218 1    
   192   96  219 1    
   193   97   98 2    
   194   97   99 am   BACKBONE|DICT|INTERRES
   195   99  100 1    
   196   99  220 1    
   197  100  101 1    
   198  100  102 1    
   199  100  221 1    
   200  101  222 1    
   201  101  223 1    
   202  101  224 1    
   203  102  103 2    
   204  102  104 am   BACKBONE|DICT|INTERRES
   205  104  105 1    
   206  104  225 1    
   207  105  106 1    
   208  105  107 1    
   209  105  226 1    
   210  106  227 1    
   211  106  228 1    
   212  106  229 1    
   213  107  108 2    
   214  107  109 am   BACKBONE|DICT|INTERRES
   215  109  110 1    
   216  109  230 1    
   217  110  111 1    
   218  110  112 1    
   219  110  231 1    
   220  111  232 1    
   221  111  233 1    
   222  111  234 1    
   223  112  113 2    
   224  112  114 am   BACKBONE|DICT|INTERRES
   225  114  115 1    
   226  114  235 1    
   227  115  116 1    
   228  115  117 1    
   229  115  236 1    
   230  116  237 1    
   231  116  238 1    
   232  116  239 1    
   233  117  118 2    
   234  117  119 am   BACKBONE|DICT|INTERRES
   235  119  120 1    
   236  119  240 1    
   237  120  121 1    
   238  120  124 1    
   239  120  241 1    
   240  121  122 am   BACKBONE|DICT|INTERRES
   241  121  123 2    
   242  122  242 1    
   243  122  243 1    
   244  124  125 1    
   245  124  244 1    
   246  124  245 1    
   247  125  126 1    
   248  126  246 1    
   249  126  247 1    
@<TRIPOS>SUBSTRUCTURE
     1 UNK         1 GROUP             0       ****    0 ROOT    
