@<TRIPOS>MOLECULE
3R540
247   249    1
SMALL
USER_CHARGES


@<TRIPOS>ATOM
      1 CA         -0.2316  -10.2628  -43.4861 C.3       0 UNK        -0.1800 
      2 C          -0.4039  -10.7706  -44.9101 C.2       0 UNK         0.5000 
      3 O           0.2833  -11.7090  -45.3061 O.2       0 UNK        -0.5000 
      4 N          -1.3170  -10.1573  -45.6755 N.am      1 UNK        -0.5000 
      5 CA         -1.6322  -10.4752  -47.0749 C.3       1 UNK         0.1400 
      6 C6         -2.3500  -11.8445  -47.2476 C.3       23 UNK        -0.0398 
      7 S7         -4.0171  -11.8243  -46.4997 S.3       23 UNK        -0.2404 
      8 C8         -3.7991  -12.8850  -45.0274 C.3       23 UNK        -0.0205 
      9 C9         -3.7314  -14.3948  -45.2753 C.ar      23 UNK        -0.0193 
     10 C10        -3.7877  -14.9694  -46.5520 C.ar      23 UNK        -0.1150 
     11 C11        -3.6808  -16.3521  -46.7199 C.ar      23 UNK        -0.0193 
     12 C12        -3.5162  -17.1709  -45.6006 C.ar      23 UNK        -0.1150 
     13 C13        -3.4945  -16.6226  -44.3136 C.ar      23 UNK        -0.0193 
     14 C14        -3.6039  -15.2361  -44.1651 C.ar      23 UNK        -0.1150 
     15 C15        -3.3183  -17.4981  -43.0744 C.3       23 UNK        -0.0205 
     16 S16        -4.2533  -19.0653  -43.1446 S.3       23 UNK        -0.2404 
     17 C17        -2.9496  -20.3422  -43.0416 C.3       23 UNK        -0.0398 
     18 CA         -2.9278  -21.2654  -44.2909 C.3       11 UNK         0.1400 
     19 N          -1.9576  -20.8350  -45.3048 N.am      11 UNK        -0.5000 
     20 C          -1.8545  -21.3720  -46.5282 C.2       10 UNK         0.5000 
     21 O          -2.6133  -22.2396  -46.9519 O.2       10 UNK        -0.5000 
     22 CA         -0.6918  -20.9145  -47.4222 C.3       10 UNK         0.1400 
     23 CB         -1.0361  -19.6037  -48.1363 C.3       10 UNK        -0.1800 
     24 N           0.5684  -20.7803  -46.6952 N.am      10 UNK        -0.5000 
     25 C           1.2218  -21.8005  -46.1226 C.2       9 UNK         0.5000 
     26 O           0.8341  -22.9674  -46.1675 O.2       9 UNK        -0.5000 
     27 CA          2.4971  -21.4598  -45.3311 C.3       9 UNK         0.1400 
     28 CB          3.6888  -21.2423  -46.2750 C.3       9 UNK        -0.1800 
     29 N           2.3284  -20.2896  -44.4706 N.am      9 UNK        -0.5000 
     30 C           1.4634  -20.2210  -43.4481 C.2       8 UNK         0.5000 
     31 O           0.7468  -21.1567  -43.0876 O.2       8 UNK        -0.5000 
     32 CA          1.3330  -18.8553  -42.7491 C.3       8 UNK         0.1400 
     33 CB          2.5019  -18.6229  -41.7806 C.3       8 UNK        -0.1800 
     34 N           1.2365  -17.7380  -43.6925 N.am      8 UNK        -0.5000 
     35 C           0.2780  -17.6197  -44.6237 C.2       7 UNK         0.5000 
     36 O          -0.6275  -18.4370  -44.7706 O.2       7 UNK        -0.5000 
     37 CA          0.3715  -16.4263  -45.5864 C.3       7 UNK         0.1400 
     38 CB         -0.0116  -15.1168  -44.8850 C.3       7 UNK        -0.1800 
     39 N           1.7017  -16.2880  -46.1683 N.am      7 UNK        -0.5000 
     40 C           2.3213  -17.2042  -46.9223 C.2       6 UNK         0.5000 
     41 O           1.8128  -18.2658  -47.2769 O.2       6 UNK        -0.5000 
     42 CA          3.7808  -16.9020  -47.2947 C.3       6 UNK         0.1400 
     43 CB          3.8549  -15.9133  -48.4693 C.3       6 UNK        -0.1800 
     44 N           4.5329  -16.3777  -46.1539 N.am      6 UNK        -0.5000 
     45 C           4.8380  -17.0858  -45.0566 C.2       5 UNK         0.5000 
     46 O           4.5403  -18.2704  -44.8989 O.2       5 UNK        -0.5000 
     47 CA          5.5744  -16.3313  -43.9347 C.3       5 UNK         0.1400 
     48 CB          7.0811  -16.2620  -44.2253 C.3       5 UNK        -0.1800 
     49 N           5.0553  -14.9775  -43.7331 N.am      5 UNK        -0.5000 
     50 C           3.8465  -14.7047  -43.2228 C.2       4 UNK         0.5000 
     51 O           3.0512  -15.5669  -42.8501 O.2       4 UNK        -0.5000 
     52 CA          3.4408  -13.2191  -43.1603 C.3       4 UNK         0.1400 
     53 CB          4.0098  -12.5532  -41.8986 C.3       4 UNK        -0.1800 
     54 N           3.8299  -12.4404  -44.3418 N.am      4 UNK        -0.5000 
     55 C           3.4344  -12.7211  -45.5896 C.2       3 UNK         0.5000 
     56 O           2.8041  -13.7352  -45.8949 O.2       3 UNK        -0.5000 
     57 CA          3.8160  -11.7308  -46.6940 C.3       3 UNK         0.1400 
     58 CB          5.1420  -12.1634  -47.3515 C.3       3 UNK        -0.1800 
     59 N           2.7096  -11.7440  -47.6446 N.am      3 UNK        -0.5000 
     60 C           2.5727  -11.0441  -48.7738 C.2       2 UNK         0.5000 
     61 O           3.4050  -10.2444  -49.2031 O.2       2 UNK        -0.5000 
     62 CA          1.2567  -11.2692  -49.5440 C.3       2 UNK         0.1400 
     63 CB          1.3250  -12.5687  -50.3629 C.3       2 UNK        -0.1800 
     64 N           0.0822  -11.3162  -48.6673 N.am      2 UNK        -0.5000 
     65 C          -0.3881  -10.2686  -47.9732 C.2       1 UNK         0.5000 
     66 O           0.1148   -9.1438  -48.0273 O.2       1 UNK        -0.5000 
     67 C          -2.7138  -22.7411  -43.8907 C.2       11 UNK         0.5000 
     68 O          -3.6890  -23.4895  -43.8144 O.2       11 UNK        -0.5000 
     69 N          -1.4517  -23.1456  -43.6831 N.am      12 UNK        -0.5000 
     70 CA         -1.0719  -24.5239  -43.3613 C.3       12 UNK         0.1400 
     71 CB          0.4108  -24.5669  -42.9618 C.3       12 UNK        -0.1800 
     72 C          -1.3612  -25.5158  -44.5060 C.2       12 UNK         0.5000 
     73 O          -1.8181  -26.6293  -44.2459 O.2       12 UNK        -0.5000 
     74 N          -1.1108  -25.0872  -45.7496 N.am      13 UNK        -0.5000 
     75 CA         -1.3321  -25.8666  -46.9695 C.3       13 UNK         0.1400 
     76 CB         -0.3814  -25.3402  -48.0570 C.3       13 UNK        -0.1800 
     77 C          -2.7889  -25.8365  -47.4769 C.2       13 UNK         0.5000 
     78 O          -3.0879  -26.5124  -48.4629 O.2       13 UNK        -0.5000 
     79 N          -3.6528  -25.0231  -46.8509 N.am      14 UNK        -0.5000 
     80 CA         -5.0359  -24.7242  -47.2449 C.3       14 UNK         0.1400 
     81 CB         -5.9375  -25.9617  -47.0554 C.3       14 UNK        -0.1800 
     82 C          -5.1169  -24.1316  -48.6689 C.2       14 UNK         0.5000 
     83 O          -5.9135  -24.5860  -49.4903 O.2       14 UNK        -0.5000 
     84 N          -4.2330  -23.1624  -48.9454 N.am      15 UNK        -0.5000 
     85 CA         -3.9801  -22.5115  -50.2356 C.3       15 UNK         0.1400 
     86 CB         -5.1856  -21.6522  -50.6620 C.3       15 UNK        -0.1800 
     87 C          -3.5292  -23.5071  -51.3254 C.2       15 UNK         0.5000 
     88 O          -3.9060  -23.3578  -52.4902 O.2       15 UNK        -0.5000 
     89 N          -2.7400  -24.5058  -50.8999 N.am      16 UNK        -0.5000 
     90 CA         -2.2821  -25.6813  -51.6465 C.3       16 UNK         0.1400 
     91 CB         -1.3317  -25.2866  -52.7924 C.3       16 UNK        -0.1800 
     92 C          -3.4657  -26.5578  -52.0954 C.2       16 UNK         0.5000 
     93 O          -3.6181  -26.8388  -53.2839 O.2       16 UNK        -0.5000 
     94 N          -4.2933  -26.9477  -51.1150 N.am      17 UNK        -0.5000 
     95 CA         -5.5301  -27.7234  -51.2547 C.3       17 UNK         0.1400 
     96 CB         -5.2192  -29.1721  -51.6851 C.3       17 UNK        -0.1800 
     97 C          -6.5641  -27.0248  -52.1639 C.2       17 UNK         0.5000 
     98 O          -7.0789  -27.6291  -53.1069 O.2       17 UNK        -0.5000 
     99 N          -6.8348  -25.7500  -51.8507 N.am      18 UNK        -0.5000 
    100 CA        -7.7781  -24.8440  -52.5121 C.3       18 UNK         0.1400 
    101 CB        -9.2283  -25.3440  -52.3445 C.3       18 UNK        -0.1800 
    102 C         -7.4172  -24.5172  -53.9776 C.2       18 UNK         0.5000 
    103 O         -8.3088  -24.2388  -54.7814 O.2       18 UNK        -0.5000 
    104 N         -6.1162  -24.5193  -54.2991 N.am      19 UNK        -0.5000 
    105 CA        -5.5852  -24.1367  -55.6109 C.3       19 UNK         0.1400 
    106 CB        -4.2406  -24.8434  -55.8321 C.3       19 UNK        -0.1800 
    107 C         -5.4226  -22.6115  -55.7722 C.2       19 UNK         0.5000 
    108 O         -5.1338  -22.1562  -56.8796 O.2       19 UNK        -0.5000 
    109 N         -5.5972  -21.8596  -54.6738 N.am      20 UNK        -0.5000 
    110 CA        -5.4258  -20.4085  -54.5472 C.3       20 UNK         0.1400 
    111 CB        -6.3982  -19.6380  -55.4657 C.3       20 UNK        -0.1800 
    112 C         -3.9520  -19.9843  -54.7142 C.2       20 UNK         0.5000 
    113 O         -3.6631  -18.9660  -55.3438 O.2       20 UNK        -0.5000 
    114 N         -3.0416  -20.7801  -54.1341 N.am      21 UNK        -0.5000 
    115 CA        -1.5893  -20.5843  -54.2017 C.3       21 UNK         0.1400 
    116 CB        -0.9032  -21.9192  -53.8777 C.3       21 UNK        -0.1800 
    117 C         -1.0455  -19.4572  -53.2956 C.2       21 UNK         0.5000 
    118 O          0.1509  -19.1699  -53.3554 O.2       21 UNK        -0.5000 
    119 N         -1.9080  -18.8563  -52.4650 N.am      22 UNK        -0.5000 
    120 CA        -1.5985  -17.7186  -51.5846 C.3       22 UNK         0.1400 
    121 C         -1.1107  -16.4608  -52.3621 C.2       22 UNK         0.5000 
    122 N         -0.0582  -15.8006  -51.8981 N.am      22 UNK        -0.7600 
    123 O         -1.7019  -16.0617  -53.3629 O.2       22 UNK        -0.5000 
    124 C124       -2.8175  -17.3824  -50.6888 C.3       23 UNK        -0.0398 
    125 S125       -2.3526  -16.5187  -49.1505 S.3       23 UNK        -0.2404 
    126 C126       -3.7773  -16.9600  -48.1097 C.3       23 UNK        -0.0205 
    127 H127       -0.8906   -9.4211  -43.2722 H         1 UNK         0.0600 
    128 H128        0.7974   -9.9406  -43.3260 H         1 UNK         0.0600 
    129 H129       -0.4541  -11.0597  -42.7765 H         1 UNK         0.0600 
    130 H130       -1.8298   -9.3763  -45.2919 H         1 UNK         0.3000 
    131 H131       -2.3336   -9.7051  -47.4001 H         1 UNK         0.0600 
    132 H132       -1.7596  -12.6611  -46.8291 H         1 UNK         0.0800 
    133 H133       -2.4925  -12.0750  -48.3046 H         1 UNK         0.0800 
    134 H134       -2.8983  -12.5711  -44.4984 H         1 UNK         0.0800 
    135 H135       -4.6339  -12.6881  -44.3534 H         1 UNK         0.0800 
    136 H136       -3.9075  -14.3551  -47.4315 H         1 UNK         0.1150 
    137 H137       -3.4137  -18.2390  -45.7298 H         1 UNK         0.1150 
    138 H138       -3.5675  -14.8028  -43.1752 H         1 UNK         0.1150 
    139 H139       -2.2568  -17.6784  -42.9149 H         1 UNK         0.0800 
    140 H140       -3.6609  -16.9582  -42.1905 H         1 UNK         0.0800 
    141 H141       -3.1671  -20.9046  -42.1312 H         1 UNK         0.0800 
    142 H142       -1.9692  -19.8974  -42.8703 H         1 UNK         0.0800 
    143 H143       -3.9112  -21.2304  -44.7655 H         1 UNK         0.0600 
    144 H144       -1.3336  -20.0701  -45.0511 H         1 UNK         0.3000 
    145 H145       -0.5475  -21.6799  -48.1874 H         1 UNK         0.0600 
    146 H146       -1.1675  -18.7842  -47.4296 H         1 UNK         0.0600 
    147 H147       -0.2512  -19.3183  -48.8363 H         1 UNK         0.0600 
    148 H148       -1.9607  -19.7015  -48.7058 H         1 UNK         0.0600 
    149 H149        0.9692  -19.8467  -46.6520 H         1 UNK         0.3000 
    150 H150        2.7252  -22.3133  -44.6894 H         1 UNK         0.0600 
    151 H151        3.8427  -22.1109  -46.9165 H         1 UNK         0.0600 
    152 H152        4.6103  -21.0835  -45.7146 H         1 UNK         0.0600 
    153 H153        3.5394  -20.3774  -46.9217 H         1 UNK         0.0600 
    154 H154        2.8958  -19.4771  -44.6901 H         1 UNK         0.3000 
    155 H155        0.4098  -18.8718  -42.1665 H         1 UNK         0.0600 
    156 H156        2.5936  -19.4473  -41.0725 H         1 UNK         0.0600 
    157 H157        2.3563  -17.7116  -41.2004 H         1 UNK         0.0600 
    158 H158        3.4516  -18.5345  -42.3088 H         1 UNK         0.0600 
    159 H159        1.9378  -17.0081  -43.6070 H         1 UNK         0.3000 
    160 H160       -0.3386  -16.5988  -46.3980 H         1 UNK         0.0600 
    161 H161       -0.1689  -14.3205  -45.6117 H         1 UNK         0.0600 
    162 H162        0.7592  -14.7872  -44.1893 H         1 UNK         0.0600 
    163 H163       -0.9315  -15.2260  -44.3155 H         1 UNK         0.0600 
    164 H164        2.1904  -15.4177  -45.9645 H         1 UNK         0.3000 
    165 H165        4.2484  -17.8381  -47.6072 H         1 UNK         0.0600 
    166 H166        3.3855  -14.9590  -48.2293 H         1 UNK         0.0600 
    167 H167        4.8880  -15.7171  -48.7563 H         1 UNK         0.0600 
    168 H168        3.3450  -16.3147  -49.3458 H         1 UNK         0.0600 
    169 H169        4.7570  -15.3944  -46.1720 H         1 UNK         0.3000 
    170 H170        5.4331  -16.8928  -43.0086 H         1 UNK         0.0600 
    171 H171        7.2932  -15.6885  -45.1285 H         1 UNK         0.0600 
    172 H172        7.6208  -15.7990  -43.3989 H         1 UNK         0.0600 
    173 H173        7.4973  -17.2606  -44.3650 H         1 UNK         0.0600 
    174 H174        5.6431  -14.2093  -44.0213 H         1 UNK         0.3000 
    175 H175        2.3511  -13.1839  -43.0963 H         1 UNK         0.0600 
    176 H176        5.0993  -12.5105  -41.9213 H         1 UNK         0.0600 
    177 H177        3.6351  -11.5355  -41.7869 H         1 UNK         0.0600 
    178 H178        3.7209  -13.1040  -41.0024 H         1 UNK         0.0600 
    179 H179        4.3616  -11.5991  -44.1717 H         1 UNK         0.3000 
    180 H180        3.9101  -10.7286  -46.2724 H         1 UNK         0.0600 
    181 H181        5.0486  -13.1287  -47.8495 H         1 UNK         0.0600 
    182 H182        5.9357  -12.2525  -46.6088 H         1 UNK         0.0600 
    183 H183        5.4810  -11.4383  -48.0906 H         1 UNK         0.0600 
    184 H184        1.9565  -12.3581  -47.3566 H         1 UNK         0.3000 
    185 H185        1.1295  -10.4359  -50.2384 H         1 UNK         0.0600 
    186 H186        0.4310  -12.6971  -50.9734 H         1 UNK         0.0600 
    187 H187        2.1810  -12.5590  -51.0389 H         1 UNK         0.0600 
    188 H188        1.4231  -13.4464  -49.7225 H         1 UNK         0.0600 
    189 H189       -0.3638  -12.2150  -48.5647 H         1 UNK         0.3000 
    190 H190       -0.6988  -22.4664  -43.7376 H         1 UNK         0.3000 
    191 H191       -1.6616  -24.8379  -42.4975 H         1 UNK         0.0600 
    192 H192        1.0583  -24.2382  -43.7749 H         1 UNK         0.0600 
    193 H193        0.6054  -23.9261  -42.1016 H         1 UNK         0.0600 
    194 H194        0.7131  -25.5788  -42.6893 H         1 UNK         0.0600 
    195 H195       -0.6671  -24.1805  -45.8689 H         1 UNK         0.3000 
    196 H196       -1.0782  -26.9102  -46.7733 H         1 UNK         0.0600 
    197 H197        0.6552  -25.3702  -47.7206 H         1 UNK         0.0600 
    198 H198       -0.6130  -24.3097  -48.3294 H         1 UNK         0.0600 
    199 H199       -0.4404  -25.9459  -48.9611 H         1 UNK         0.0600 
    200 H200       -3.2933  -24.4715  -46.0829 H         1 UNK         0.3000 
    201 H201       -5.3891  -23.9465  -46.5663 H         1 UNK         0.0600 
    202 H202       -6.9829  -25.7144  -47.2431 H         1 UNK         0.0600 
    203 H203       -5.8720  -26.3426  -46.0363 H         1 UNK         0.0600 
    204 H204       -5.6674  -26.7715  -47.7337 H         1 UNK         0.0600 
    205 H205       -3.6248  -22.8607  -48.1818 H         1 UNK         0.3000 
    206 H206       -3.1374  -21.8376  -50.0745 H         1 UNK         0.0600 
    207 H207       -5.4947  -20.9822  -49.8598 H         1 UNK         0.0600 
    208 H208       -6.0445  -22.2642  -50.9380 H         1 UNK         0.0600 
    209 H209       -4.9309  -21.0308  -51.5188 H         1 UNK         0.0600 
    210 H210       -2.5453  -24.5342  -49.9102 H         1 UNK         0.3000 
    211 H211       -1.7063  -26.2893  -50.9482 H         1 UNK         0.0600 
    212 H212       -0.4911  -24.6995  -52.4230 H         1 UNK         0.0600 
    213 H213       -0.9213  -26.1717  -53.2794 H         1 UNK         0.0600 
    214 H214       -1.8409  -24.7038  -53.5563 H         1 UNK         0.0600 
    215 H215       -4.0535  -26.6761  -50.1651 H         1 UNK         0.3000 
    216 H216       -5.9771  -27.7656  -50.2604 H         1 UNK         0.0600 
    217 H217       -6.1241  -29.7808  -51.6858 H         1 UNK         0.0600 
    218 H218       -4.7949  -29.2167  -52.6885 H         1 UNK         0.0600 
    219 H219       -4.5128  -29.6425  -51.0011 H         1 UNK         0.0600 
    220 H220       -6.3716  -25.3556  -51.0316 H         1 UNK         0.3000 
    221 H221       -7.7002  -23.8987  -51.9736 H         1 UNK         0.0600 
    222 H222       -9.4107  -26.2569  -52.9119 H         1 UNK         0.0600 
    223 H223       -9.4561  -25.5474  -51.2981 H         1 UNK         0.0600 
    224 H224       -9.9433  -24.5967  -52.6901 H         1 UNK         0.0600 
    225 H225       -5.4319  -24.7380  -53.5854 H         1 UNK         0.3000 
    226 H226       -6.2734  -24.4755  -56.3881 H         1 UNK         0.0600 
    227 H227       -4.3482  -25.9260  -55.7652 H         1 UNK         0.0600 
    228 H228       -3.8340  -24.6186  -56.8188 H         1 UNK         0.0600 
    229 H229       -3.5031  -24.5307  -55.0944 H         1 UNK         0.0600 
    230 H230       -5.7717  -22.3589  -53.8130 H         1 UNK         0.3000 
    231 H231       -5.6984  -20.1578  -53.5222 H         1 UNK         0.0600 
    232 H232       -6.3765  -18.5702  -55.2449 H         1 UNK         0.0600 
    233 H233       -7.4247  -19.9767  -55.3256 H         1 UNK         0.0600 
    234 H234       -6.1467  -19.7547  -56.5200 H         1 UNK         0.0600 
    235 H235       -3.3612  -21.6174  -53.6601 H         1 UNK         0.3000 
    236 H236       -1.3293  -20.3163  -55.2278 H         1 UNK         0.0600 
    237 H237       -1.2151  -22.6952  -54.5762 H         1 UNK         0.0600 
    238 H238        0.1816  -21.8367  -53.9539 H         1 UNK         0.0600 
    239 H239       -1.1368  -22.2544  -52.8669 H         1 UNK         0.0600 
    240 H240       -2.8744  -19.1363  -52.5156 H         1 UNK         0.3000 
    241 H241       -0.7839  -18.0561  -50.9408 H         1 UNK         0.0600 
    242 H242        0.2601  -14.9819  -52.3912 H         1 UNK         0.3800 
    243 H243        0.4268  -16.1029  -51.0685 H         1 UNK         0.3800 
    244 H244       -3.5591  -16.7894  -51.2276 H         1 UNK         0.0800 
    245 H245       -3.3249  -18.3049  -50.4031 H         1 UNK         0.0800 
    246 H246       -3.8542  -18.0464  -48.0444 H         1 UNK         0.0800 
    247 H247       -4.6944  -16.6124  -48.5875 H         1 UNK         0.0800 
@<TRIPOS>BOND
     1    1    2 1    
     2    1  127 1    
     3    1  128 1    
     4    1  129 1    
     5    2    3 2    
     6    2    4 am   BACKBONE|DICT|INTERRES
     7    4    5 1    
     8    4  130 1    
     9    5    6 1    
    10    5   65 1    
    11    5  131 1    
    12    6    7 1    
    13    6  132 1    
    14    6  133 1    
    15    7    8 1    
    16    8    9 1    
    17    8  134 1    
    18    8  135 1    
    19    9   10 ar   
    20    9   14 ar   
    21   10   11 ar   
    22   10  136 1    
    23   11   12 ar   
    24   11  126 1    
    25   12   13 ar   
    26   12  137 1    
    27   13   14 ar   
    28   13   15 1    
    29   14  138 1    
    30   15   16 1    
    31   15  139 1    
    32   15  140 1    
    33   16   17 1    
    34   17   18 1    
    35   17  141 1    
    36   17  142 1    
    37   18   19 1    
    38   18   67 1    
    39   18  143 1    
    40   19   20 am   BACKBONE|DICT|INTERRES
    41   19  144 1    
    42   20   21 2    
    43   20   22 1    
    44   22   23 1    
    45   22   24 1    
    46   22  145 1    
    47   23  146 1    
    48   23  147 1    
    49   23  148 1    
    50   24   25 am   BACKBONE|DICT|INTERRES
    51   24  149 1    
    52   25   26 2    
    53   25   27 1    
    54   27   28 1    
    55   27   29 1    
    56   27  150 1    
    57   28  151 1    
    58   28  152 1    
    59   28  153 1    
    60   29   30 am   BACKBONE|DICT|INTERRES
    61   29  154 1    
    62   30   31 2    
    63   30   32 1    
    64   32   33 1    
    65   32   34 1    
    66   32  155 1    
    67   33  156 1    
    68   33  157 1    
    69   33  158 1    
    70   34   35 am   BACKBONE|DICT|INTERRES
    71   34  159 1    
    72   35   36 2    
    73   35   37 1    
    74   37   38 1    
    75   37   39 1    
    76   37  160 1    
    77   38  161 1    
    78   38  162 1    
    79   38  163 1    
    80   39   40 am   BACKBONE|DICT|INTERRES
    81   39  164 1    
    82   40   41 2    
    83   40   42 1    
    84   42   43 1    
    85   42   44 1    
    86   42  165 1    
    87   43  166 1    
    88   43  167 1    
    89   43  168 1    
    90   44   45 am   BACKBONE|DICT|INTERRES
    91   44  169 1    
    92   45   46 2    
    93   45   47 1    
    94   47   48 1    
    95   47   49 1    
    96   47  170 1    
    97   48  171 1    
    98   48  172 1    
    99   48  173 1    
   100   49   50 am   BACKBONE|DICT|INTERRES
   101   49  174 1    
   102   50   51 2    
   103   50   52 1    
   104   52   53 1    
   105   52   54 1    
   106   52  175 1    
   107   53  176 1    
   108   53  177 1    
   109   53  178 1    
   110   54   55 am   BACKBONE|DICT|INTERRES
   111   54  179 1    
   112   55   56 2    
   113   55   57 1    
   114   57   58 1    
   115   57   59 1    
   116   57  180 1    
   117   58  181 1    
   118   58  182 1    
   119   58  183 1    
   120   59   60 am   BACKBONE|DICT|INTERRES
   121   59  184 1    
   122   60   61 2    
   123   60   62 1    
   124   62   63 1    
   125   62   64 1    
   126   62  185 1    
   127   63  186 1    
   128   63  187 1    
   129   63  188 1    
   130   64   65 am   BACKBONE|DICT|INTERRES
   131   64  189 1    
   132   65   66 2    
   133   67   68 2    
   134   67   69 am   BACKBONE|DICT|INTERRES
   135   69   70 1    
   136   69  190 1    
   137   70   71 1    
   138   70   72 1    
   139   70  191 1    
   140   71  192 1    
   141   71  193 1    
   142   71  194 1    
   143   72   73 2    
   144   72   74 am   BACKBONE|DICT|INTERRES
   145   74   75 1    
   146   74  195 1    
   147   75   76 1    
   148   75   77 1    
   149   75  196 1    
   150   76  197 1    
   151   76  198 1    
   152   76  199 1    
   153   77   78 2    
   154   77   79 am   BACKBONE|DICT|INTERRES
   155   79   80 1    
   156   79  200 1    
   157   80   81 1    
   158   80   82 1    
   159   80  201 1    
   160   81  202 1    
   161   81  203 1    
   162   81  204 1    
   163   82   83 2    
   164   82   84 am   BACKBONE|DICT|INTERRES
   165   84   85 1    
   166   84  205 1    
   167   85   86 1    
   168   85   87 1    
   169   85  206 1    
   170   86  207 1    
   171   86  208 1    
   172   86  209 1    
   173   87   88 2    
   174   87   89 am   BACKBONE|DICT|INTERRES
   175   89   90 1    
   176   89  210 1    
   177   90   91 1    
   178   90   92 1    
   179   90  211 1    
   180   91  212 1    
   181   91  213 1    
   182   91  214 1    
   183   92   93 2    
   184   92   94 am   BACKBONE|DICT|INTERRES
   185   94   95 1    
   186   94  215 1    
   187   95   96 1    
   188   95   97 1    
   189   95  216 1    
   190   96  217 1    
   191   96  218 1    
   192   96  219 1    
   193   97   98 2    
   194   97   99 am   BACKBONE|DICT|INTERRES
   195   99  100 1    
   196   99  220 1    
   197  100  101 1    
   198  100  102 1    
   199  100  221 1    
   200  101  222 1    
   201  101  223 1    
   202  101  224 1    
   203  102  103 2    
   204  102  104 am   BACKBONE|DICT|INTERRES
   205  104  105 1    
   206  104  225 1    
   207  105  106 1    
   208  105  107 1    
   209  105  226 1    
   210  106  227 1    
   211  106  228 1    
   212  106  229 1    
   213  107  108 2    
   214  107  109 am   BACKBONE|DICT|INTERRES
   215  109  110 1    
   216  109  230 1    
   217  110  111 1    
   218  110  112 1    
   219  110  231 1    
   220  111  232 1    
   221  111  233 1    
   222  111  234 1    
   223  112  113 2    
   224  112  114 am   BACKBONE|DICT|INTERRES
   225  114  115 1    
   226  114  235 1    
   227  115  116 1    
   228  115  117 1    
   229  115  236 1    
   230  116  237 1    
   231  116  238 1    
   232  116  239 1    
   233  117  118 2    
   234  117  119 am   BACKBONE|DICT|INTERRES
   235  119  120 1    
   236  119  240 1    
   237  120  121 1    
   238  120  124 1    
   239  120  241 1    
   240  121  122 am   BACKBONE|DICT|INTERRES
   241  121  123 2    
   242  122  242 1    
   243  122  243 1    
   244  124  125 1    
   245  124  244 1    
   246  124  245 1    
   247  125  126 1    
   248  126  246 1    
   249  126  247 1    
@<TRIPOS>SUBSTRUCTURE
     1 UNK         1 GROUP             0       ****    0 ROOT    
