@<TRIPOS>MOLECULE
3R540
247   249    1
SMALL
USER_CHARGES


@<TRIPOS>ATOM
      1 CA         -1.2412  -16.2714  -52.2909 C.3       0 UNK        -0.1800 
      2 C          -0.8698  -15.8563  -50.8747 C.2       0 UNK         0.5000 
      3 O          -0.2505  -16.6348  -50.1492 O.2       0 UNK        -0.5000 
      4 N          -1.2412  -14.6290  -50.4821 N.am      1 UNK        -0.5000 
      5 CA         -1.0688  -14.0665  -49.1341 C.3       1 UNK         0.1400 
      6 C6         -1.7137  -12.6607  -49.0193 C.3       23 UNK        -0.0398 
      7 S7         -2.2292  -12.2422  -47.3174 S.3       23 UNK        -0.2404 
      8 C8         -4.0151  -12.6027  -47.3617 C.3       23 UNK        -0.0205 
      9 C9         -4.2874  -14.0985  -47.3236 C.ar      23 UNK        -0.0193 
     10 C10        -4.3435  -14.8361  -48.5094 C.ar      23 UNK        -0.1150 
     11 C11        -4.5463  -16.2174  -48.4775 C.ar      23 UNK        -0.0193 
     12 C12        -4.7469  -16.8557  -47.2516 C.ar      23 UNK        -0.1150 
     13 C13        -4.7099  -16.1261  -46.0598 C.ar      23 UNK        -0.0193 
     14 C14        -4.4728  -14.7493  -46.1004 C.ar      23 UNK        -0.1150 
     15 C15        -4.9235  -16.8301  -44.7320 C.3       23 UNK        -0.0205 
     16 S16        -3.3403  -17.3542  -44.0017 S.3       23 UNK        -0.2404 
     17 C17        -3.8096  -18.9641  -43.2948 C.3       23 UNK        -0.0398 
     18 CA         -3.4186  -20.1439  -44.2228 C.3       11 UNK         0.1400 
     19 N          -1.9912  -20.4784  -44.1076 N.am      11 UNK        -0.5000 
     20 C          -1.3477  -21.5331  -44.6331 C.2       10 UNK         0.5000 
     21 O          -1.8538  -22.3022  -45.4516 O.2       10 UNK        -0.5000 
     22 CA          0.0633  -21.8463  -44.0921 C.3       10 UNK         0.1400 
     23 CB          1.1548  -21.5938  -45.1398 C.3       10 UNK        -0.1800 
     24 N           0.4169  -21.1441  -42.8571 N.am      10 UNK        -0.5000 
     25 C          -0.1856  -21.2929  -41.6689 C.2       9 UNK         0.5000 
     26 O          -1.1749  -22.0073  -41.4889 O.2       9 UNK        -0.5000 
     27 CA          0.4374  -20.4932  -40.5078 C.3       9 UNK         0.1400 
     28 CB         -0.1442  -20.8631  -39.1274 C.3       9 UNK        -0.1800 
     29 N           1.9032  -20.5742  -40.5124 N.am      9 UNK        -0.5000 
     30 C           2.6606  -21.6723  -40.3436 C.2       8 UNK         0.5000 
     31 O           2.2023  -22.7906  -40.1069 O.2       8 UNK        -0.5000 
     32 CA          4.1921  -21.5152  -40.4792 C.3       8 UNK         0.1400 
     33 CB          4.6779  -22.1594  -41.7880 C.3       8 UNK        -0.1800 
     34 N           4.6514  -20.1261  -40.4515 N.am      8 UNK        -0.5000 
     35 C           4.6300  -19.3189  -39.3824 C.2       7 UNK         0.5000 
     36 O           4.3272  -19.6966  -38.2502 O.2       7 UNK        -0.5000 
     37 CA          4.9737  -17.8321  -39.6207 C.3       7 UNK         0.1400 
     38 CB          6.3850  -17.5190  -39.0997 C.3       7 UNK        -0.1800 
     39 N           4.8757  -17.3829  -41.0173 N.am      7 UNK        -0.5000 
     40 C           3.7750  -17.4177  -41.7818 C.2       6 UNK         0.5000 
     41 O           2.7072  -17.9187  -41.4183 O.2       6 UNK        -0.5000 
     42 CA          3.9260  -16.8533  -43.2092 C.3       6 UNK         0.1400 
     43 CB          4.6346  -17.8750  -44.1122 C.3       6 UNK        -0.1800 
     44 N           2.6407  -16.5114  -43.8170 N.am      6 UNK        -0.5000 
     45 C           1.8062  -15.5565  -43.3837 C.2       5 UNK         0.5000 
     46 O           2.0937  -14.7741  -42.4754 O.2       5 UNK        -0.5000 
     47 CA          0.4273  -15.4423  -44.0706 C.3       5 UNK         0.1400 
     48 CB          0.0561  -13.9779  -44.3602 C.3       5 UNK        -0.1800 
     49 N           0.3110  -16.2207  -45.3079 N.am      5 UNK        -0.5000 
     50 C           0.0406  -17.5317  -45.3521 C.2       4 UNK         0.5000 
     51 O          -0.0308  -18.2423  -44.3491 O.2       4 UNK        -0.5000 
     52 CA         -0.1471  -18.1673  -46.7408 C.3       4 UNK         0.1400 
     53 CB         -1.5529  -17.9075  -47.2922 C.3       4 UNK        -0.1800 
     54 N           0.8428  -17.7408  -47.7280 N.am      4 UNK        -0.5000 
     55 C           2.1498  -18.0319  -47.6717 C.2       3 UNK         0.5000 
     56 O           2.6800  -18.6148  -46.7270 O.2       3 UNK        -0.5000 
     57 CA          3.0051  -17.6126  -48.8780 C.3       3 UNK         0.1400 
     58 CB          2.7894  -18.5695  -50.0612 C.3       3 UNK        -0.1800 
     59 N           2.6833  -16.2518  -49.2959 N.am      3 UNK        -0.5000 
     60 C           3.3377  -15.1600  -48.8785 C.2       2 UNK         0.5000 
     61 O           4.3407  -15.1922  -48.1646 O.2       2 UNK        -0.5000 
     62 CA          2.7762  -13.7940  -49.3232 C.3       2 UNK         0.1400 
     63 CB          3.5017  -13.2992  -50.5838 C.3       2 UNK        -0.1800 
     64 N           1.3333  -13.7980  -49.5758 N.am      2 UNK        -0.5000 
     65 C           0.3962  -14.0580  -48.6530 C.2       1 UNK         0.5000 
     66 O           0.6514  -14.3388  -47.4832 O.2       1 UNK        -0.5000 
     67 C          -4.3568  -21.3392  -43.9504 C.2       11 UNK         0.5000 
     68 O          -5.4093  -21.4203  -44.5831 O.2       11 UNK        -0.5000 
     69 N          -3.9438  -22.2688  -43.0743 N.am      12 UNK        -0.5000 
     70 CA         -4.6437  -23.5220  -42.7750 C.3       12 UNK         0.1400 
     71 CB         -3.8703  -24.2664  -41.6763 C.3       12 UNK        -0.1800 
     72 C          -4.8603  -24.4427  -43.9974 C.2       12 UNK         0.5000 
     73 O          -5.7979  -25.2412  -43.9862 O.2       12 UNK        -0.5000 
     74 N          -4.0115  -24.3065  -45.0251 N.am      13 UNK        -0.5000 
     75 CA         -4.1007  -25.0173  -46.3014 C.3       13 UNK         0.1400 
     76 CB         -2.9125  -25.9918  -46.3958 C.3       13 UNK        -0.1800 
     77 C          -4.1155  -24.0427  -47.4971 C.2       13 UNK         0.5000 
     78 O          -3.9149  -24.4848  -48.6287 O.2       13 UNK        -0.5000 
     79 N          -4.2871  -22.7352  -47.2334 N.am      14 UNK        -0.5000 
     80 CA         -4.1737  -21.6069  -48.1733 C.3       14 UNK         0.1400 
     81 CB         -5.3988  -21.5645  -49.1086 C.3       14 UNK        -0.1800 
     82 C          -2.8335  -21.5725  -48.9479 C.2       14 UNK         0.5000 
     83 O          -2.7942  -21.1142  -50.0893 O.2       14 UNK        -0.5000 
     84 N          -1.7700  -22.0917  -48.3144 N.am      15 UNK        -0.5000 
     85 CA         -0.4438  -22.3670  -48.8743 C.3       15 UNK         0.1400 
     86 CB          0.3756  -21.0692  -49.0329 C.3       15 UNK        -0.1800 
     87 C          -0.4541  -23.2927  -50.1148 C.2       15 UNK         0.5000 
     88 O           0.3739  -23.1362  -51.0146 O.2       15 UNK        -0.5000 
     89 N          -1.3714  -24.2735  -50.1137 N.am      16 UNK        -0.5000 
     90 CA         -1.5112  -25.3720  -51.0734 C.3       16 UNK         0.1400 
     91 CB         -0.3503  -26.3776  -50.9084 C.3       16 UNK        -0.1800 
     92 C          -1.6957  -24.8667  -52.5167 C.2       16 UNK         0.5000 
     93 O          -2.7856  -24.4103  -52.8580 O.2       16 UNK        -0.5000 
     94 N          -0.6328  -24.9237  -53.3317 N.am      17 UNK        -0.5000 
     95 CA         -0.5959  -24.4370  -54.7142 C.3       17 UNK         0.1400 
     96 CB          0.7670  -24.7857  -55.3304 C.3       17 UNK        -0.1800 
     97 C          -0.8808  -22.9276  -54.8532 C.2       17 UNK         0.5000 
     98 O          -1.3685  -22.4973  -55.8994 O.2       17 UNK        -0.5000 
     99 N          -0.6200  -22.1559  -53.7877 N.am      18 UNK        -0.5000 
    100 CA        -0.9330  -20.7298  -53.6954 C.3       18 UNK         0.1400 
    101 CB        -0.2074  -20.1324  -52.4862 C.3       18 UNK        -0.1800 
    102 C         -2.4439  -20.4253  -53.6273 C.2       18 UNK         0.5000 
    103 O         -2.8216  -19.2695  -53.8197 O.2       18 UNK        -0.5000 
    104 N         -3.2971  -21.4421  -53.4188 N.am      19 UNK        -0.5000 
    105 CA        -4.7582  -21.3211  -53.4500 C.3       19 UNK         0.1400 
    106 CB        -5.4024  -22.6642  -53.0832 C.3       19 UNK        -0.1800 
    107 C         -5.3019  -20.8164  -54.8027 C.2       19 UNK         0.5000 
    108 O         -6.3356  -20.1479  -54.8280 O.2       19 UNK        -0.5000 
    109 N         -4.5704  -21.0952  -55.8922 N.am      20 UNK        -0.5000 
    110 CA        -4.8427  -20.5855  -57.2366 C.3       20 UNK         0.1400 
    111 CB        -3.9491  -21.3268  -58.2421 C.3       20 UNK        -0.1800 
    112 C         -4.6465  -19.0604  -57.3604 C.2       20 UNK         0.5000 
    113 O         -5.3436  -18.4276  -58.1543 O.2       20 UNK        -0.5000 
    114 N         -3.7198  -18.4970  -56.5717 N.am      21 UNK        -0.5000 
    115 CA        -3.5068  -17.0542  -56.4501 C.3       21 UNK         0.1400 
    116 CB        -2.0443  -16.7800  -56.0642 C.3       21 UNK        -0.1800 
    117 C         -4.4723  -16.4333  -55.4244 C.2       21 UNK         0.5000 
    118 O         -4.9284  -15.3077  -55.6275 O.2       21 UNK        -0.5000 
    119 N         -4.7699  -17.1823  -54.3534 N.am      22 UNK        -0.5000 
    120 CA        -5.7540  -16.8392  -53.3164 C.3       22 UNK         0.1400 
    121 C         -7.2030  -16.6847  -53.8615 C.2       22 UNK         0.5000 
    122 N         -7.6889  -17.6245  -54.6634 N.am      22 UNK        -0.7600 
    123 O         -7.8833  -15.7061  -53.5659 O.2       22 UNK        -0.5000 
    124 C124       -5.7026  -17.8516  -52.1415 C.3       23 UNK        -0.0398 
    125 S125       -6.1478  -17.0990  -50.5434 S.3       23 UNK        -0.2404 
    126 C126       -4.5103  -17.0193  -49.7654 C.3       23 UNK        -0.0205 
    127 H127       -1.7496  -15.4723  -52.8307 H         1 UNK         0.0600 
    128 H128       -1.9054  -17.1352  -52.2636 H         1 UNK         0.0600 
    129 H129       -0.3463  -16.5443  -52.8499 H         1 UNK         0.0600 
    130 H130       -1.7208  -14.0356  -51.1436 H         1 UNK         0.3000 
    131 H131       -1.6016  -14.7426  -48.4647 H         1 UNK         0.0600 
    132 H132       -2.5906  -12.5897  -49.6631 H         1 UNK         0.0800 
    133 H133       -1.0351  -11.8855  -49.3802 H         1 UNK         0.0800 
    134 H134       -4.4686  -12.1528  -48.2461 H         1 UNK         0.0800 
    135 H135       -4.4886  -12.1217  -46.5044 H         1 UNK         0.0800 
    136 H136       -4.2002  -14.3416  -49.4592 H         1 UNK         0.1150 
    137 H137       -4.9125  -17.9235  -47.2241 H         1 UNK         0.1150 
    138 H138       -4.4271  -14.1861  -45.1789 H         1 UNK         0.1150 
    139 H139       -5.4423  -16.1728  -44.0327 H         1 UNK         0.0800 
    140 H140       -5.5781  -17.6892  -44.8866 H         1 UNK         0.0800 
    141 H141       -4.8814  -18.9421  -43.0864 H         1 UNK         0.0800 
    142 H142       -3.3308  -19.0697  -42.3198 H         1 UNK         0.0800 
    143 H143       -3.5936  -19.8527  -45.2597 H         1 UNK         0.0600 
    144 H144       -1.4416  -19.8531  -43.5327 H         1 UNK         0.3000 
    145 H145        0.0670  -22.9145  -43.8660 H         1 UNK         0.0600 
    146 H146        2.1109  -22.0020  -44.8120 H         1 UNK         0.0600 
    147 H147        0.9107  -22.0729  -46.0867 H         1 UNK         0.0600 
    148 H148        1.3002  -20.5310  -45.3254 H         1 UNK         0.0600 
    149 H149        1.1914  -20.4990  -42.9179 H         1 UNK         0.3000 
    150 H150        0.1922  -19.4466  -40.6953 H         1 UNK         0.0600 
    151 H151       -1.2162  -20.6656  -39.0924 H         1 UNK         0.0600 
    152 H152        0.3201  -20.2765  -38.3348 H         1 UNK         0.0600 
    153 H153       -0.0011  -21.9181  -38.8927 H         1 UNK         0.0600 
    154 H154        2.3723  -19.6986  -40.7288 H         1 UNK         0.3000 
    155 H155        4.6513  -22.0448  -39.6420 H         1 UNK         0.0600 
    156 H156        4.2528  -21.6641  -42.6621 H         1 UNK         0.0600 
    157 H157        4.3929  -23.2113  -41.8368 H         1 UNK         0.0600 
    158 H158        5.7640  -22.1156  -41.8709 H         1 UNK         0.0600 
    159 H159        4.9233  -19.7249  -41.3363 H         1 UNK         0.3000 
    160 H160        4.2583  -17.2456  -39.0407 H         1 UNK         0.0600 
    161 H161        7.1493  -18.0539  -39.6650 H         1 UNK         0.0600 
    162 H162        6.4898  -17.8067  -38.0526 H         1 UNK         0.0600 
    163 H163        6.6029  -16.4527  -39.1637 H         1 UNK         0.0600 
    164 H164        5.7161  -16.9783  -41.4050 H         1 UNK         0.3000 
    165 H165        4.5293  -15.9447  -43.1598 H         1 UNK         0.0600 
    166 H166        4.7788  -17.4778  -45.1175 H         1 UNK         0.0600 
    167 H167        5.6204  -18.1334  -43.7239 H         1 UNK         0.0600 
    168 H168        4.0617  -18.7996  -44.1989 H         1 UNK         0.0600 
    169 H169        2.3110  -17.1275  -44.5466 H         1 UNK         0.3000 
    170 H170       -0.3064  -15.8258  -43.3583 H         1 UNK         0.0600 
    171 H171        0.8052  -13.4895  -44.9838 H         1 UNK         0.0600 
    172 H172       -0.9051  -13.9069  -44.8703 H         1 UNK         0.0600 
    173 H173       -0.0252  -13.4031  -43.4371 H         1 UNK         0.0600 
    174 H174        0.4113  -15.6969  -46.1742 H         1 UNK         0.3000 
    175 H175       -0.0516  -19.2448  -46.6169 H         1 UNK         0.0600 
    176 H176       -1.7518  -16.8411  -47.3969 H         1 UNK         0.0600 
    177 H177       -1.6916  -18.3737  -48.2680 H         1 UNK         0.0600 
    178 H178       -2.3092  -18.3214  -46.6272 H         1 UNK         0.0600 
    179 H179        0.4793  -17.2781  -48.5575 H         1 UNK         0.3000 
    180 H180        4.0554  -17.6776  -48.5856 H         1 UNK         0.0600 
    181 H181        3.4072  -18.2865  -50.9134 H         1 UNK         0.0600 
    182 H182        1.7501  -18.5819  -50.3925 H         1 UNK         0.0600 
    183 H183        3.0620  -19.5895  -49.7887 H         1 UNK         0.0600 
    184 H184        1.8367  -16.1356  -49.8388 H         1 UNK         0.3000 
    185 H185        2.9692  -13.0844  -48.5159 H         1 UNK         0.0600 
    186 H186        3.1768  -12.2956  -50.8587 H         1 UNK         0.0600 
    187 H187        4.5798  -13.2574  -50.4232 H         1 UNK         0.0600 
    188 H188        3.3220  -13.9570  -51.4352 H         1 UNK         0.0600 
    189 H189        1.0374  -13.6081  -50.5222 H         1 UNK         0.3000 
    190 H190       -3.0579  -22.1299  -42.6003 H         1 UNK         0.3000 
    191 H191       -5.6301  -23.2626  -42.3855 H         1 UNK         0.0600 
    192 H192       -4.3737  -25.1940  -41.4006 H         1 UNK         0.0600 
    193 H193       -3.7868  -23.6614  -40.7731 H         1 UNK         0.0600 
    194 H194       -2.8608  -24.5225  -42.0008 H         1 UNK         0.0600 
    195 H195       -3.2589  -23.6284  -44.9542 H         1 UNK         0.3000 
    196 H196       -5.0267  -25.5923  -46.3598 H         1 UNK         0.0600 
    197 H197       -1.9593  -25.4612  -46.3955 H         1 UNK         0.0600 
    198 H198       -2.9081  -26.6882  -45.5573 H         1 UNK         0.0600 
    199 H199       -2.9587  -26.5874  -47.3084 H         1 UNK         0.0600 
    200 H200       -4.4892  -22.4790  -46.2755 H         1 UNK         0.3000 
    201 H201       -4.1905  -20.7002  -47.5676 H         1 UNK         0.0600 
    202 H202       -5.3844  -20.6748  -49.7399 H         1 UNK         0.0600 
    203 H203       -6.3276  -21.5402  -48.5388 H         1 UNK         0.0600 
    204 H204       -5.4315  -22.4336  -49.7658 H         1 UNK         0.0600 
    205 H205       -1.9022  -22.3828  -47.3493 H         1 UNK         0.3000 
    206 H206        0.0706  -22.9641  -48.1208 H         1 UNK         0.0600 
    207 H207        0.7799  -20.7593  -48.0724 H         1 UNK         0.0600 
    208 H208        1.2319  -21.1959  -49.6946 H         1 UNK         0.0600 
    209 H209       -0.2211  -20.2410  -49.4123 H         1 UNK         0.0600 
    210 H210       -2.0868  -24.2564  -49.3934 H         1 UNK         0.3000 
    211 H211       -2.4346  -25.8914  -50.8126 H         1 UNK         0.0600 
    212 H212       -0.4484  -27.2091  -51.6077 H         1 UNK         0.0600 
    213 H213       -0.3480  -26.8027  -49.9046 H         1 UNK         0.0600 
    214 H214        0.6254  -25.9186  -51.0708 H         1 UNK         0.0600 
    215 H215        0.2356  -25.2742  -52.9545 H         1 UNK         0.3000 
    216 H216       -1.3710  -24.9663  -55.2720 H         1 UNK         0.0600 
    217 H217        1.5853  -24.3045  -54.7931 H         1 UNK         0.0600 
    218 H218        0.8206  -24.4606  -56.3703 H         1 UNK         0.0600 
    219 H219        0.9426  -25.8616  -55.3184 H         1 UNK         0.0600 
    220 H220       -0.2381  -22.5894  -52.9531 H         1 UNK         0.3000 
    221 H221       -0.5467  -20.2433  -54.5933 H         1 UNK         0.0600 
    222 H222        0.8605  -20.3500  -52.5065 H         1 UNK         0.0600 
    223 H223       -0.6189  -20.5343  -51.5644 H         1 UNK         0.0600 
    224 H224       -0.3215  -19.0494  -52.4503 H         1 UNK         0.0600 
    225 H225       -2.9278  -22.3709  -53.2466 H         1 UNK         0.3000 
    226 H226       -5.0373  -20.5996  -52.6829 H         1 UNK         0.0600 
    227 H227       -5.1682  -23.4357  -53.8175 H         1 UNK         0.0600 
    228 H228       -5.0591  -23.0127  -52.1091 H         1 UNK         0.0600 
    229 H229       -6.4883  -22.5760  -53.0329 H         1 UNK         0.0600 
    230 H230       -3.7278  -21.6431  -55.7786 H         1 UNK         0.3000 
    231 H231       -5.8850  -20.8057  -57.4767 H         1 UNK         0.0600 
    232 H232       -2.8904  -21.1618  -58.0368 H         1 UNK         0.0600 
    233 H233       -4.1433  -20.9896  -59.2611 H         1 UNK         0.0600 
    234 H234       -4.1316  -22.4012  -58.2151 H         1 UNK         0.0600 
    235 H235       -3.2234  -19.0787  -55.9096 H         1 UNK         0.3000 
    236 H236       -3.6916  -16.5786  -57.4158 H         1 UNK         0.0600 
    237 H237       -1.7857  -17.2207  -55.1017 H         1 UNK         0.0600 
    238 H238       -1.3590  -17.1819  -56.8105 H         1 UNK         0.0600 
    239 H239       -1.8556  -15.7082  -55.9931 H         1 UNK         0.0600 
    240 H240       -4.2793  -18.0626  -54.2394 H         1 UNK         0.3000 
    241 H241       -5.4483  -15.8622  -52.9364 H         1 UNK         0.0600 
    242 H242       -8.6228  -17.5311  -55.0290 H         1 UNK         0.3800 
    243 H243       -7.1562  -18.4699  -54.8558 H         1 UNK         0.3800 
    244 H244       -4.7013  -18.2749  -52.0494 H         1 UNK         0.0800 
    245 H245       -6.3625  -18.7021  -52.3193 H         1 UNK         0.0800 
    246 H246       -4.1465  -18.0303  -49.5728 H         1 UNK         0.0800 
    247 H247       -3.8025  -16.5642  -50.4590 H         1 UNK         0.0800 
@<TRIPOS>BOND
     1    1    2 1    
     2    1  127 1    
     3    1  128 1    
     4    1  129 1    
     5    2    3 2    
     6    2    4 am   BACKBONE|DICT|INTERRES
     7    4    5 1    
     8    4  130 1    
     9    5    6 1    
    10    5   65 1    
    11    5  131 1    
    12    6    7 1    
    13    6  132 1    
    14    6  133 1    
    15    7    8 1    
    16    8    9 1    
    17    8  134 1    
    18    8  135 1    
    19    9   10 ar   
    20    9   14 ar   
    21   10   11 ar   
    22   10  136 1    
    23   11   12 ar   
    24   11  126 1    
    25   12   13 ar   
    26   12  137 1    
    27   13   14 ar   
    28   13   15 1    
    29   14  138 1    
    30   15   16 1    
    31   15  139 1    
    32   15  140 1    
    33   16   17 1    
    34   17   18 1    
    35   17  141 1    
    36   17  142 1    
    37   18   19 1    
    38   18   67 1    
    39   18  143 1    
    40   19   20 am   BACKBONE|DICT|INTERRES
    41   19  144 1    
    42   20   21 2    
    43   20   22 1    
    44   22   23 1    
    45   22   24 1    
    46   22  145 1    
    47   23  146 1    
    48   23  147 1    
    49   23  148 1    
    50   24   25 am   BACKBONE|DICT|INTERRES
    51   24  149 1    
    52   25   26 2    
    53   25   27 1    
    54   27   28 1    
    55   27   29 1    
    56   27  150 1    
    57   28  151 1    
    58   28  152 1    
    59   28  153 1    
    60   29   30 am   BACKBONE|DICT|INTERRES
    61   29  154 1    
    62   30   31 2    
    63   30   32 1    
    64   32   33 1    
    65   32   34 1    
    66   32  155 1    
    67   33  156 1    
    68   33  157 1    
    69   33  158 1    
    70   34   35 am   BACKBONE|DICT|INTERRES
    71   34  159 1    
    72   35   36 2    
    73   35   37 1    
    74   37   38 1    
    75   37   39 1    
    76   37  160 1    
    77   38  161 1    
    78   38  162 1    
    79   38  163 1    
    80   39   40 am   BACKBONE|DICT|INTERRES
    81   39  164 1    
    82   40   41 2    
    83   40   42 1    
    84   42   43 1    
    85   42   44 1    
    86   42  165 1    
    87   43  166 1    
    88   43  167 1    
    89   43  168 1    
    90   44   45 am   BACKBONE|DICT|INTERRES
    91   44  169 1    
    92   45   46 2    
    93   45   47 1    
    94   47   48 1    
    95   47   49 1    
    96   47  170 1    
    97   48  171 1    
    98   48  172 1    
    99   48  173 1    
   100   49   50 am   BACKBONE|DICT|INTERRES
   101   49  174 1    
   102   50   51 2    
   103   50   52 1    
   104   52   53 1    
   105   52   54 1    
   106   52  175 1    
   107   53  176 1    
   108   53  177 1    
   109   53  178 1    
   110   54   55 am   BACKBONE|DICT|INTERRES
   111   54  179 1    
   112   55   56 2    
   113   55   57 1    
   114   57   58 1    
   115   57   59 1    
   116   57  180 1    
   117   58  181 1    
   118   58  182 1    
   119   58  183 1    
   120   59   60 am   BACKBONE|DICT|INTERRES
   121   59  184 1    
   122   60   61 2    
   123   60   62 1    
   124   62   63 1    
   125   62   64 1    
   126   62  185 1    
   127   63  186 1    
   128   63  187 1    
   129   63  188 1    
   130   64   65 am   BACKBONE|DICT|INTERRES
   131   64  189 1    
   132   65   66 2    
   133   67   68 2    
   134   67   69 am   BACKBONE|DICT|INTERRES
   135   69   70 1    
   136   69  190 1    
   137   70   71 1    
   138   70   72 1    
   139   70  191 1    
   140   71  192 1    
   141   71  193 1    
   142   71  194 1    
   143   72   73 2    
   144   72   74 am   BACKBONE|DICT|INTERRES
   145   74   75 1    
   146   74  195 1    
   147   75   76 1    
   148   75   77 1    
   149   75  196 1    
   150   76  197 1    
   151   76  198 1    
   152   76  199 1    
   153   77   78 2    
   154   77   79 am   BACKBONE|DICT|INTERRES
   155   79   80 1    
   156   79  200 1    
   157   80   81 1    
   158   80   82 1    
   159   80  201 1    
   160   81  202 1    
   161   81  203 1    
   162   81  204 1    
   163   82   83 2    
   164   82   84 am   BACKBONE|DICT|INTERRES
   165   84   85 1    
   166   84  205 1    
   167   85   86 1    
   168   85   87 1    
   169   85  206 1    
   170   86  207 1    
   171   86  208 1    
   172   86  209 1    
   173   87   88 2    
   174   87   89 am   BACKBONE|DICT|INTERRES
   175   89   90 1    
   176   89  210 1    
   177   90   91 1    
   178   90   92 1    
   179   90  211 1    
   180   91  212 1    
   181   91  213 1    
   182   91  214 1    
   183   92   93 2    
   184   92   94 am   BACKBONE|DICT|INTERRES
   185   94   95 1    
   186   94  215 1    
   187   95   96 1    
   188   95   97 1    
   189   95  216 1    
   190   96  217 1    
   191   96  218 1    
   192   96  219 1    
   193   97   98 2    
   194   97   99 am   BACKBONE|DICT|INTERRES
   195   99  100 1    
   196   99  220 1    
   197  100  101 1    
   198  100  102 1    
   199  100  221 1    
   200  101  222 1    
   201  101  223 1    
   202  101  224 1    
   203  102  103 2    
   204  102  104 am   BACKBONE|DICT|INTERRES
   205  104  105 1    
   206  104  225 1    
   207  105  106 1    
   208  105  107 1    
   209  105  226 1    
   210  106  227 1    
   211  106  228 1    
   212  106  229 1    
   213  107  108 2    
   214  107  109 am   BACKBONE|DICT|INTERRES
   215  109  110 1    
   216  109  230 1    
   217  110  111 1    
   218  110  112 1    
   219  110  231 1    
   220  111  232 1    
   221  111  233 1    
   222  111  234 1    
   223  112  113 2    
   224  112  114 am   BACKBONE|DICT|INTERRES
   225  114  115 1    
   226  114  235 1    
   227  115  116 1    
   228  115  117 1    
   229  115  236 1    
   230  116  237 1    
   231  116  238 1    
   232  116  239 1    
   233  117  118 2    
   234  117  119 am   BACKBONE|DICT|INTERRES
   235  119  120 1    
   236  119  240 1    
   237  120  121 1    
   238  120  124 1    
   239  120  241 1    
   240  121  122 am   BACKBONE|DICT|INTERRES
   241  121  123 2    
   242  122  242 1    
   243  122  243 1    
   244  124  125 1    
   245  124  244 1    
   246  124  245 1    
   247  125  126 1    
   248  126  246 1    
   249  126  247 1    
@<TRIPOS>SUBSTRUCTURE
     1 UNK         1 GROUP             0       ****    0 ROOT    
