@<TRIPOS>MOLECULE
3R540
247   249    1
SMALL
USER_CHARGES


@<TRIPOS>ATOM
      1 CA          4.0539  -12.0571  -51.1979 C.3       0 UNK        -0.1800 
      2 C           3.7270  -13.2109  -50.2616 C.2       0 UNK         0.5000 
      3 O           2.5548  -13.4429  -49.9671 O.2       0 UNK        -0.5000 
      4 N           4.7583  -13.9268  -49.7929 N.am      1 UNK        -0.5000 
      5 CA          4.7376  -15.0969  -48.8974 C.3       1 UNK         0.1400 
      6 C6          3.9251  -16.3099  -49.4244 C.3       23 UNK        -0.0398 
      7 S7          4.3975  -16.8793  -51.0976 S.3       23 UNK        -0.2404 
      8 C8          2.9608  -16.4048  -52.1218 C.3       23 UNK        -0.0205 
      9 C9          1.6801  -17.1170  -51.7060 C.ar      23 UNK        -0.0193 
     10 C10         1.4011  -18.4095  -52.1613 C.ar      23 UNK        -0.1150 
     11 C11         0.2336  -19.0675  -51.7588 C.ar      23 UNK        -0.0193 
     12 C12        -0.6469  -18.4261  -50.8816 C.ar      23 UNK        -0.1150 
     13 C13        -0.3854  -17.1304  -50.4301 C.ar      23 UNK        -0.0193 
     14 C14         0.7680  -16.4763  -50.8637 C.ar      23 UNK        -0.1150 
     15 C15        -1.3385  -16.4274  -49.4756 C.3       23 UNK        -0.0205 
     16 S16        -1.1511  -17.0291  -47.7651 S.3       23 UNK        -0.2404 
     17 C17        -2.3016  -18.4447  -47.7509 C.3       23 UNK        -0.0398 
     18 CA         -1.5946  -19.8066  -47.5503 C.3       11 UNK         0.1400 
     19 N          -1.0700  -19.9778  -46.1878 N.am      11 UNK        -0.5000 
     20 C          -0.4494  -21.0767  -45.7288 C.2       10 UNK         0.5000 
     21 O          -0.1839  -22.0453  -46.4398 O.2       10 UNK        -0.5000 
     22 CA         -0.0994  -21.1571  -44.2293 C.3       10 UNK         0.1400 
     23 CB          1.4230  -21.1497  -44.0271 C.3       10 UNK        -0.1800 
     24 N          -0.7142  -20.1191  -43.3996 N.am      10 UNK        -0.5000 
     25 C          -2.0257  -20.0093  -43.1426 C.2       9 UNK         0.5000 
     26 O          -2.8757  -20.7795  -43.5922 O.2       9 UNK        -0.5000 
     27 CA         -2.4607  -18.8109  -42.2763 C.3       9 UNK         0.1400 
     28 CB         -2.3464  -19.1440  -40.7814 C.3       9 UNK        -0.1800 
     29 N          -1.6870  -17.6027  -42.5708 N.am      9 UNK        -0.5000 
     30 C          -1.7637  -16.9246  -43.7249 C.2       8 UNK         0.5000 
     31 O          -2.5665  -17.1985  -44.6153 O.2       8 UNK        -0.5000 
     32 CA         -0.7548  -15.7794  -43.9371 C.3       8 UNK         0.1400 
     33 CB         -1.2605  -14.4798  -43.2931 C.3       8 UNK        -0.1800 
     34 N           0.5737  -16.1016  -43.4145 N.am      8 UNK        -0.5000 
     35 C           1.3711  -17.0657  -43.8966 C.2       7 UNK         0.5000 
     36 O           1.1083  -17.7338  -44.8945 O.2       7 UNK        -0.5000 
     37 CA          2.6564  -17.3664  -43.1036 C.3       7 UNK         0.1400 
     38 CB          3.8206  -16.4796  -43.5640 C.3       7 UNK        -0.1800 
     39 N           2.4637  -17.2125  -41.6625 N.am      7 UNK        -0.5000 
     40 C           1.7644  -18.0659  -40.9023 C.2       6 UNK         0.5000 
     41 O           1.2337  -19.0874  -41.3363 O.2       6 UNK        -0.5000 
     42 CA          1.5941  -17.6880  -39.4194 C.3       6 UNK         0.1400 
     43 CB          2.8243  -18.1161  -38.6056 C.3       6 UNK        -0.1800 
     44 N           1.3623  -16.2545  -39.2329 N.am      6 UNK        -0.5000 
     45 C           0.2622  -15.6095  -39.6457 C.2       5 UNK         0.5000 
     46 O          -0.6936  -16.1692  -40.1821 O.2       5 UNK        -0.5000 
     47 CA          0.2504  -14.0774  -39.4784 C.3       5 UNK         0.1400 
     48 CB         -0.2991  -13.6915  -38.0972 C.3       5 UNK        -0.1800 
     49 N           1.5631  -13.4505  -39.6720 N.am      5 UNK        -0.5000 
     50 C           2.2805  -13.5132  -40.8013 C.2       4 UNK         0.5000 
     51 O           1.9257  -14.1422  -41.8023 O.2       4 UNK        -0.5000 
     52 CA          3.6351  -12.7922  -40.7986 C.3       4 UNK         0.1400 
     53 CB          4.6623  -13.5493  -39.9381 C.3       4 UNK        -0.1800 
     54 N           4.1168  -12.7154  -42.1720 N.am      4 UNK        -0.5000 
     55 C           4.9140  -11.7728  -42.6837 C.2       3 UNK         0.5000 
     56 O           5.3755  -10.8407  -42.0236 O.2       3 UNK        -0.5000 
     57 CA          5.2696  -11.8890  -44.1812 C.3       3 UNK         0.1400 
     58 CB          6.7325  -12.3272  -44.3524 C.3       3 UNK        -0.1800 
     59 N           4.4186  -12.8235  -44.9229 N.am      3 UNK        -0.5000 
     60 C           3.1539  -12.5991  -45.2965 C.2       2 UNK         0.5000 
     61 O           2.5550  -11.5490  -45.0594 O.2       2 UNK        -0.5000 
     62 CA          2.4598  -13.7419  -46.0692 C.3       2 UNK         0.1400 
     63 CB          0.9913  -13.4285  -46.4048 C.3       2 UNK        -0.1800 
     64 N           3.1460  -14.0909  -47.3129 N.am      2 UNK        -0.5000 
     65 C           4.2968  -14.7592  -47.4552 C.2       1 UNK         0.5000 
     66 O           4.9975  -15.1152  -46.5074 O.2       1 UNK        -0.5000 
     67 C          -2.5582  -20.9421  -47.9535 C.2       11 UNK         0.5000 
     68 O          -2.4546  -21.4496  -49.0685 O.2       11 UNK        -0.5000 
     69 N          -3.4470  -21.3445  -47.0321 N.am      12 UNK        -0.5000 
     70 CA         -4.4101  -22.4278  -47.2384 C.3       12 UNK         0.1400 
     71 CB         -5.4465  -22.4099  -46.1060 C.3       12 UNK        -0.1800 
     72 C          -3.7414  -23.8101  -47.3384 C.2       12 UNK         0.5000 
     73 O          -4.1747  -24.6378  -48.1412 O.2       12 UNK        -0.5000 
     74 N          -2.6819  -24.0228  -46.5456 N.am      13 UNK        -0.5000 
     75 CA         -1.8650  -25.2356  -46.5672 C.3       13 UNK         0.1400 
     76 CB         -0.9676  -25.2826  -45.3208 C.3       13 UNK        -0.1800 
     77 C          -1.0339  -25.3341  -47.8572 C.2       13 UNK         0.5000 
     78 O          -1.0005  -26.3966  -48.4771 O.2       13 UNK        -0.5000 
     79 N          -0.4325  -24.2097  -48.2701 N.am      14 UNK        -0.5000 
     80 CA          0.3060  -24.0603  -49.5253 C.3       14 UNK         0.1400 
     81 CB          1.0168  -22.6988  -49.5326 C.3       14 UNK        -0.1800 
     82 C          -0.5835  -24.2349  -50.7728 C.2       14 UNK         0.5000 
     83 O          -0.1221  -24.7835  -51.7737 O.2       14 UNK        -0.5000 
     84 N          -1.8521  -23.8130  -50.6750 N.am      15 UNK        -0.5000 
     85 CA         -2.8902  -24.0352  -51.6831 C.3       15 UNK         0.1400 
     86 CB         -4.0883  -23.1174  -51.3860 C.3       15 UNK        -0.1800 
     87 C          -3.3998  -25.4881  -51.7347 C.2       15 UNK         0.5000 
     88 O          -4.1333  -25.8228  -52.6636 O.2       15 UNK        -0.5000 
     89 N          -3.0921  -26.2955  -50.7070 N.am      16 UNK        -0.5000 
     90 CA         -3.6497  -27.6264  -50.4351 C.3       16 UNK         0.1400 
     91 CB         -3.1517  -28.6509  -51.4752 C.3       16 UNK        -0.1800 
     92 C          -5.1895  -27.5959  -50.2993 C.2       16 UNK         0.5000 
     93 O          -5.8745  -28.5071  -50.7661 O.2       16 UNK        -0.5000 
     94 N          -5.6966  -26.5104  -49.6936 N.am      17 UNK        -0.5000 
     95 CA         -7.1038  -26.1448  -49.5018 C.3       17 UNK         0.1400 
     96 CB         -7.8236  -27.1787  -48.6117 C.3       17 UNK        -0.1800 
     97 C          -7.8878  -25.8438  -50.8012 C.2       17 UNK         0.5000 
     98 O          -9.1050  -25.6665  -50.7322 O.2       17 UNK        -0.5000 
     99 N          -7.2077  -25.7598  -51.9559 N.am      18 UNK        -0.5000 
    100 CA        -7.8305  -25.4846  -53.2562 C.3       18 UNK         0.1400 
    101 CB        -6.9331  -26.0355  -54.3750 C.3       18 UNK        -0.1800 
    102 C         -8.1202  -23.9890  -53.4938 C.2       18 UNK         0.5000 
    103 O         -8.9109  -23.6688  -54.3821 O.2       18 UNK        -0.5000 
    104 N         -7.4769  -23.1114  -52.7079 N.am      19 UNK        -0.5000 
    105 CA        -7.5121  -21.6480  -52.7854 C.3       19 UNK         0.1400 
    106 CB        -8.9045  -21.1084  -52.3886 C.3       19 UNK        -0.1800 
    107 C         -6.9960  -21.1392  -54.1480 C.2       19 UNK         0.5000 
    108 O         -5.7963  -21.2511  -54.4070 O.2       19 UNK        -0.5000 
    109 N         -7.8915  -20.5895  -54.9822 N.am      20 UNK        -0.5000 
    110 CA        -7.6256  -19.9972  -56.2971 C.3       20 UNK         0.1400 
    111 CB        -7.2003  -21.0858  -57.3092 C.3       20 UNK        -0.1800 
    112 C         -6.6440  -18.8124  -56.1793 C.2       20 UNK         0.5000 
    113 O         -6.9077  -17.8972  -55.3963 O.2       20 UNK        -0.5000 
    114 N         -5.5217  -18.8531  -56.9112 N.am      21 UNK        -0.5000 
    115 CA        -4.4514  -17.8494  -56.8753 C.3       21 UNK         0.1400 
    116 CB        -3.4115  -18.1912  -57.9534 C.3       21 UNK        -0.1800 
    117 C         -3.7717  -17.7049  -55.4967 C.2       21 UNK         0.5000 
    118 O         -3.2514  -16.6321  -55.1888 O.2       21 UNK        -0.5000 
    119 N         -3.8139  -18.7727  -54.6920 N.am      22 UNK        -0.5000 
    120 CA        -3.3740  -18.7994  -53.2908 C.3       22 UNK         0.1400 
    121 C         -4.4835  -18.3745  -52.2806 C.2       22 UNK         0.5000 
    122 N         -5.6901  -18.0121  -52.7030 N.am      22 UNK        -0.7600 
    123 O         -4.2412  -18.3561  -51.0777 O.2       22 UNK        -0.5000 
    124 C124       -2.7815  -20.1843  -52.9316 C.3       23 UNK        -0.0398 
    125 S125       -1.1583  -20.4846  -53.7080 S.3       23 UNK        -0.2404 
    126 C126       -0.0617  -20.4772  -52.2529 C.3       23 UNK        -0.0205 
    127 H127        5.1264  -11.9649  -51.3708 H         1 UNK         0.0600 
    128 H128        3.6949  -11.1186  -50.7756 H         1 UNK         0.0600 
    129 H129        3.5659  -12.2078  -52.1609 H         1 UNK         0.0600 
    130 H130        5.6874  -13.6484  -50.0760 H         1 UNK         0.3000 
    131 H131        5.7787  -15.4170  -48.8296 H         1 UNK         0.0600 
    132 H132        4.0615  -17.1614  -48.7554 H         1 UNK         0.0800 
    133 H133        2.8623  -16.0880  -49.3874 H         1 UNK         0.0800 
    134 H134        2.8244  -15.3240  -52.0819 H         1 UNK         0.0800 
    135 H135        3.1825  -16.6396  -53.1638 H         1 UNK         0.0800 
    136 H136        2.0971  -18.9046  -52.8239 H         1 UNK         0.1150 
    137 H137       -1.5382  -18.9331  -50.5464 H         1 UNK         0.1150 
    138 H138        0.9684  -15.4703  -50.5233 H         1 UNK         0.1150 
    139 H139       -1.1444  -15.3537  -49.4793 H         1 UNK         0.0800 
    140 H140       -2.3677  -16.5416  -49.8189 H         1 UNK         0.0800 
    141 H141       -2.8725  -18.4382  -48.6806 H         1 UNK         0.0800 
    142 H142       -3.0395  -18.2804  -46.9647 H         1 UNK         0.0800 
    143 H143       -0.7418  -19.8574  -48.2301 H         1 UNK         0.0600 
    144 H144       -1.2104  -19.2034  -45.5534 H         1 UNK         0.3000 
    145 H145       -0.4738  -22.1188  -43.8728 H         1 UNK         0.0600 
    146 H146        1.6853  -21.2511  -42.9740 H         1 UNK         0.0600 
    147 H147        1.8900  -21.9809  -44.5571 H         1 UNK         0.0600 
    148 H148        1.8741  -20.2327  -44.4029 H         1 UNK         0.0600 
    149 H149       -0.0793  -19.4711  -42.9479 H         1 UNK         0.3000 
    150 H150       -3.5101  -18.6046  -42.4972 H         1 UNK         0.0600 
    151 H151       -2.7080  -18.3200  -40.1660 H         1 UNK         0.0600 
    152 H152       -2.9412  -20.0233  -40.5312 H         1 UNK         0.0600 
    153 H153       -1.3166  -19.3505  -40.4899 H         1 UNK         0.0600 
    154 H154       -1.0613  -17.2683  -41.8455 H         1 UNK         0.3000 
    155 H155       -0.6578  -15.6133  -45.0116 H         1 UNK         0.0600 
    156 H156       -1.4753  -14.6116  -42.2333 H         1 UNK         0.0600 
    157 H157       -2.1809  -14.1443  -43.7723 H         1 UNK         0.0600 
    158 H158       -0.5306  -13.6758  -43.3861 H         1 UNK         0.0600 
    159 H159        0.9049  -15.5472  -42.6308 H         1 UNK         0.3000 
    160 H160        2.9343  -18.4037  -43.2995 H         1 UNK         0.0600 
    161 H161        3.6128  -15.4212  -43.4161 H         1 UNK         0.0600 
    162 H162        4.0188  -16.6346  -44.6242 H         1 UNK         0.0600 
    163 H163        4.7377  -16.7194  -43.0260 H         1 UNK         0.0600 
    164 H164        2.8165  -16.3650  -41.2440 H         1 UNK         0.3000 
    165 H165        0.7253  -18.2273  -39.0359 H         1 UNK         0.0600 
    166 H166        2.6810  -17.9204  -37.5428 H         1 UNK         0.0600 
    167 H167        3.0116  -19.1851  -38.7158 H         1 UNK         0.0600 
    168 H168        3.7245  -17.5900  -38.9258 H         1 UNK         0.0600 
    169 H169        2.1000  -15.7214  -38.7971 H         1 UNK         0.3000 
    170 H170       -0.4222  -13.6710  -40.2360 H         1 UNK         0.0600 
    171 H171       -1.2858  -14.1273  -37.9338 H         1 UNK         0.0600 
    172 H172        0.3507  -14.0390  -37.2930 H         1 UNK         0.0600 
    173 H173       -0.4038  -12.6106  -38.0019 H         1 UNK         0.0600 
    174 H174        1.9261  -12.9228  -38.8912 H         1 UNK         0.3000 
    175 H175        3.4856  -11.7856  -40.4028 H         1 UNK         0.0600 
    176 H176        4.8214  -14.5648  -40.3032 H         1 UNK         0.0600 
    177 H177        5.6267  -13.0410  -39.9384 H         1 UNK         0.0600 
    178 H178        4.3363  -13.6186  -38.8998 H         1 UNK         0.0600 
    179 H179        3.7123  -13.4042  -42.7913 H         1 UNK         0.3000 
    180 H180        5.1561  -10.8960  -44.6211 H         1 UNK         0.0600 
    181 H181        6.9040  -13.3219  -43.9388 H         1 UNK         0.0600 
    182 H182        7.4109  -11.6389  -43.8465 H         1 UNK         0.0600 
    183 H183        7.0175  -12.3479  -45.4045 H         1 UNK         0.0600 
    184 H184        4.8447  -13.6978  -45.2181 H         1 UNK         0.3000 
    185 H185        2.4658  -14.6180  -45.4199 H         1 UNK         0.0600 
    186 H186        0.4270  -13.1752  -45.5076 H         1 UNK         0.0600 
    187 H187        0.9079  -12.5875  -47.0943 H         1 UNK         0.0600 
    188 H188        0.5013  -14.2872  -46.8647 H         1 UNK         0.0600 
    189 H189        2.6851  -13.8027  -48.1734 H         1 UNK         0.3000 
    190 H190       -3.4443  -20.9027  -46.1224 H         1 UNK         0.3000 
    191 H191       -4.9312  -22.2444  -48.1806 H         1 UNK         0.0600 
    192 H192       -5.9880  -21.4641  -46.0829 H         1 UNK         0.0600 
    193 H193       -6.1838  -23.2029  -46.2381 H         1 UNK         0.0600 
    194 H194       -4.9799  -22.5526  -45.1302 H         1 UNK         0.0600 
    195 H195       -2.3679  -23.2722  -45.9490 H         1 UNK         0.3000 
    196 H196       -2.5349  -26.0976  -46.5336 H         1 UNK         0.0600 
    197 H197       -0.3864  -26.2052  -45.2968 H         1 UNK         0.0600 
    198 H198       -1.5605  -25.2487  -44.4067 H         1 UNK         0.0600 
    199 H199       -0.2616  -24.4526  -45.2933 H         1 UNK         0.0600 
    200 H200       -0.4759  -23.3873  -47.6715 H         1 UNK         0.3000 
    201 H201        1.0689  -24.8407  -49.5574 H         1 UNK         0.0600 
    202 H202        1.7435  -22.6330  -48.7227 H         1 UNK         0.0600 
    203 H203        0.3121  -21.8768  -49.4083 H         1 UNK         0.0600 
    204 H204        1.5557  -22.5396  -50.4672 H         1 UNK         0.0600 
    205 H205       -2.1258  -23.2843  -49.8533 H         1 UNK         0.3000 
    206 H206       -2.4828  -23.7753  -52.6623 H         1 UNK         0.0600 
    207 H207       -3.7829  -22.0998  -51.1637 H         1 UNK         0.0600 
    208 H208       -4.7515  -23.0728  -52.2490 H         1 UNK         0.0600 
    209 H209       -4.6719  -23.4698  -50.5352 H         1 UNK         0.0600 
    210 H210       -2.4794  -25.9334  -49.9867 H         1 UNK         0.3000 
    211 H211       -3.2631  -27.9277  -49.4606 H         1 UNK         0.0600 
    212 H212       -3.5500  -28.4473  -52.4696 H         1 UNK         0.0600 
    213 H213       -3.4546  -29.6624  -51.2028 H         1 UNK         0.0600 
    214 H214       -2.0638  -28.6454  -51.5419 H         1 UNK         0.0600 
    215 H215       -5.0347  -25.8396  -49.3075 H         1 UNK         0.3000 
    216 H216       -7.0829  -25.2037  -48.9503 H         1 UNK         0.0600 
    217 H217       -8.8158  -26.8277  -48.3260 H         1 UNK         0.0600 
    218 H218       -7.2691  -27.3597  -47.6908 H         1 UNK         0.0600 
    219 H219       -7.9516  -28.1341  -49.1208 H         1 UNK         0.0600 
    220 H220       -6.2090  -25.9307  -51.9605 H         1 UNK         0.3000 
    221 H221       -8.7838  -26.0153  -53.3048 H         1 UNK         0.0600 
    222 H222       -6.0031  -25.4730  -54.4597 H         1 UNK         0.0600 
    223 H223       -6.6805  -27.0823  -54.2040 H         1 UNK         0.0600 
    224 H224       -7.4362  -25.9751  -55.3408 H         1 UNK         0.0600 
    225 H225       -6.8419  -23.4964  -52.0257 H         1 UNK         0.3000 
    226 H226       -6.8009  -21.2830  -52.0425 H         1 UNK         0.0600 
    227 H227       -9.1669  -21.4235  -51.3786 H         1 UNK         0.0600 
    228 H228       -8.9186  -20.0177  -52.3965 H         1 UNK         0.0600 
    229 H229       -9.6941  -21.4570  -53.0547 H         1 UNK         0.0600 
    230 H230       -8.8502  -20.5377  -54.6691 H         1 UNK         0.3000 
    231 H231       -8.5699  -19.5754  -56.6438 H         1 UNK         0.0600 
    232 H232       -6.2494  -21.5500  -57.0459 H         1 UNK         0.0600 
    233 H233       -7.1059  -20.6746  -58.3150 H         1 UNK         0.0600 
    234 H234       -7.9468  -21.8788  -57.3590 H         1 UNK         0.0600 
    235 H235       -5.3712  -19.6495  -57.5133 H         1 UNK         0.3000 
    236 H236       -4.8954  -16.8827  -57.1218 H         1 UNK         0.0600 
    237 H237       -3.8624  -18.2120  -58.9457 H         1 UNK         0.0600 
    238 H238       -2.6134  -17.4479  -57.9761 H         1 UNK         0.0600 
    239 H239       -2.9497  -19.1626  -57.7720 H         1 UNK         0.0600 
    240 H240       -4.2956  -19.6033  -55.0119 H         1 UNK         0.3000 
    241 H241       -2.5806  -18.0610  -53.1605 H         1 UNK         0.0600 
    242 H242       -5.9270  -17.9834  -53.6888 H         1 UNK         0.3800 
    243 H243       -6.3740  -17.7233  -52.0226 H         1 UNK         0.3800 
    244 H244       -2.6760  -20.3002  -51.8542 H         1 UNK         0.0800 
    245 H245       -3.4584  -20.9776  -53.2473 H         1 UNK         0.0800 
    246 H246       -0.5110  -21.0703  -51.4561 H         1 UNK         0.0800 
    247 H247        0.8693  -20.9814  -52.5157 H         1 UNK         0.0800 
@<TRIPOS>BOND
     1    1    2 1    
     2    1  127 1    
     3    1  128 1    
     4    1  129 1    
     5    2    3 2    
     6    2    4 am   BACKBONE|DICT|INTERRES
     7    4    5 1    
     8    4  130 1    
     9    5    6 1    
    10    5   65 1    
    11    5  131 1    
    12    6    7 1    
    13    6  132 1    
    14    6  133 1    
    15    7    8 1    
    16    8    9 1    
    17    8  134 1    
    18    8  135 1    
    19    9   10 ar   
    20    9   14 ar   
    21   10   11 ar   
    22   10  136 1    
    23   11   12 ar   
    24   11  126 1    
    25   12   13 ar   
    26   12  137 1    
    27   13   14 ar   
    28   13   15 1    
    29   14  138 1    
    30   15   16 1    
    31   15  139 1    
    32   15  140 1    
    33   16   17 1    
    34   17   18 1    
    35   17  141 1    
    36   17  142 1    
    37   18   19 1    
    38   18   67 1    
    39   18  143 1    
    40   19   20 am   BACKBONE|DICT|INTERRES
    41   19  144 1    
    42   20   21 2    
    43   20   22 1    
    44   22   23 1    
    45   22   24 1    
    46   22  145 1    
    47   23  146 1    
    48   23  147 1    
    49   23  148 1    
    50   24   25 am   BACKBONE|DICT|INTERRES
    51   24  149 1    
    52   25   26 2    
    53   25   27 1    
    54   27   28 1    
    55   27   29 1    
    56   27  150 1    
    57   28  151 1    
    58   28  152 1    
    59   28  153 1    
    60   29   30 am   BACKBONE|DICT|INTERRES
    61   29  154 1    
    62   30   31 2    
    63   30   32 1    
    64   32   33 1    
    65   32   34 1    
    66   32  155 1    
    67   33  156 1    
    68   33  157 1    
    69   33  158 1    
    70   34   35 am   BACKBONE|DICT|INTERRES
    71   34  159 1    
    72   35   36 2    
    73   35   37 1    
    74   37   38 1    
    75   37   39 1    
    76   37  160 1    
    77   38  161 1    
    78   38  162 1    
    79   38  163 1    
    80   39   40 am   BACKBONE|DICT|INTERRES
    81   39  164 1    
    82   40   41 2    
    83   40   42 1    
    84   42   43 1    
    85   42   44 1    
    86   42  165 1    
    87   43  166 1    
    88   43  167 1    
    89   43  168 1    
    90   44   45 am   BACKBONE|DICT|INTERRES
    91   44  169 1    
    92   45   46 2    
    93   45   47 1    
    94   47   48 1    
    95   47   49 1    
    96   47  170 1    
    97   48  171 1    
    98   48  172 1    
    99   48  173 1    
   100   49   50 am   BACKBONE|DICT|INTERRES
   101   49  174 1    
   102   50   51 2    
   103   50   52 1    
   104   52   53 1    
   105   52   54 1    
   106   52  175 1    
   107   53  176 1    
   108   53  177 1    
   109   53  178 1    
   110   54   55 am   BACKBONE|DICT|INTERRES
   111   54  179 1    
   112   55   56 2    
   113   55   57 1    
   114   57   58 1    
   115   57   59 1    
   116   57  180 1    
   117   58  181 1    
   118   58  182 1    
   119   58  183 1    
   120   59   60 am   BACKBONE|DICT|INTERRES
   121   59  184 1    
   122   60   61 2    
   123   60   62 1    
   124   62   63 1    
   125   62   64 1    
   126   62  185 1    
   127   63  186 1    
   128   63  187 1    
   129   63  188 1    
   130   64   65 am   BACKBONE|DICT|INTERRES
   131   64  189 1    
   132   65   66 2    
   133   67   68 2    
   134   67   69 am   BACKBONE|DICT|INTERRES
   135   69   70 1    
   136   69  190 1    
   137   70   71 1    
   138   70   72 1    
   139   70  191 1    
   140   71  192 1    
   141   71  193 1    
   142   71  194 1    
   143   72   73 2    
   144   72   74 am   BACKBONE|DICT|INTERRES
   145   74   75 1    
   146   74  195 1    
   147   75   76 1    
   148   75   77 1    
   149   75  196 1    
   150   76  197 1    
   151   76  198 1    
   152   76  199 1    
   153   77   78 2    
   154   77   79 am   BACKBONE|DICT|INTERRES
   155   79   80 1    
   156   79  200 1    
   157   80   81 1    
   158   80   82 1    
   159   80  201 1    
   160   81  202 1    
   161   81  203 1    
   162   81  204 1    
   163   82   83 2    
   164   82   84 am   BACKBONE|DICT|INTERRES
   165   84   85 1    
   166   84  205 1    
   167   85   86 1    
   168   85   87 1    
   169   85  206 1    
   170   86  207 1    
   171   86  208 1    
   172   86  209 1    
   173   87   88 2    
   174   87   89 am   BACKBONE|DICT|INTERRES
   175   89   90 1    
   176   89  210 1    
   177   90   91 1    
   178   90   92 1    
   179   90  211 1    
   180   91  212 1    
   181   91  213 1    
   182   91  214 1    
   183   92   93 2    
   184   92   94 am   BACKBONE|DICT|INTERRES
   185   94   95 1    
   186   94  215 1    
   187   95   96 1    
   188   95   97 1    
   189   95  216 1    
   190   96  217 1    
   191   96  218 1    
   192   96  219 1    
   193   97   98 2    
   194   97   99 am   BACKBONE|DICT|INTERRES
   195   99  100 1    
   196   99  220 1    
   197  100  101 1    
   198  100  102 1    
   199  100  221 1    
   200  101  222 1    
   201  101  223 1    
   202  101  224 1    
   203  102  103 2    
   204  102  104 am   BACKBONE|DICT|INTERRES
   205  104  105 1    
   206  104  225 1    
   207  105  106 1    
   208  105  107 1    
   209  105  226 1    
   210  106  227 1    
   211  106  228 1    
   212  106  229 1    
   213  107  108 2    
   214  107  109 am   BACKBONE|DICT|INTERRES
   215  109  110 1    
   216  109  230 1    
   217  110  111 1    
   218  110  112 1    
   219  110  231 1    
   220  111  232 1    
   221  111  233 1    
   222  111  234 1    
   223  112  113 2    
   224  112  114 am   BACKBONE|DICT|INTERRES
   225  114  115 1    
   226  114  235 1    
   227  115  116 1    
   228  115  117 1    
   229  115  236 1    
   230  116  237 1    
   231  116  238 1    
   232  116  239 1    
   233  117  118 2    
   234  117  119 am   BACKBONE|DICT|INTERRES
   235  119  120 1    
   236  119  240 1    
   237  120  121 1    
   238  120  124 1    
   239  120  241 1    
   240  121  122 am   BACKBONE|DICT|INTERRES
   241  121  123 2    
   242  122  242 1    
   243  122  243 1    
   244  124  125 1    
   245  124  244 1    
   246  124  245 1    
   247  125  126 1    
   248  126  246 1    
   249  126  247 1    
@<TRIPOS>SUBSTRUCTURE
     1 UNK         1 GROUP             0       ****    0 ROOT    
