@<TRIPOS>MOLECULE
3R540
247   249    1
SMALL
USER_CHARGES


@<TRIPOS>ATOM
      1 CA          3.0725  -11.4054  -45.7858 C.3       0 UNK        -0.1800 
      2 C           3.4983  -12.4471  -46.8104 C.2       0 UNK         0.5000 
      3 O           4.6941  -12.6458  -47.0242 O.2       0 UNK        -0.5000 
      4 N           2.5216  -13.1111  -47.4411 N.am      1 UNK        -0.5000 
      5 CA          2.7232  -14.1994  -48.4062 C.3       1 UNK         0.1400 
      6 C6          1.4203  -14.5553  -49.1605 C.3       23 UNK        -0.0398 
      7 S7          0.7796  -13.1675  -50.1607 S.3       23 UNK        -0.2404 
      8 C8         -1.0220  -13.4235  -50.0570 C.3       23 UNK        -0.0205 
      9 C9         -1.4617  -14.6825  -50.7912 C.ar      23 UNK        -0.0193 
     10 C10        -1.8084  -14.6344  -52.1468 C.ar      23 UNK        -0.1150 
     11 C11        -2.2012  -15.7980  -52.8180 C.ar      23 UNK        -0.0193 
     12 C12        -2.2337  -17.0122  -52.1291 C.ar      23 UNK        -0.1150 
     13 C13        -1.9002  -17.0680  -50.7759 C.ar      23 UNK        -0.0193 
     14 C14        -1.5255  -15.9007  -50.1095 C.ar      23 UNK        -0.1150 
     15 C15        -1.9323  -18.3912  -50.0391 C.3       23 UNK        -0.0205 
     16 S16        -0.2633  -19.1150  -49.9605 S.3       23 UNK        -0.2404 
     17 C17         0.0239  -19.1261  -48.1624 C.3       23 UNK        -0.0398 
     18 CA         -0.2604  -20.4994  -47.5080 C.3       11 UNK         0.1400 
     19 N           0.1684  -20.5089  -46.1105 N.am      11 UNK        -0.5000 
     20 C           0.3402  -21.6075  -45.3649 C.2       10 UNK         0.5000 
     21 O           0.1921  -22.7523  -45.7892 O.2       10 UNK        -0.5000 
     22 CA          0.7048  -21.3806  -43.8857 C.3       10 UNK         0.1400 
     23 CB          2.2288  -21.3820  -43.6950 C.3       10 UNK        -0.1800 
     24 N           0.1379  -20.1393  -43.3464 N.am      10 UNK        -0.5000 
     25 C          -1.1724  -19.9655  -43.1239 C.2       9 UNK         0.5000 
     26 O          -2.0257  -20.8167  -43.3784 O.2       9 UNK        -0.5000 
     27 CA         -1.6038  -18.6020  -42.5520 C.3       9 UNK         0.1400 
     28 CB         -1.1682  -18.4768  -41.0837 C.3       9 UNK        -0.1800 
     29 N          -1.1490  -17.4303  -43.3177 N.am      9 UNK        -0.5000 
     30 C          -1.3777  -17.2326  -44.6269 C.2       8 UNK         0.5000 
     31 O          -1.8454  -18.0970  -45.3651 O.2       8 UNK        -0.5000 
     32 CA         -1.0367  -15.8583  -45.2347 C.3       8 UNK         0.1400 
     33 CB         -2.1397  -15.3749  -46.1933 C.3       8 UNK        -0.1800 
     34 N          -0.8172  -14.8296  -44.2168 N.am      8 UNK        -0.5000 
     35 C           0.2670  -14.0498  -44.1430 C.2       7 UNK         0.5000 
     36 O           1.2360  -14.1503  -44.8943 O.2       7 UNK        -0.5000 
     37 CA          0.3079  -13.0003  -43.0180 C.3       7 UNK         0.1400 
     38 CB         -0.3435  -11.6928  -43.4908 C.3       7 UNK        -0.1800 
     39 N          -0.3070  -13.4150  -41.7536 N.am      7 UNK        -0.5000 
     40 C          -0.0283  -14.5339  -41.0742 C.2       6 UNK         0.5000 
     41 O           0.7137  -15.4323  -41.4951 O.2       6 UNK        -0.5000 
     42 CA         -0.7069  -14.6783  -39.7028 C.3       6 UNK         0.1400 
     43 CB         -2.2348  -14.8192  -39.8249 C.3       6 UNK        -0.1800 
     44 N          -0.1345  -15.8589  -39.0794 N.am      6 UNK        -0.5000 
     45 C           0.0790  -16.0684  -37.7788 C.2       5 UNK         0.5000 
     46 O          -0.3745  -15.3589  -36.8802 O.2       5 UNK        -0.5000 
     47 CA          0.9945  -17.2637  -37.4361 C.3       5 UNK         0.1400 
     48 CB          0.1528  -18.5044  -37.1006 C.3       5 UNK        -0.1800 
     49 N           1.9312  -17.6014  -38.5181 N.am      5 UNK        -0.5000 
     50 C           2.9179  -16.8054  -38.9592 C.2       4 UNK         0.5000 
     51 O           3.1971  -15.7247  -38.4363 O.2       4 UNK        -0.5000 
     52 CA          3.7097  -17.2671  -40.1983 C.3       4 UNK         0.1400 
     53 CB          3.2096  -18.5871  -40.8218 C.3       4 UNK        -0.1800 
     54 N           3.6461  -16.2248  -41.2203 N.am      4 UNK        -0.5000 
     55 C           4.6311  -15.3674  -41.5168 C.2       3 UNK         0.5000 
     56 O           5.7180  -15.3412  -40.9354 O.2       3 UNK        -0.5000 
     57 CA          4.3524  -14.4086  -42.6976 C.3       3 UNK         0.1400 
     58 CB          5.5839  -13.5769  -43.1112 C.3       3 UNK        -0.1800 
     59 N           3.7900  -15.1037  -43.8629 N.am      3 UNK        -0.5000 
     60 C           4.3214  -16.1526  -44.5146 C.2       2 UNK         0.5000 
     61 O           5.4229  -16.6438  -44.2681 O.2       2 UNK        -0.5000 
     62 CA          3.4593  -16.7665  -45.6261 C.3       2 UNK         0.1400 
     63 CB          2.3080  -17.5713  -45.0028 C.3       2 UNK        -0.1800 
     64 N           2.9146  -15.7180  -46.4851 N.am      2 UNK        -0.5000 
     65 C           3.3120  -15.4615  -47.7379 C.2       1 UNK         0.5000 
     66 O           4.1128  -16.1588  -48.3621 O.2       1 UNK        -0.5000 
     67 C          -1.7381  -20.9307  -47.6313 C.2       11 UNK         0.5000 
     68 O          -2.0646  -21.7528  -48.4886 O.2       11 UNK        -0.5000 
     69 N          -2.5966  -20.3979  -46.7513 N.am      12 UNK        -0.5000 
     70 CA         -4.0108  -20.7490  -46.6410 C.3       12 UNK         0.1400 
     71 CB         -4.7057  -19.7849  -45.6684 C.3       12 UNK        -0.1800 
     72 C          -4.2155  -22.2116  -46.2118 C.2       12 UNK         0.5000 
     73 O          -5.0565  -22.8971  -46.7929 O.2       12 UNK        -0.5000 
     74 N          -3.4032  -22.6833  -45.2539 N.am      13 UNK        -0.5000 
     75 CA         -3.3663  -24.0792  -44.8062 C.3       13 UNK         0.1400 
     76 CB         -2.4369  -24.2017  -43.5898 C.3       13 UNK        -0.1800 
     77 C          -2.9411  -25.0612  -45.9174 C.2       13 UNK         0.5000 
     78 O          -3.4597  -26.1763  -45.9752 O.2       13 UNK        -0.5000 
     79 N          -2.0384  -24.6139  -46.8003 N.am      14 UNK        -0.5000 
     80 CA         -1.5953  -25.3330  -47.9959 C.3       14 UNK         0.1400 
     81 CB         -0.1860  -24.8430  -48.3689 C.3       14 UNK        -0.1800 
     82 C          -2.5539  -25.1808  -49.1962 C.2       14 UNK         0.5000 
     83 O          -2.2704  -25.7429  -50.2546 O.2       14 UNK        -0.5000 
     84 N          -3.6386  -24.4049  -49.0429 N.am      15 UNK        -0.5000 
     85 CA         -4.6428  -24.0688  -50.0584 C.3       15 UNK         0.1400 
     86 CB         -5.4923  -25.3068  -50.4126 C.3       15 UNK        -0.1800 
     87 C          -4.0292  -23.3865  -51.2982 C.2       15 UNK         0.5000 
     88 O          -4.3626  -23.7428  -52.4300 O.2       15 UNK        -0.5000 
     89 N          -3.1104  -22.4392  -51.0574 N.am      16 UNK        -0.5000 
     90 CA         -2.3083  -21.7267  -52.0577 C.3       16 UNK         0.1400 
     91 CB         -3.2006  -20.8414  -52.9572 C.3       16 UNK        -0.1800 
     92 C          -1.3917  -22.6788  -52.8518 C.2       16 UNK         0.5000 
     93 O          -1.2934  -22.5660  -54.0725 O.2       16 UNK        -0.5000 
     94 N          -0.7728  -23.6318  -52.1373 N.am      17 UNK        -0.5000 
     95 CA          0.0193  -24.7516  -52.6632 C.3       17 UNK         0.1400 
     96 CB          1.3259  -24.2505  -53.3127 C.3       17 UNK        -0.1800 
     97 C          -0.8213  -25.6560  -53.5903 C.2       17 UNK         0.5000 
     98 O          -0.3917  -26.0021  -54.6919 O.2       17 UNK        -0.5000 
     99 N          -2.0316  -25.9817  -53.1156 N.am      18 UNK        -0.5000 
    100 CA        -3.0901  -26.7581  -53.7668 C.3       18 UNK         0.1400 
    101 CB        -2.6275  -28.2076  -54.0217 C.3       18 UNK        -0.1800 
    102 C         -3.7018  -26.1046  -55.0271 C.2       18 UNK         0.5000 
    103 O         -4.4385  -26.7789  -55.7494 O.2       18 UNK        -0.5000 
    104 N         -3.4249  -24.8151  -55.2743 N.am      19 UNK        -0.5000 
    105 CA        -4.0000  -24.0559  -56.3882 C.3       19 UNK         0.1400 
    106 CB        -3.1488  -22.8080  -56.6652 C.3       19 UNK        -0.1800 
    107 C         -5.4668  -23.6549  -56.1446 C.2       19 UNK         0.5000 
    108 O         -6.2090  -23.5200  -57.1173 O.2       19 UNK        -0.5000 
    109 N         -5.8414  -23.4905  -54.8647 N.am      20 UNK        -0.5000 
    110 CA        -7.1346  -23.0543  -54.3322 C.3       20 UNK         0.1400 
    111 CB        -8.2674  -24.0213  -54.7277 C.3       20 UNK        -0.1800 
    112 C         -7.4611  -21.5956  -54.7070 C.2       20 UNK         0.5000 
    113 O         -7.7650  -21.3053  -55.8653 O.2       20 UNK        -0.5000 
    114 N         -7.3902  -20.6980  -53.7116 N.am      21 UNK        -0.5000 
    115 CA        -7.7257  -19.2672  -53.7935 C.3       21 UNK         0.1400 
    116 CB        -9.2529  -19.0847  -53.9183 C.3       21 UNK        -0.1800 
    117 C         -6.9386  -18.5203  -54.8932 C.2       21 UNK         0.5000 
    118 O         -7.5186  -17.7630  -55.6735 O.2       21 UNK        -0.5000 
    119 N         -5.6278  -18.7892  -54.9397 N.am      22 UNK        -0.5000 
    120 CA        -4.6581  -18.2996  -55.9377 C.3       22 UNK         0.1400 
    121 C         -4.7703  -18.9774  -57.3384 C.2       22 UNK         0.5000 
    122 N         -5.6279  -19.9700  -57.5465 N.am      22 UNK        -0.7600 
    123 O         -4.0362  -18.6177  -58.2546 O.2       22 UNK        -0.5000 
    124 C124       -4.5770  -16.7459  -56.0530 C.3       23 UNK        -0.0398 
    125 S125       -4.4094  -15.8945  -54.4460 S.3       23 UNK        -0.2404 
    126 C126       -2.6022  -15.7667  -54.2831 C.3       23 UNK        -0.0205 
    127 H127        3.6784  -10.5049  -45.8856 H         1 UNK         0.0600 
    128 H128        3.2017  -11.7977  -44.7771 H         1 UNK         0.0600 
    129 H129        2.0270  -11.1246  -45.9128 H         1 UNK         0.0600 
    130 H130        1.5609  -12.9057  -47.2081 H         1 UNK         0.3000 
    131 H131        3.4552  -13.8571  -49.1410 H         1 UNK         0.0600 
    132 H132        0.6592  -14.8685  -48.4450 H         1 UNK         0.0800 
    133 H133        1.5790  -15.3998  -49.8343 H         1 UNK         0.0800 
    134 H134       -1.5245  -12.5548  -50.4849 H         1 UNK         0.0800 
    135 H135       -1.3288  -13.4640  -49.0108 H         1 UNK         0.0800 
    136 H136       -1.7725  -13.6930  -52.6771 H         1 UNK         0.1150 
    137 H137       -2.5292  -17.9123  -52.6486 H         1 UNK         0.1150 
    138 H138       -1.2662  -15.9492  -49.0630 H         1 UNK         0.1150 
    139 H139       -2.3549  -18.2453  -49.0442 H         1 UNK         0.0800 
    140 H140       -2.6023  -19.0893  -50.5404 H         1 UNK         0.0800 
    141 H141       -0.5431  -18.3280  -47.6825 H         1 UNK         0.0800 
    142 H142        1.0734  -18.8679  -48.0152 H         1 UNK         0.0800 
    143 H143        0.3364  -21.2469  -48.0359 H         1 UNK         0.0600 
    144 H144        0.2400  -19.6138  -45.6525 H         1 UNK         0.3000 
    145 H145        0.2959  -22.2149  -43.3119 H         1 UNK         0.0600 
    146 H146        2.5003  -21.1991  -42.6551 H         1 UNK         0.0600 
    147 H147        2.6497  -22.3489  -43.9738 H         1 UNK         0.0600 
    148 H148        2.7185  -20.6294  -44.3115 H         1 UNK         0.0600 
    149 H149        0.7789  -19.3960  -43.1158 H         1 UNK         0.3000 
    150 H150       -2.6956  -18.5896  -42.5729 H         1 UNK         0.0600 
    151 H151       -1.3777  -19.3922  -40.5283 H         1 UNK         0.0600 
    152 H152       -1.7087  -17.6778  -40.5819 H         1 UNK         0.0600 
    153 H153       -0.1027  -18.2738  -40.9925 H         1 UNK         0.0600 
    154 H154       -0.6914  -16.6960  -42.7943 H         1 UNK         0.3000 
    155 H155       -0.1330  -16.0134  -45.8262 H         1 UNK         0.0600 
    156 H156       -3.0780  -15.1992  -45.6662 H         1 UNK         0.0600 
    157 H157       -2.3389  -16.1058  -46.9775 H         1 UNK         0.0600 
    158 H158       -1.8525  -14.4448  -46.6836 H         1 UNK         0.0600 
    159 H159       -1.5628  -14.6846  -43.5508 H         1 UNK         0.3000 
    160 H160        1.3596  -12.7957  -42.8111 H         1 UNK         0.0600 
    161 H161       -1.4148  -11.8140  -43.6560 H         1 UNK         0.0600 
    162 H162        0.0951  -11.3502  -44.4285 H         1 UNK         0.0600 
    163 H163       -0.2042  -10.8955  -42.7604 H         1 UNK         0.0600 
    164 H164       -0.9404  -12.7480  -41.3365 H         1 UNK         0.3000 
    165 H165       -0.4620  -13.7991  -39.1034 H         1 UNK         0.0600 
    166 H166       -2.6862  -15.0835  -38.8684 H         1 UNK         0.0600 
    167 H167       -2.6874  -13.8800  -40.1440 H         1 UNK         0.0600 
    168 H168       -2.5216  -15.5778  -40.5523 H         1 UNK         0.0600 
    169 H169        0.3465  -16.4545  -39.7404 H         1 UNK         0.3000 
    170 H170        1.5776  -16.9918  -36.5539 H         1 UNK         0.0600 
    171 H171       -0.5373  -18.2978  -36.2814 H         1 UNK         0.0600 
    172 H172       -0.4412  -18.8314  -37.9550 H         1 UNK         0.0600 
    173 H173        0.7834  -19.3376  -36.7899 H         1 UNK         0.0600 
    174 H174        1.7813  -18.4855  -38.9815 H         1 UNK         0.3000 
    175 H175        4.7403  -17.4236  -39.8736 H         1 UNK         0.0600 
    176 H176        2.1873  -18.5050  -41.1886 H         1 UNK         0.0600 
    177 H177        3.8347  -18.8720  -41.6686 H         1 UNK         0.0600 
    178 H178        3.2524  -19.4103  -40.1076 H         1 UNK         0.0600 
    179 H179        2.7500  -16.1059  -41.6776 H         1 UNK         0.3000 
    180 H180        3.5873  -13.7133  -42.3507 H         1 UNK         0.0600 
    181 H181        6.4117  -14.2105  -43.4310 H         1 UNK         0.0600 
    182 H182        5.9401  -12.9663  -42.2808 H         1 UNK         0.0600 
    183 H183        5.3458  -12.9010  -43.9325 H         1 UNK         0.0600 
    184 H184        2.8783  -14.7771  -44.1649 H         1 UNK         0.3000 
    185 H185        4.0839  -17.4532  -46.2013 H         1 UNK         0.0600 
    186 H186        2.6979  -18.3565  -44.3565 H         1 UNK         0.0600 
    187 H187        1.6609  -16.9450  -44.3893 H         1 UNK         0.0600 
    188 H188        1.6982  -18.0432  -45.7709 H         1 UNK         0.0600 
    189 H189        2.2801  -15.0581  -46.0404 H         1 UNK         0.3000 
    190 H190       -2.2627  -19.6829  -46.1076 H         1 UNK         0.3000 
    191 H191       -4.4640  -20.6240  -47.6267 H         1 UNK         0.0600 
    192 H192       -4.2732  -19.8387  -44.6688 H         1 UNK         0.0600 
    193 H193       -5.7682  -20.0148  -45.5814 H         1 UNK         0.0600 
    194 H194       -4.6218  -18.7534  -46.0114 H         1 UNK         0.0600 
    195 H195       -2.7754  -22.0366  -44.7856 H         1 UNK         0.3000 
    196 H196       -4.3757  -24.3527  -44.4921 H         1 UNK         0.0600 
    197 H197       -2.4301  -25.2223  -43.2051 H         1 UNK         0.0600 
    198 H198       -2.7603  -23.5499  -42.7780 H         1 UNK         0.0600 
    199 H199       -1.4094  -23.9394  -43.8414 H         1 UNK         0.0600 
    200 H200       -1.6236  -23.7025  -46.6486 H         1 UNK         0.3000 
    201 H201       -1.5329  -26.3985  -47.7662 H         1 UNK         0.0600 
    202 H202        0.5097  -24.9818  -47.5412 H         1 UNK         0.0600 
    203 H203       -0.1834  -23.7849  -48.6319 H         1 UNK         0.0600 
    204 H204        0.2132  -25.3962  -49.2197 H         1 UNK         0.0600 
    205 H205       -3.7809  -23.9657  -48.1416 H         1 UNK         0.3000 
    206 H206       -5.3062  -23.3316  -49.6044 H         1 UNK         0.0600 
    207 H207       -6.3014  -25.0452  -51.0956 H         1 UNK         0.0600 
    208 H208       -5.9479  -25.7373  -49.5210 H         1 UNK         0.0600 
    209 H209       -4.8978  -26.0841  -50.8924 H         1 UNK         0.0600 
    210 H210       -2.8667  -22.2420  -50.0879 H         1 UNK         0.3000 
    211 H211       -1.6397  -21.0714  -51.5043 H         1 UNK         0.0600 
    212 H212       -2.5925  -20.2196  -53.6150 H         1 UNK         0.0600 
    213 H213       -3.8235  -20.1749  -52.3615 H         1 UNK         0.0600 
    214 H214       -3.8596  -21.4351  -53.5903 H         1 UNK         0.0600 
    215 H215       -0.9596  -23.6623  -51.1456 H         1 UNK         0.3000 
    216 H216        0.2939  -25.3663  -51.8048 H         1 UNK         0.0600 
    217 H217        1.9655  -25.0876  -53.5945 H         1 UNK         0.0600 
    218 H218        1.8938  -23.6260  -52.6232 H         1 UNK         0.0600 
    219 H219        1.1365  -23.6680  -54.2147 H         1 UNK         0.0600 
    220 H220       -2.2531  -25.6754  -52.1713 H         1 UNK         0.3000 
    221 H221       -3.9029  -26.8007  -53.0411 H         1 UNK         0.0600 
    222 H222       -1.8605  -28.2584  -54.7948 H         1 UNK         0.0600 
    223 H223       -2.2220  -28.6569  -53.1151 H         1 UNK         0.0600 
    224 H224       -3.4589  -28.8340  -54.3468 H         1 UNK         0.0600 
    225 H225       -2.8158  -24.3134  -54.6413 H         1 UNK         0.3000 
    226 H226       -3.9697  -24.6831  -57.2818 H         1 UNK         0.0600 
    227 H227       -2.1007  -23.0668  -56.8170 H         1 UNK         0.0600 
    228 H228       -3.4923  -22.2962  -57.5650 H         1 UNK         0.0600 
    229 H229       -3.2046  -22.0910  -55.8464 H         1 UNK         0.0600 
    230 H230       -5.1345  -23.6442  -54.1487 H         1 UNK         0.3000 
    231 H231       -7.0369  -23.1090  -53.2468 H         1 UNK         0.0600 
    232 H232       -8.0325  -25.0439  -54.4323 H         1 UNK         0.0600 
    233 H233       -8.4557  -24.0174  -55.8016 H         1 UNK         0.0600 
    234 H234       -9.2003  -23.7451  -54.2351 H         1 UNK         0.0600 
    235 H235       -7.1134  -21.0227  -52.7957 H         1 UNK         0.3000 
    236 H236       -7.4187  -18.8209  -52.8464 H         1 UNK         0.0600 
    237 H237       -9.5264  -18.0299  -53.8721 H         1 UNK         0.0600 
    238 H238       -9.6320  -19.4805  -54.8611 H         1 UNK         0.0600 
    239 H239       -9.7777  -19.5903  -53.1078 H         1 UNK         0.0600 
    240 H240       -5.2605  -19.4436  -54.2662 H         1 UNK         0.3000 
    241 H241       -3.6912  -18.6328  -55.5595 H         1 UNK         0.0600 
    242 H242       -5.6684  -20.3970  -58.4578 H         1 UNK         0.3800 
    243 H243       -6.2742  -20.2808  -56.8300 H         1 UNK         0.3800 
    244 H244       -3.7411  -16.4522  -56.6901 H         1 UNK         0.0800 
    245 H245       -5.4693  -16.3564  -56.5446 H         1 UNK         0.0800 
    246 H246       -2.2564  -14.8515  -54.7659 H         1 UNK         0.0800 
    247 H247       -2.1179  -16.5957  -54.8015 H         1 UNK         0.0800 
@<TRIPOS>BOND
     1    1    2 1    
     2    1  127 1    
     3    1  128 1    
     4    1  129 1    
     5    2    3 2    
     6    2    4 am   BACKBONE|DICT|INTERRES
     7    4    5 1    
     8    4  130 1    
     9    5    6 1    
    10    5   65 1    
    11    5  131 1    
    12    6    7 1    
    13    6  132 1    
    14    6  133 1    
    15    7    8 1    
    16    8    9 1    
    17    8  134 1    
    18    8  135 1    
    19    9   10 ar   
    20    9   14 ar   
    21   10   11 ar   
    22   10  136 1    
    23   11   12 ar   
    24   11  126 1    
    25   12   13 ar   
    26   12  137 1    
    27   13   14 ar   
    28   13   15 1    
    29   14  138 1    
    30   15   16 1    
    31   15  139 1    
    32   15  140 1    
    33   16   17 1    
    34   17   18 1    
    35   17  141 1    
    36   17  142 1    
    37   18   19 1    
    38   18   67 1    
    39   18  143 1    
    40   19   20 am   BACKBONE|DICT|INTERRES
    41   19  144 1    
    42   20   21 2    
    43   20   22 1    
    44   22   23 1    
    45   22   24 1    
    46   22  145 1    
    47   23  146 1    
    48   23  147 1    
    49   23  148 1    
    50   24   25 am   BACKBONE|DICT|INTERRES
    51   24  149 1    
    52   25   26 2    
    53   25   27 1    
    54   27   28 1    
    55   27   29 1    
    56   27  150 1    
    57   28  151 1    
    58   28  152 1    
    59   28  153 1    
    60   29   30 am   BACKBONE|DICT|INTERRES
    61   29  154 1    
    62   30   31 2    
    63   30   32 1    
    64   32   33 1    
    65   32   34 1    
    66   32  155 1    
    67   33  156 1    
    68   33  157 1    
    69   33  158 1    
    70   34   35 am   BACKBONE|DICT|INTERRES
    71   34  159 1    
    72   35   36 2    
    73   35   37 1    
    74   37   38 1    
    75   37   39 1    
    76   37  160 1    
    77   38  161 1    
    78   38  162 1    
    79   38  163 1    
    80   39   40 am   BACKBONE|DICT|INTERRES
    81   39  164 1    
    82   40   41 2    
    83   40   42 1    
    84   42   43 1    
    85   42   44 1    
    86   42  165 1    
    87   43  166 1    
    88   43  167 1    
    89   43  168 1    
    90   44   45 am   BACKBONE|DICT|INTERRES
    91   44  169 1    
    92   45   46 2    
    93   45   47 1    
    94   47   48 1    
    95   47   49 1    
    96   47  170 1    
    97   48  171 1    
    98   48  172 1    
    99   48  173 1    
   100   49   50 am   BACKBONE|DICT|INTERRES
   101   49  174 1    
   102   50   51 2    
   103   50   52 1    
   104   52   53 1    
   105   52   54 1    
   106   52  175 1    
   107   53  176 1    
   108   53  177 1    
   109   53  178 1    
   110   54   55 am   BACKBONE|DICT|INTERRES
   111   54  179 1    
   112   55   56 2    
   113   55   57 1    
   114   57   58 1    
   115   57   59 1    
   116   57  180 1    
   117   58  181 1    
   118   58  182 1    
   119   58  183 1    
   120   59   60 am   BACKBONE|DICT|INTERRES
   121   59  184 1    
   122   60   61 2    
   123   60   62 1    
   124   62   63 1    
   125   62   64 1    
   126   62  185 1    
   127   63  186 1    
   128   63  187 1    
   129   63  188 1    
   130   64   65 am   BACKBONE|DICT|INTERRES
   131   64  189 1    
   132   65   66 2    
   133   67   68 2    
   134   67   69 am   BACKBONE|DICT|INTERRES
   135   69   70 1    
   136   69  190 1    
   137   70   71 1    
   138   70   72 1    
   139   70  191 1    
   140   71  192 1    
   141   71  193 1    
   142   71  194 1    
   143   72   73 2    
   144   72   74 am   BACKBONE|DICT|INTERRES
   145   74   75 1    
   146   74  195 1    
   147   75   76 1    
   148   75   77 1    
   149   75  196 1    
   150   76  197 1    
   151   76  198 1    
   152   76  199 1    
   153   77   78 2    
   154   77   79 am   BACKBONE|DICT|INTERRES
   155   79   80 1    
   156   79  200 1    
   157   80   81 1    
   158   80   82 1    
   159   80  201 1    
   160   81  202 1    
   161   81  203 1    
   162   81  204 1    
   163   82   83 2    
   164   82   84 am   BACKBONE|DICT|INTERRES
   165   84   85 1    
   166   84  205 1    
   167   85   86 1    
   168   85   87 1    
   169   85  206 1    
   170   86  207 1    
   171   86  208 1    
   172   86  209 1    
   173   87   88 2    
   174   87   89 am   BACKBONE|DICT|INTERRES
   175   89   90 1    
   176   89  210 1    
   177   90   91 1    
   178   90   92 1    
   179   90  211 1    
   180   91  212 1    
   181   91  213 1    
   182   91  214 1    
   183   92   93 2    
   184   92   94 am   BACKBONE|DICT|INTERRES
   185   94   95 1    
   186   94  215 1    
   187   95   96 1    
   188   95   97 1    
   189   95  216 1    
   190   96  217 1    
   191   96  218 1    
   192   96  219 1    
   193   97   98 2    
   194   97   99 am   BACKBONE|DICT|INTERRES
   195   99  100 1    
   196   99  220 1    
   197  100  101 1    
   198  100  102 1    
   199  100  221 1    
   200  101  222 1    
   201  101  223 1    
   202  101  224 1    
   203  102  103 2    
   204  102  104 am   BACKBONE|DICT|INTERRES
   205  104  105 1    
   206  104  225 1    
   207  105  106 1    
   208  105  107 1    
   209  105  226 1    
   210  106  227 1    
   211  106  228 1    
   212  106  229 1    
   213  107  108 2    
   214  107  109 am   BACKBONE|DICT|INTERRES
   215  109  110 1    
   216  109  230 1    
   217  110  111 1    
   218  110  112 1    
   219  110  231 1    
   220  111  232 1    
   221  111  233 1    
   222  111  234 1    
   223  112  113 2    
   224  112  114 am   BACKBONE|DICT|INTERRES
   225  114  115 1    
   226  114  235 1    
   227  115  116 1    
   228  115  117 1    
   229  115  236 1    
   230  116  237 1    
   231  116  238 1    
   232  116  239 1    
   233  117  118 2    
   234  117  119 am   BACKBONE|DICT|INTERRES
   235  119  120 1    
   236  119  240 1    
   237  120  121 1    
   238  120  124 1    
   239  120  241 1    
   240  121  122 am   BACKBONE|DICT|INTERRES
   241  121  123 2    
   242  122  242 1    
   243  122  243 1    
   244  124  125 1    
   245  124  244 1    
   246  124  245 1    
   247  125  126 1    
   248  126  246 1    
   249  126  247 1    
@<TRIPOS>SUBSTRUCTURE
     1 UNK         1 GROUP             0       ****    0 ROOT    
