@<TRIPOS>MOLECULE
3R540
247   249    1
SMALL
USER_CHARGES


@<TRIPOS>ATOM
      1 CA          4.7513  -13.9735  -53.4468 C.3       0 UNK        -0.1800 
      2 C           3.9354  -15.0283  -52.7135 C.2       0 UNK         0.5000 
      3 O           2.7149  -15.0757  -52.8697 O.2       0 UNK        -0.5000 
      4 N           4.6020  -15.8671  -51.9082 N.am      1 UNK        -0.5000 
      5 CA          4.0508  -16.9575  -51.0891 C.3       1 UNK         0.1400 
      6 C6          3.2321  -17.9940  -51.9079 C.3       23 UNK        -0.0398 
      7 S7          3.3662  -19.6916  -51.2534 S.3       23 UNK        -0.2404 
      8 C8          1.6390  -20.0895  -50.8352 C.3       23 UNK        -0.0205 
      9 C9          1.2836  -19.7238  -49.4042 C.ar      23 UNK        -0.0193 
     10 C10         0.3682  -18.7011  -49.1393 C.ar      23 UNK        -0.1150 
     11 C11        -0.0308  -18.4317  -47.8274 C.ar      23 UNK        -0.0193 
     12 C12         0.5252  -19.1653  -46.7766 C.ar      23 UNK        -0.1150 
     13 C13         1.4360  -20.1954  -47.0277 C.ar      23 UNK        -0.0193 
     14 C14         1.8160  -20.4640  -48.3448 C.ar      23 UNK        -0.1150 
     15 C15         2.0071  -21.0199  -45.8821 C.3       23 UNK        -0.0205 
     16 S16         0.7197  -21.6906  -44.7816 S.3       23 UNK        -0.2404 
     17 C17         0.0090  -23.0663  -45.7558 C.3       23 UNK        -0.0398 
     18 CA         -1.3633  -22.7857  -46.4432 C.3       11 UNK         0.1400 
     19 N          -2.2653  -21.9402  -45.6583 N.am      11 UNK        -0.5000 
     20 C          -3.0034  -22.3736  -44.6331 C.2       10 UNK         0.5000 
     21 O          -3.0182  -23.5437  -44.2442 O.2       10 UNK        -0.5000 
     22 CA         -3.8407  -21.3198  -43.8915 C.3       10 UNK         0.1400 
     23 CB         -5.2535  -21.8365  -43.5669 C.3       10 UNK        -0.1800 
     24 N          -3.1612  -20.9803  -42.6448 N.am      10 UNK        -0.5000 
     25 C          -2.2476  -20.0114  -42.5270 C.2       9 UNK         0.5000 
     26 O          -1.9654  -19.2291  -43.4358 O.2       9 UNK        -0.5000 
     27 CA         -1.5272  -19.9186  -41.1711 C.3       9 UNK         0.1400 
     28 CB         -0.3698  -20.9273  -41.1051 C.3       9 UNK        -0.1800 
     29 N          -0.9812  -18.5764  -41.0073 N.am      9 UNK        -0.5000 
     30 C          -1.3475  -17.6887  -40.0734 C.2       8 UNK         0.5000 
     31 O          -2.1069  -17.9525  -39.1401 O.2       8 UNK        -0.5000 
     32 CA         -0.7896  -16.2537  -40.2056 C.3       8 UNK         0.1400 
     33 CB          0.4102  -16.0502  -39.2681 C.3       8 UNK        -0.1800 
     34 N          -0.3789  -15.9262  -41.5702 N.am      8 UNK        -0.5000 
     35 C          -1.2043  -15.8311  -42.6210 C.2       7 UNK         0.5000 
     36 O          -2.4316  -15.8100  -42.5176 O.2       7 UNK        -0.5000 
     37 CA         -0.5635  -15.7786  -44.0222 C.3       7 UNK         0.1400 
     38 CB         -0.8718  -14.4423  -44.7174 C.3       7 UNK        -0.1800 
     39 N           0.8853  -15.9982  -44.0526 N.am      7 UNK        -0.5000 
     40 C           1.5323  -17.1279  -43.7321 C.2       6 UNK         0.5000 
     41 O           0.9834  -18.1336  -43.2874 O.2       6 UNK        -0.5000 
     42 CA          3.0618  -17.0953  -43.8717 C.3       6 UNK         0.1400 
     43 CB          3.4871  -17.1836  -45.3463 C.3       6 UNK        -0.1800 
     44 N           3.6160  -15.8794  -43.2778 N.am      6 UNK        -0.5000 
     45 C           3.8157  -15.6959  -41.9656 C.2       5 UNK         0.5000 
     46 O           3.5810  -16.5528  -41.1139 O.2       5 UNK        -0.5000 
     47 CA          4.3732  -14.3278  -41.5264 C.3       5 UNK         0.1400 
     48 CB          5.9061  -14.3783  -41.4364 C.3       5 UNK        -0.1800 
     49 N           3.9853  -13.2388  -42.4242 N.am      5 UNK        -0.5000 
     50 C           2.7631  -12.6908  -42.4650 C.2       4 UNK         0.5000 
     51 O           1.8424  -13.0132  -41.7138 O.2       4 UNK        -0.5000 
     52 CA          2.5213  -11.6271  -43.5562 C.3       4 UNK         0.1400 
     53 CB          2.9020  -10.2308  -43.0413 C.3       4 UNK        -0.1800 
     54 N           3.2272  -11.8876  -44.8185 N.am      4 UNK        -0.5000 
     55 C           3.0595  -12.9882  -45.5625 C.2       3 UNK         0.5000 
     56 O           2.3504  -13.9337  -45.2152 O.2       3 UNK        -0.5000 
     57 CA          3.8450  -13.0796  -46.8835 C.3       3 UNK         0.1400 
     58 CB          5.2734  -13.5798  -46.6196 C.3       3 UNK        -0.1800 
     59 N           3.1907  -14.0066  -47.8065 N.am      3 UNK        -0.5000 
     60 C           2.0204  -13.7828  -48.4145 C.2       2 UNK         0.5000 
     61 O           1.4623  -12.6837  -48.4269 O.2       2 UNK        -0.5000 
     62 CA          1.3730  -14.9962  -49.1132 C.3       2 UNK         0.1400 
     63 CB          0.0347  -14.6511  -49.7906 C.3       2 UNK        -0.1800 
     64 N           2.2523  -15.6076  -50.1065 N.am      2 UNK        -0.5000 
     65 C           3.2764  -16.4333  -49.8618 C.2       1 UNK         0.5000 
     66 O           3.6426  -16.7425  -48.7277 O.2       1 UNK        -0.5000 
     67 C          -1.2738  -22.3468  -47.9195 C.2       11 UNK         0.5000 
     68 O          -0.3736  -22.8006  -48.6269 O.2       11 UNK        -0.5000 
     69 N          -2.2453  -21.5545  -48.4076 N.am      12 UNK        -0.5000 
     70 CA         -2.3144  -21.0774  -49.7991 C.3       12 UNK         0.1400 
     71 CB         -3.4615  -20.0684  -49.9502 C.3       12 UNK        -0.1800 
     72 C          -2.4367  -22.1972  -50.8519 C.2       12 UNK         0.5000 
     73 O          -2.0688  -21.9945  -52.0103 O.2       12 UNK        -0.5000 
     74 N          -2.8876  -23.3830  -50.4211 N.am      13 UNK        -0.5000 
     75 CA         -2.9329  -24.6167  -51.2044 C.3       13 UNK         0.1400 
     76 CB         -3.6038  -25.7124  -50.3636 C.3       13 UNK        -0.1800 
     77 C          -1.5500  -25.0814  -51.7098 C.2       13 UNK         0.5000 
     78 O          -1.4906  -25.7845  -52.7180 O.2       13 UNK        -0.5000 
     79 N          -0.4616  -24.6382  -51.0586 N.am      14 UNK        -0.5000 
     80 CA          0.9194  -24.8495  -51.5031 C.3       14 UNK         0.1400 
     81 CB          1.8839  -24.4162  -50.3886 C.3       14 UNK        -0.1800 
     82 C           1.2583  -24.1313  -52.8279 C.2       14 UNK         0.5000 
     83 O           2.1689  -24.5711  -53.5301 O.2       14 UNK        -0.5000 
     84 N           0.5062  -23.0728  -53.1650 N.am      15 UNK        -0.5000 
     85 CA          0.5666  -22.3686  -54.4490 C.3       15 UNK         0.1400 
     86 CB          0.5340  -20.8524  -54.1924 C.3       15 UNK        -0.1800 
     87 C          -0.5636  -22.8093  -55.4040 C.2       15 UNK         0.5000 
     88 O          -0.7859  -22.1492  -56.4198 O.2       15 UNK        -0.5000 
     89 N          -1.2556  -23.9105  -55.0700 N.am      16 UNK        -0.5000 
     90 CA         -2.3694  -24.5217  -55.8019 C.3       16 UNK         0.1400 
     91 CB         -1.9089  -25.0425  -57.1802 C.3       16 UNK        -0.1800 
     92 C          -3.6242  -23.6261  -55.8769 C.2       16 UNK         0.5000 
     93 O          -4.3613  -23.6818  -56.8639 O.2       16 UNK        -0.5000 
     94 N          -3.8601  -22.8266  -54.8260 N.am      17 UNK        -0.5000 
     95 CA         -5.0764  -22.0309  -54.6515 C.3       17 UNK         0.1400 
     96 CB         -4.8742  -21.0603  -53.4794 C.3       17 UNK        -0.1800 
     97 C          -6.3171  -22.9161  -54.4120 C.2       17 UNK         0.5000 
     98 O          -6.1889  -24.0538  -53.9514 O.2       17 UNK        -0.5000 
     99 N          -7.5005  -22.3637  -54.7117 N.am      18 UNK        -0.5000 
    100 CA        -8.7998  -23.0390  -54.6036 C.3       18 UNK         0.1400 
    101 CB        -9.8676  -22.1701  -55.2867 C.3       18 UNK        -0.1800 
    102 C         -9.2261  -23.3778  -53.1598 C.2       18 UNK         0.5000 
    103 O        -10.0533  -24.2699  -52.9665 O.2       18 UNK        -0.5000 
    104 N         -8.6536  -22.6735  -52.1797 N.am      19 UNK        -0.5000 
    105 CA        -8.7908  -22.9221  -50.7516 C.3       19 UNK         0.1400 
    106 CB        -9.9069  -22.0342  -50.1764 C.3       19 UNK        -0.1800 
    107 C         -7.4417  -22.6106  -50.0927 C.2       19 UNK         0.5000 
    108 O         -6.6607  -21.8306  -50.6427 O.2       19 UNK        -0.5000 
    109 N         -7.1926  -23.2116  -48.9234 N.am      20 UNK        -0.5000 
    110 CA        -5.9628  -23.0097  -48.1548 C.3       20 UNK         0.1400 
    111 CB        -5.7863  -24.1659  -47.1595 C.3       20 UNK        -0.1800 
    112 C         -5.9109  -21.6568  -47.4226 C.2       20 UNK         0.5000 
    113 O         -4.8165  -21.2024  -47.0925 O.2       20 UNK        -0.5000 
    114 N         -7.0771  -21.0501  -47.1647 N.am      21 UNK        -0.5000 
    115 CA        -7.2167  -19.7622  -46.4886 C.3       21 UNK         0.1400 
    116 CB        -8.7060  -19.4906  -46.2263 C.3       21 UNK        -0.1800 
    117 C         -6.5809  -18.6141  -47.2953 C.2       21 UNK         0.5000 
    118 O         -6.9128  -18.4332  -48.4686 O.2       21 UNK        -0.5000 
    119 N         -5.6911  -17.8622  -46.6407 N.am      22 UNK        -0.5000 
    120 CA        -4.9378  -16.7413  -47.2281 C.3       22 UNK         0.1400 
    121 C         -5.7210  -15.3962  -47.2806 C.2       22 UNK         0.5000 
    122 N         -6.9137  -15.2920  -46.7069 N.am      22 UNK        -0.7600 
    123 O         -5.2405  -14.4281  -47.8630 O.2       22 UNK        -0.5000 
    124 C124       -3.5689  -16.5608  -46.5238 C.3       23 UNK        -0.0398 
    125 S125       -2.5216  -18.0472  -46.6780 S.3       23 UNK        -0.2404 
    126 C126       -1.0739  -17.3634  -47.5431 C.3       23 UNK        -0.0205 
    127 H127        5.8140  -14.0482  -53.2152 H         1 UNK         0.0600 
    128 H128        4.4114  -12.9763  -53.1677 H         1 UNK         0.0600 
    129 H129        4.6292  -14.0875  -54.5239 H         1 UNK         0.0600 
    130 H130        5.6012  -15.7443  -51.8170 H         1 UNK         0.3000 
    131 H131        4.9342  -17.4662  -50.6992 H         1 UNK         0.0600 
    132 H132        2.1872  -17.6958  -52.0069 H         1 UNK         0.0800 
    133 H133        3.6142  -18.0386  -52.9286 H         1 UNK         0.0800 
    134 H134        1.4873  -21.1606  -50.9682 H         1 UNK         0.0800 
    135 H135        0.9574  -19.6061  -51.5354 H         1 UNK         0.0800 
    136 H136       -0.0598  -18.1394  -49.9573 H         1 UNK         0.1150 
    137 H137        0.2167  -18.9589  -45.7609 H         1 UNK         0.1150 
    138 H138        2.5087  -21.2669  -48.5533 H         1 UNK         0.1150 
    139 H139        2.6251  -21.8382  -46.2544 H         1 UNK         0.0800 
    140 H140        2.6646  -20.3832  -45.2901 H         1 UNK         0.0800 
    141 H141       -0.1330  -23.8829  -45.0469 H         1 UNK         0.0800 
    142 H142        0.7538  -23.4415  -46.4591 H         1 UNK         0.0800 
    143 H143       -1.8516  -23.7584  -46.5346 H         1 UNK         0.0600 
    144 H144       -2.2642  -20.9544  -45.8859 H         1 UNK         0.3000 
    145 H145       -3.9451  -20.4351  -44.5244 H         1 UNK         0.0600 
    146 H146       -5.7727  -22.1511  -44.4721 H         1 UNK         0.0600 
    147 H147       -5.8574  -21.0587  -43.0995 H         1 UNK         0.0600 
    148 H148       -5.2293  -22.6923  -42.8912 H         1 UNK         0.0600 
    149 H149       -3.3116  -21.6126  -41.8719 H         1 UNK         0.3000 
    150 H150       -2.2455  -20.1472  -40.3812 H         1 UNK         0.0600 
    151 H151       -0.7247  -21.9477  -41.2549 H         1 UNK         0.0600 
    152 H152        0.1262  -20.8930  -40.1351 H         1 UNK         0.0600 
    153 H153        0.3804  -20.7242  -41.8706 H         1 UNK         0.0600 
    154 H154       -0.3992  -18.2667  -41.7812 H         1 UNK         0.3000 
    155 H155       -1.5801  -15.5600  -39.9124 H         1 UNK         0.0600 
    156 H156        1.2308  -16.7251  -39.5151 H         1 UNK         0.0600 
    157 H157        0.1313  -16.2375  -38.2305 H         1 UNK         0.0600 
    158 H158        0.7877  -15.0288  -39.3251 H         1 UNK         0.0600 
    159 H159        0.6140  -15.9146  -41.7523 H         1 UNK         0.3000 
    160 H160       -1.0243  -16.5838  -44.5945 H         1 UNK         0.0600 
    161 H161       -0.4251  -13.6040  -44.1812 H         1 UNK         0.0600 
    162 H162       -1.9464  -14.2644  -44.7726 H         1 UNK         0.0600 
    163 H163       -0.4877  -14.4265  -45.7375 H         1 UNK         0.0600 
    164 H164        1.4382  -15.2193  -44.4088 H         1 UNK         0.3000 
    165 H165        3.4701  -17.9641  -43.3507 H         1 UNK         0.0600 
    166 H166        4.5721  -17.1704  -45.4476 H         1 UNK         0.0600 
    167 H167        3.1320  -18.1064  -45.8029 H         1 UNK         0.0600 
    168 H168        3.0865  -16.3618  -45.9389 H         1 UNK         0.0600 
    169 H169        3.7548  -15.0979  -43.9022 H         1 UNK         0.3000 
    170 H170        3.9808  -14.1145  -40.5296 H         1 UNK         0.0600 
    171 H171        6.2312  -15.1653  -40.7546 H         1 UNK         0.0600 
    172 H172        6.3609  -14.5769  -42.4078 H         1 UNK         0.0600 
    173 H173        6.3104  -13.4379  -41.0614 H         1 UNK         0.0600 
    174 H174        4.6840  -12.9073  -43.0727 H         1 UNK         0.3000 
    175 H175        1.4514  -11.6277  -43.7750 H         1 UNK         0.0600 
    176 H176        3.9712  -10.1531  -42.8407 H         1 UNK         0.0600 
    177 H177        2.6379   -9.4580  -43.7634 H         1 UNK         0.0600 
    178 H178        2.3762   -9.9995  -42.1138 H         1 UNK         0.0600 
    179 H179        3.8384  -11.1560  -45.1520 H         1 UNK         0.3000 
    180 H180        3.8871  -12.0901  -47.3431 H         1 UNK         0.0600 
    181 H181        5.2757  -14.5678  -46.1569 H         1 UNK         0.0600 
    182 H182        5.8115  -12.9033  -45.9546 H         1 UNK         0.0600 
    183 H183        5.8444  -13.6444  -47.5461 H         1 UNK         0.0600 
    184 H184        3.5621  -14.9500  -47.8506 H         1 UNK         0.3000 
    185 H185        1.1743  -15.7333  -48.3341 H         1 UNK         0.0600 
    186 H186       -0.6829  -14.2637  -49.0661 H         1 UNK         0.0600 
    187 H187        0.1615  -13.8963  -50.5676 H         1 UNK         0.0600 
    188 H188       -0.4132  -15.5306  -50.2529 H         1 UNK         0.0600 
    189 H189        2.0957  -15.3440  -51.0754 H         1 UNK         0.3000 
    190 H190       -3.0127  -21.2772  -47.8011 H         1 UNK         0.3000 
    191 H191       -1.3816  -20.5588  -50.0135 H         1 UNK         0.0600 
    192 H192       -3.4811  -19.6481  -50.9563 H         1 UNK         0.0600 
    193 H193       -3.3542  -19.2367  -49.2552 H         1 UNK         0.0600 
    194 H194       -4.4322  -20.5297  -49.7728 H         1 UNK         0.0600 
    195 H195       -3.1295  -23.4607  -49.4461 H         1 UNK         0.3000 
    196 H196       -3.5550  -24.4285  -52.0821 H         1 UNK         0.0600 
    197 H197       -3.0474  -25.9151  -49.4476 H         1 UNK         0.0600 
    198 H198       -4.6196  -25.4295  -50.0864 H         1 UNK         0.0600 
    199 H199       -3.6706  -26.6472  -50.9217 H         1 UNK         0.0600 
    200 H200       -0.5792  -24.0491  -50.2401 H         1 UNK         0.3000 
    201 H201        1.0551  -25.9201  -51.6700 H         1 UNK         0.0600 
    202 H202        1.6915  -24.9631  -49.4654 H         1 UNK         0.0600 
    203 H203        1.7959  -23.3525  -50.1690 H         1 UNK         0.0600 
    204 H204        2.9199  -24.6077  -50.6708 H         1 UNK         0.0600 
    205 H205       -0.2478  -22.7881  -52.5486 H         1 UNK         0.3000 
    206 H206        1.5051  -22.5943  -54.9589 H         1 UNK         0.0600 
    207 H207        1.4203  -20.5374  -53.6442 H         1 UNK         0.0600 
    208 H208        0.5279  -20.2882  -55.1256 H         1 UNK         0.0600 
    209 H209       -0.3473  -20.5563  -53.6226 H         1 UNK         0.0600 
    210 H210       -0.9981  -24.3927  -54.2171 H         1 UNK         0.3000 
    211 H211       -2.6678  -25.3914  -55.2151 H         1 UNK         0.0600 
    212 H212       -2.6899  -25.6388  -57.6533 H         1 UNK         0.0600 
    213 H213       -1.0293  -25.6794  -57.0871 H         1 UNK         0.0600 
    214 H214       -1.6638  -24.2280  -57.8622 H         1 UNK         0.0600 
    215 H215       -3.2036  -22.8200  -54.0579 H         1 UNK         0.3000 
    216 H216       -5.2338  -21.4493  -55.5623 H         1 UNK         0.0600 
    217 H217       -4.7652  -21.5953  -52.5365 H         1 UNK         0.0600 
    218 H218       -5.7250  -20.3866  -53.3727 H         1 UNK         0.0600 
    219 H219       -3.9862  -20.4437  -53.6208 H         1 UNK         0.0600 
    220 H220       -7.5204  -21.4203  -55.0717 H         1 UNK         0.3000 
    221 H221       -8.7301  -23.9830  -55.1481 H         1 UNK         0.0600 
    222 H222       -9.6257  -21.9977  -56.3356 H         1 UNK         0.0600 
    223 H223       -9.9677  -21.1994  -54.7994 H         1 UNK         0.0600 
    224 H224      -10.8446  -22.6544  -55.2564 H         1 UNK         0.0600 
    225 H225       -7.9341  -22.0010  -52.4129 H         1 UNK         0.3000 
    226 H226       -9.0270  -23.9739  -50.5762 H         1 UNK         0.0600 
    227 H227       -9.6871  -20.9744  -50.3128 H         1 UNK         0.0600 
    228 H228      -10.8626  -22.2421  -50.6580 H         1 UNK         0.0600 
    229 H229      -10.0373  -22.2090  -49.1079 H         1 UNK         0.0600 
    230 H230       -7.8772  -23.8426  -48.5310 H         1 UNK         0.3000 
    231 H231       -5.1201  -23.0314  -48.8464 H         1 UNK         0.0600 
    232 H232       -6.6012  -24.2023  -46.4354 H         1 UNK         0.0600 
    233 H233       -4.8556  -24.0622  -46.5998 H         1 UNK         0.0600 
    234 H234       -5.7485  -25.1270  -47.6726 H         1 UNK         0.0600 
    235 H235       -7.9251  -21.4796  -47.5005 H         1 UNK         0.3000 
    236 H236       -6.7114  -19.8393  -45.5236 H         1 UNK         0.0600 
    237 H237       -9.1462  -20.2706  -45.6048 H         1 UNK         0.0600 
    238 H238       -8.8443  -18.5433  -45.7038 H         1 UNK         0.0600 
    239 H239       -9.2755  -19.4396  -47.1554 H         1 UNK         0.0600 
    240 H240       -5.4654  -18.0848  -45.6829 H         1 UNK         0.3000 
    241 H241       -4.7297  -16.9919  -48.2705 H         1 UNK         0.0600 
    242 H242       -7.4118  -14.4168  -46.7533 H         1 UNK         0.3800 
    243 H243       -7.3247  -16.0780  -46.2303 H         1 UNK         0.3800 
    244 H244       -3.7084  -16.3474  -45.4626 H         1 UNK         0.0800 
    245 H245       -3.0332  -15.7037  -46.9356 H         1 UNK         0.0800 
    246 H246       -0.6208  -16.5780  -46.9395 H         1 UNK         0.0800 
    247 H247       -1.4112  -16.8988  -48.4700 H         1 UNK         0.0800 
@<TRIPOS>BOND
     1    1    2 1    
     2    1  127 1    
     3    1  128 1    
     4    1  129 1    
     5    2    3 2    
     6    2    4 am   BACKBONE|DICT|INTERRES
     7    4    5 1    
     8    4  130 1    
     9    5    6 1    
    10    5   65 1    
    11    5  131 1    
    12    6    7 1    
    13    6  132 1    
    14    6  133 1    
    15    7    8 1    
    16    8    9 1    
    17    8  134 1    
    18    8  135 1    
    19    9   10 ar   
    20    9   14 ar   
    21   10   11 ar   
    22   10  136 1    
    23   11   12 ar   
    24   11  126 1    
    25   12   13 ar   
    26   12  137 1    
    27   13   14 ar   
    28   13   15 1    
    29   14  138 1    
    30   15   16 1    
    31   15  139 1    
    32   15  140 1    
    33   16   17 1    
    34   17   18 1    
    35   17  141 1    
    36   17  142 1    
    37   18   19 1    
    38   18   67 1    
    39   18  143 1    
    40   19   20 am   BACKBONE|DICT|INTERRES
    41   19  144 1    
    42   20   21 2    
    43   20   22 1    
    44   22   23 1    
    45   22   24 1    
    46   22  145 1    
    47   23  146 1    
    48   23  147 1    
    49   23  148 1    
    50   24   25 am   BACKBONE|DICT|INTERRES
    51   24  149 1    
    52   25   26 2    
    53   25   27 1    
    54   27   28 1    
    55   27   29 1    
    56   27  150 1    
    57   28  151 1    
    58   28  152 1    
    59   28  153 1    
    60   29   30 am   BACKBONE|DICT|INTERRES
    61   29  154 1    
    62   30   31 2    
    63   30   32 1    
    64   32   33 1    
    65   32   34 1    
    66   32  155 1    
    67   33  156 1    
    68   33  157 1    
    69   33  158 1    
    70   34   35 am   BACKBONE|DICT|INTERRES
    71   34  159 1    
    72   35   36 2    
    73   35   37 1    
    74   37   38 1    
    75   37   39 1    
    76   37  160 1    
    77   38  161 1    
    78   38  162 1    
    79   38  163 1    
    80   39   40 am   BACKBONE|DICT|INTERRES
    81   39  164 1    
    82   40   41 2    
    83   40   42 1    
    84   42   43 1    
    85   42   44 1    
    86   42  165 1    
    87   43  166 1    
    88   43  167 1    
    89   43  168 1    
    90   44   45 am   BACKBONE|DICT|INTERRES
    91   44  169 1    
    92   45   46 2    
    93   45   47 1    
    94   47   48 1    
    95   47   49 1    
    96   47  170 1    
    97   48  171 1    
    98   48  172 1    
    99   48  173 1    
   100   49   50 am   BACKBONE|DICT|INTERRES
   101   49  174 1    
   102   50   51 2    
   103   50   52 1    
   104   52   53 1    
   105   52   54 1    
   106   52  175 1    
   107   53  176 1    
   108   53  177 1    
   109   53  178 1    
   110   54   55 am   BACKBONE|DICT|INTERRES
   111   54  179 1    
   112   55   56 2    
   113   55   57 1    
   114   57   58 1    
   115   57   59 1    
   116   57  180 1    
   117   58  181 1    
   118   58  182 1    
   119   58  183 1    
   120   59   60 am   BACKBONE|DICT|INTERRES
   121   59  184 1    
   122   60   61 2    
   123   60   62 1    
   124   62   63 1    
   125   62   64 1    
   126   62  185 1    
   127   63  186 1    
   128   63  187 1    
   129   63  188 1    
   130   64   65 am   BACKBONE|DICT|INTERRES
   131   64  189 1    
   132   65   66 2    
   133   67   68 2    
   134   67   69 am   BACKBONE|DICT|INTERRES
   135   69   70 1    
   136   69  190 1    
   137   70   71 1    
   138   70   72 1    
   139   70  191 1    
   140   71  192 1    
   141   71  193 1    
   142   71  194 1    
   143   72   73 2    
   144   72   74 am   BACKBONE|DICT|INTERRES
   145   74   75 1    
   146   74  195 1    
   147   75   76 1    
   148   75   77 1    
   149   75  196 1    
   150   76  197 1    
   151   76  198 1    
   152   76  199 1    
   153   77   78 2    
   154   77   79 am   BACKBONE|DICT|INTERRES
   155   79   80 1    
   156   79  200 1    
   157   80   81 1    
   158   80   82 1    
   159   80  201 1    
   160   81  202 1    
   161   81  203 1    
   162   81  204 1    
   163   82   83 2    
   164   82   84 am   BACKBONE|DICT|INTERRES
   165   84   85 1    
   166   84  205 1    
   167   85   86 1    
   168   85   87 1    
   169   85  206 1    
   170   86  207 1    
   171   86  208 1    
   172   86  209 1    
   173   87   88 2    
   174   87   89 am   BACKBONE|DICT|INTERRES
   175   89   90 1    
   176   89  210 1    
   177   90   91 1    
   178   90   92 1    
   179   90  211 1    
   180   91  212 1    
   181   91  213 1    
   182   91  214 1    
   183   92   93 2    
   184   92   94 am   BACKBONE|DICT|INTERRES
   185   94   95 1    
   186   94  215 1    
   187   95   96 1    
   188   95   97 1    
   189   95  216 1    
   190   96  217 1    
   191   96  218 1    
   192   96  219 1    
   193   97   98 2    
   194   97   99 am   BACKBONE|DICT|INTERRES
   195   99  100 1    
   196   99  220 1    
   197  100  101 1    
   198  100  102 1    
   199  100  221 1    
   200  101  222 1    
   201  101  223 1    
   202  101  224 1    
   203  102  103 2    
   204  102  104 am   BACKBONE|DICT|INTERRES
   205  104  105 1    
   206  104  225 1    
   207  105  106 1    
   208  105  107 1    
   209  105  226 1    
   210  106  227 1    
   211  106  228 1    
   212  106  229 1    
   213  107  108 2    
   214  107  109 am   BACKBONE|DICT|INTERRES
   215  109  110 1    
   216  109  230 1    
   217  110  111 1    
   218  110  112 1    
   219  110  231 1    
   220  111  232 1    
   221  111  233 1    
   222  111  234 1    
   223  112  113 2    
   224  112  114 am   BACKBONE|DICT|INTERRES
   225  114  115 1    
   226  114  235 1    
   227  115  116 1    
   228  115  117 1    
   229  115  236 1    
   230  116  237 1    
   231  116  238 1    
   232  116  239 1    
   233  117  118 2    
   234  117  119 am   BACKBONE|DICT|INTERRES
   235  119  120 1    
   236  119  240 1    
   237  120  121 1    
   238  120  124 1    
   239  120  241 1    
   240  121  122 am   BACKBONE|DICT|INTERRES
   241  121  123 2    
   242  122  242 1    
   243  122  243 1    
   244  124  125 1    
   245  124  244 1    
   246  124  245 1    
   247  125  126 1    
   248  126  246 1    
   249  126  247 1    
@<TRIPOS>SUBSTRUCTURE
     1 UNK         1 GROUP             0       ****    0 ROOT    
