@<TRIPOS>MOLECULE
3R540
247   249    1
SMALL
USER_CHARGES


@<TRIPOS>ATOM
      1 CA          2.3828  -17.3672  -52.6193 C.3       0 UNK        -0.1800 
      2 C           2.7501  -15.9085  -52.3937 C.2       0 UNK         0.5000 
      3 O           2.7505  -15.1204  -53.3401 O.2       0 UNK        -0.5000 
      4 N           3.0824  -15.5534  -51.1492 N.am      1 UNK        -0.5000 
      5 CA          3.4583  -14.2008  -50.7305 C.3       1 UNK         0.1400 
      6 C6          4.1848  -14.1841  -49.3594 C.3       23 UNK        -0.0398 
      7 S7          5.5129  -15.4242  -49.1908 S.3       23 UNK        -0.2404 
      8 C8          4.8469  -16.4689  -47.8549 C.3       23 UNK        -0.0205 
      9 C9          3.7840  -17.4420  -48.3471 C.ar      23 UNK        -0.0193 
     10 C10         2.4318  -17.0834  -48.3657 C.ar      23 UNK        -0.1150 
     11 C11         1.4550  -18.0031  -48.7623 C.ar      23 UNK        -0.0193 
     12 C12         1.8392  -19.2992  -49.1180 C.ar      23 UNK        -0.1150 
     13 C13         3.1882  -19.6652  -49.1173 C.ar      23 UNK        -0.0193 
     14 C14         4.1551  -18.7278  -48.7455 C.ar      23 UNK        -0.1150 
     15 C15         3.5987  -21.0777  -49.5074 C.3       23 UNK        -0.0205 
     16 S16         4.5117  -21.9514  -48.1892 S.3       23 UNK        -0.2404 
     17 C17         3.4052  -21.8155  -46.7418 C.3       23 UNK        -0.0398 
     18 CA          2.3920  -22.9824  -46.6470 C.3       11 UNK         0.1400 
     19 N           2.1389  -23.3883  -45.2631 N.am      11 UNK        -0.5000 
     20 C           1.5684  -24.5529  -44.9212 C.2       10 UNK         0.5000 
     21 O           1.2341  -25.4108  -45.7384 O.2       10 UNK        -0.5000 
     22 CA          1.2850  -24.7880  -43.4250 C.3       10 UNK         0.1400 
     23 CB          2.4638  -25.5169  -42.7640 C.3       10 UNK        -0.1800 
     24 N           1.0003  -23.5610  -42.6795 N.am      10 UNK        -0.5000 
     25 C          -0.0133  -22.7211  -42.9294 C.2       9 UNK         0.5000 
     26 O          -0.8381  -22.9019  -43.8261 O.2       9 UNK        -0.5000 
     27 CA         -0.1046  -21.4496  -42.0626 C.3       9 UNK         0.1400 
     28 CB          0.7065  -21.5244  -40.7505 C.3       9 UNK        -0.1800 
     29 N           0.2628  -20.2400  -42.8016 N.am      9 UNK        -0.5000 
     30 C           1.3937  -19.9973  -43.4815 C.2       8 UNK         0.5000 
     31 O           2.2737  -20.8361  -43.6836 O.2       8 UNK        -0.5000 
     32 CA          1.5804  -18.5667  -44.0217 C.3       8 UNK         0.1400 
     33 CB          0.9591  -18.4246  -45.4124 C.3       8 UNK        -0.1800 
     34 N           1.0055  -17.5370  -43.1571 N.am      8 UNK        -0.5000 
     35 C           1.4748  -17.1933  -41.9503 C.2       7 UNK         0.5000 
     36 O           2.4691  -17.6979  -41.4279 O.2       7 UNK        -0.5000 
     37 CA          0.6887  -16.1047  -41.2004 C.3       7 UNK         0.1400 
     38 CB          1.0707  -14.7043  -41.7071 C.3       7 UNK        -0.1800 
     39 N          -0.7543  -16.2973  -41.3425 N.am      7 UNK        -0.5000 
     40 C          -1.4749  -17.1623  -40.6148 C.2       6 UNK         0.5000 
     41 O          -1.0073  -17.8468  -39.7044 O.2       6 UNK        -0.5000 
     42 CA         -2.9705  -17.2923  -40.9649 C.3       6 UNK         0.1400 
     43 CB         -3.8057  -16.3128  -40.1265 C.3       6 UNK        -0.1800 
     44 N          -3.2532  -17.0678  -42.3837 N.am      6 UNK        -0.5000 
     45 C          -2.8691  -17.8856  -43.3734 C.2       5 UNK         0.5000 
     46 O          -2.2532  -18.9343  -43.1921 O.2       5 UNK        -0.5000 
     47 CA         -3.1767  -17.4257  -44.8106 C.3       5 UNK         0.1400 
     48 CB         -4.5504  -17.9380  -45.2667 C.3       5 UNK        -0.1800 
     49 N          -3.1096  -15.9725  -44.9864 N.am      5 UNK        -0.5000 
     50 C          -2.0013  -15.2422  -44.8118 C.2       4 UNK         0.5000 
     51 O          -0.9230  -15.7099  -44.4325 O.2       4 UNK        -0.5000 
     52 CA         -2.1284  -13.7356  -45.0574 C.3       4 UNK         0.1400 
     53 CB         -2.5780  -13.0133  -43.7766 C.3       4 UNK        -0.1800 
     54 N          -0.8243  -13.2320  -45.4678 N.am      4 UNK        -0.5000 
     55 C          -0.6060  -12.2790  -46.3787 C.2       3 UNK         0.5000 
     56 O          -1.5110  -11.6572  -46.9403 O.2       3 UNK        -0.5000 
     57 CA          0.8607  -11.9604  -46.7274 C.3       3 UNK         0.1400 
     58 CB          1.8686  -13.0182  -46.2272 C.3       3 UNK        -0.1800 
     59 N           0.9903  -11.8450  -48.1766 N.am      3 UNK        -0.5000 
     60 C           1.3445  -10.7521  -48.8606 C.2       2 UNK         0.5000 
     61 O           1.6139   -9.6711  -48.3331 O.2       2 UNK        -0.5000 
     62 CA          1.4663  -10.9284  -50.3928 C.3       2 UNK         0.1400 
     63 CB          1.8620   -9.6273  -51.1146 C.3       2 UNK        -0.1800 
     64 N           2.4475  -11.9676  -50.7211 N.am      2 UNK        -0.5000 
     65 C           2.2208  -13.2852  -50.6445 C.2       1 UNK         0.5000 
     66 O           1.1101  -13.7642  -50.3994 O.2       1 UNK        -0.5000 
     67 C           1.0745  -22.6594  -47.3793 C.2       11 UNK         0.5000 
     68 O           0.9058  -23.0651  -48.5277 O.2       11 UNK        -0.5000 
     69 N           0.1387  -21.9888  -46.6890 N.am      12 UNK        -0.5000 
     70 CA         -1.2105  -21.7301  -47.1939 C.3       12 UNK         0.1400 
     71 CB         -1.9344  -20.7063  -46.3100 C.3       12 UNK        -0.1800 
     72 C          -2.0328  -23.0182  -47.3328 C.2       12 UNK         0.5000 
     73 O          -2.7163  -23.1825  -48.3400 O.2       12 UNK        -0.5000 
     74 N          -1.9149  -23.9245  -46.3509 N.am      13 UNK        -0.5000 
     75 CA         -2.5247  -25.2559  -46.3723 C.3       13 UNK         0.1400 
     76 CB         -2.2347  -25.9882  -45.0541 C.3       13 UNK        -0.1800 
     77 C          -2.0732  -26.0913  -47.5854 C.2       13 UNK         0.5000 
     78 O          -2.9189  -26.6686  -48.2702 O.2       13 UNK        -0.5000 
     79 N          -0.7593  -26.0896  -47.8565 N.am      14 UNK        -0.5000 
     80 CA         -0.1487  -26.7144  -49.0304 C.3       14 UNK         0.1400 
     81 CB          1.3809  -26.6844  -48.8898 C.3       14 UNK        -0.1800 
     82 C          -0.5898  -26.0602  -50.3536 C.2       14 UNK         0.5000 
     83 O          -0.9021  -26.7724  -51.3092 O.2       14 UNK        -0.5000 
     84 N          -0.6507  -24.7224  -50.3801 N.am      15 UNK        -0.5000 
     85 CA         -1.0922  -23.9035  -51.5113 C.3       15 UNK         0.1400 
     86 CB         -0.4925  -22.4942  -51.3668 C.3       15 UNK        -0.1800 
     87 C          -2.6294  -23.8758  -51.6673 C.2       15 UNK         0.5000 
     88 O          -3.2274  -22.7988  -51.7168 O.2       15 UNK        -0.5000 
     89 N          -3.2413  -25.0673  -51.7402 N.am      16 UNK        -0.5000 
     90 CA         -4.6670  -25.3332  -51.9728 C.3       16 UNK         0.1400 
     91 CB         -5.0310  -25.0059  -53.4360 C.3       16 UNK        -0.1800 
     92 C          -5.6020  -24.6372  -50.9602 C.2       16 UNK         0.5000 
     93 O          -6.6498  -24.1139  -51.3440 O.2       16 UNK        -0.5000 
     94 N          -5.1775  -24.6033  -49.6879 N.am      17 UNK        -0.5000 
     95 CA         -5.8244  -23.9239  -48.5563 C.3       17 UNK         0.1400 
     96 CB         -7.1717  -24.5951  -48.2174 C.3       17 UNK        -0.1800 
     97 C          -5.9528  -22.3921  -48.7290 C.2       17 UNK         0.5000 
     98 O          -6.7723  -21.7728  -48.0485 O.2       17 UNK        -0.5000 
     99 N          -5.1528  -21.8143  -49.6396 N.am      18 UNK        -0.5000 
    100 CA        -5.1600  -20.4206  -50.0852 C.3       18 UNK         0.1400 
    101 CB        -4.6162  -19.4905  -48.9817 C.3       18 UNK        -0.1800 
    102 C         -6.5279  -19.9752  -50.6455 C.2       18 UNK         0.5000 
    103 O         -6.9345  -18.8318  -50.4312 O.2       18 UNK        -0.5000 
    104 N         -7.2178  -20.8913  -51.3452 N.am      19 UNK        -0.5000 
    105 CA        -8.5036  -20.6670  -52.0082 C.3       19 UNK         0.1400 
    106 CB        -8.9887  -21.9852  -52.6311 C.3       19 UNK        -0.1800 
    107 C         -8.3941  -19.5538  -53.0660 C.2       19 UNK         0.5000 
    108 O         -7.6571  -19.7127  -54.0405 O.2       19 UNK        -0.5000 
    109 N         -9.0734  -18.4281  -52.8080 N.am      20 UNK        -0.5000 
    110 CA        -8.9566  -17.1179  -53.4636 C.3       20 UNK         0.1400 
    111 CB        -9.2101  -17.1861  -54.9827 C.3       20 UNK        -0.1800 
    112 C         -7.6303  -16.4051  -53.1281 C.2       20 UNK         0.5000 
    113 O         -7.6615  -15.2679  -52.6558 O.2       20 UNK        -0.5000 
    114 N         -6.5015  -17.0908  -53.3330 N.am      21 UNK        -0.5000 
    115 CA        -5.1564  -16.6850  -52.9425 C.3       21 UNK         0.1400 
    116 CB        -4.6297  -15.5888  -53.8886 C.3       21 UNK        -0.1800 
    117 C         -4.2414  -17.9181  -52.9765 C.2       21 UNK         0.5000 
    118 O         -4.5481  -18.8899  -53.6702 O.2       21 UNK        -0.5000 
    119 N         -3.1182  -17.8489  -52.2543 N.am      22 UNK        -0.5000 
    120 CA        -2.0369  -18.8502  -52.3003 C.3       22 UNK         0.1400 
    121 C         -1.1360  -18.7778  -53.5707 C.2       22 UNK         0.5000 
    122 N         -1.2444  -17.7568  -54.4130 N.am      22 UNK        -0.7600 
    123 O         -0.3323  -19.6747  -53.8068 O.2       22 UNK        -0.5000 
    124 C124       -1.2000  -18.8688  -50.9925 C.3       23 UNK        -0.0398 
    125 S125       -0.6230  -17.2253  -50.4367 S.3       23 UNK        -0.2404 
    126 C126       -0.0147  -17.6049  -48.7624 C.3       23 UNK        -0.0205 
    127 H127        1.3835  -17.4335  -53.0450 H         1 UNK         0.0600 
    128 H128        2.3942  -17.9380  -51.6908 H         1 UNK         0.0600 
    129 H129        3.0828  -17.8312  -53.3138 H         1 UNK         0.0600 
    130 H130        3.0463  -16.2423  -50.4106 H         1 UNK         0.3000 
    131 H131        4.1375  -13.7937  -51.4827 H         1 UNK         0.0600 
    132 H132        4.6369  -13.2047  -49.1940 H         1 UNK         0.0800 
    133 H133        3.4750  -14.3117  -48.5419 H         1 UNK         0.0800 
    134 H134        4.4497  -15.8464  -47.0515 H         1 UNK         0.0800 
    135 H135        5.6734  -17.0269  -47.4121 H         1 UNK         0.0800 
    136 H136        2.1317  -16.0937  -48.0542 H         1 UNK         0.1150 
    137 H137        1.0887  -20.0263  -49.3917 H         1 UNK         0.1150 
    138 H138        5.1979  -19.0127  -48.7358 H         1 UNK         0.1150 
    139 H139        2.7308  -21.6706  -49.7966 H         1 UNK         0.0800 
    140 H140        4.2329  -21.0239  -50.3930 H         1 UNK         0.0800 
    141 H141        2.9206  -20.8396  -46.7071 H         1 UNK         0.0800 
    142 H142        4.0623  -21.8298  -45.8711 H         1 UNK         0.0800 
    143 H143        2.8285  -23.8510  -47.1460 H         1 UNK         0.0600 
    144 H144        2.3420  -22.7046  -44.5406 H         1 UNK         0.3000 
    145 H145        0.4048  -25.4287  -43.3517 H         1 UNK         0.0600 
    146 H146        2.2416  -25.7681  -41.7267 H         1 UNK         0.0600 
    147 H147        2.6858  -26.4506  -43.2826 H         1 UNK         0.0600 
    148 H148        3.3703  -24.9103  -42.7770 H         1 UNK         0.0600 
    149 H149        1.6493  -23.3185  -41.9453 H         1 UNK         0.3000 
    150 H150       -1.1566  -21.3393  -41.7954 H         1 UNK         0.0600 
    151 H151        0.4325  -22.4030  -40.1650 H         1 UNK         0.0600 
    152 H152        0.5100  -20.6512  -40.1277 H         1 UNK         0.0600 
    153 H153        1.7817  -21.5602  -40.9298 H         1 UNK         0.0600 
    154 H154       -0.4538  -19.5199  -42.8044 H         1 UNK         0.3000 
    155 H155        2.6536  -18.3842  -44.1064 H         1 UNK         0.0600 
    156 H156       -0.1253  -18.4872  -45.3625 H         1 UNK         0.0600 
    157 H157        1.3121  -19.1996  -46.0921 H         1 UNK         0.0600 
    158 H158        1.2103  -17.4584  -45.8481 H         1 UNK         0.0600 
    159 H159        0.2143  -17.0226  -43.5317 H         1 UNK         0.3000 
    160 H160        0.9545  -16.1633  -40.1426 H         1 UNK         0.0600 
    161 H161        0.5405  -13.9279  -41.1554 H         1 UNK         0.0600 
    162 H162        0.8438  -14.5765  -42.7656 H         1 UNK         0.0600 
    163 H163        2.1385  -14.5230  -41.5781 H         1 UNK         0.0600 
    164 H164       -1.2031  -15.8108  -42.1050 H         1 UNK         0.3000 
    165 H165       -3.2810  -18.3088  -40.7137 H         1 UNK         0.0600 
    166 H166       -4.8722  -16.4481  -40.3077 H         1 UNK         0.0600 
    167 H167       -3.6363  -16.4686  -39.0602 H         1 UNK         0.0600 
    168 H168       -3.5551  -15.2751  -40.3506 H         1 UNK         0.0600 
    169 H169       -3.7549  -16.2253  -42.6223 H         1 UNK         0.3000 
    170 H170       -2.4209  -17.8628  -45.4625 H         1 UNK         0.0600 
    171 H171       -4.6117  -19.0235  -45.1774 H         1 UNK         0.0600 
    172 H172       -5.3581  -17.5126  -44.6700 H         1 UNK         0.0600 
    173 H173       -4.7365  -17.6890  -46.3115 H         1 UNK         0.0600 
    174 H174       -3.9596  -15.5152  -45.2837 H         1 UNK         0.3000 
    175 H175       -2.8626  -13.5741  -45.8496 H         1 UNK         0.0600 
    176 H176       -1.8707  -13.1645  -42.9597 H         1 UNK         0.0600 
    177 H177       -2.6701  -11.9399  -43.9432 H         1 UNK         0.0600 
    178 H178       -3.5513  -13.3740  -43.4419 H         1 UNK         0.0600 
    179 H179       -0.0429  -13.7545  -45.0933 H         1 UNK         0.3000 
    180 H180        1.0976  -11.0102  -46.2451 H         1 UNK         0.0600 
    181 H181        1.6473  -14.0106  -46.6226 H         1 UNK         0.0600 
    182 H182        1.8739  -13.0821  -45.1383 H         1 UNK         0.0600 
    183 H183        2.8835  -12.7611  -46.5312 H         1 UNK         0.0600 
    184 H184        0.7589  -12.6740  -48.7145 H         1 UNK         0.3000 
    185 H185        0.4848  -11.2285  -50.7661 H         1 UNK         0.0600 
    186 H186        1.1381   -8.8355  -50.9179 H         1 UNK         0.0600 
    187 H187        2.8400   -9.2674  -50.7926 H         1 UNK         0.0600 
    188 H188        1.8970   -9.7716  -52.1946 H         1 UNK         0.0600 
    189 H189        3.3887  -11.6426  -50.8906 H         1 UNK         0.3000 
    190 H190        0.3123  -21.7658  -45.7198 H         1 UNK         0.3000 
    191 H191       -1.1232  -21.2970  -48.1924 H         1 UNK         0.0600 
    192 H192       -1.8053  -20.9081  -45.2470 H         1 UNK         0.0600 
    193 H193       -3.0066  -20.6929  -46.5093 H         1 UNK         0.0600 
    194 H194       -1.5637  -19.7064  -46.5159 H         1 UNK         0.0600 
    195 H195       -1.3780  -23.6753  -45.5252 H         1 UNK         0.3000 
    196 H196       -3.6042  -25.1208  -46.4413 H         1 UNK         0.0600 
    197 H197       -2.7798  -26.9316  -45.0084 H         1 UNK         0.0600 
    198 H198       -2.5402  -25.3927  -44.1935 H         1 UNK         0.0600 
    199 H199       -1.1767  -26.2207  -44.9438 H         1 UNK         0.0600 
    200 H200       -0.1287  -25.6217  -47.2133 H         1 UNK         0.3000 
    201 H201       -0.4664  -27.7587  -49.0547 H         1 UNK         0.0600 
    202 H202        1.7041  -27.2144  -47.9937 H         1 UNK         0.0600 
    203 H203        1.7611  -25.6643  -48.8287 H         1 UNK         0.0600 
    204 H204        1.8615  -27.1641  -49.7433 H         1 UNK         0.0600 
    205 H205       -0.3510  -24.2089  -49.5571 H         1 UNK         0.3000 
    206 H206       -0.6889  -24.3369  -52.4286 H         1 UNK         0.0600 
    207 H207        0.5946  -22.5301  -51.2951 H         1 UNK         0.0600 
    208 H208       -0.7393  -21.8760  -52.2299 H         1 UNK         0.0600 
    209 H209       -0.8713  -21.9893  -50.4783 H         1 UNK         0.0600 
    210 H210       -2.6463  -25.8862  -51.6577 H         1 UNK         0.3000 
    211 H211       -4.8077  -26.4051  -51.8276 H         1 UNK         0.0600 
    212 H212       -4.9512  -23.9377  -53.6416 H         1 UNK         0.0600 
    213 H213       -6.0540  -25.3079  -53.6636 H         1 UNK         0.0600 
    214 H214       -4.3772  -25.5311  -54.1322 H         1 UNK         0.0600 
    215 H215       -4.2763  -25.0163  -49.4817 H         1 UNK         0.3000 
    216 H216       -5.1691  -24.0676  -47.6994 H         1 UNK         0.0600 
    217 H217       -7.5798  -24.2061  -47.2840 H         1 UNK         0.0600 
    218 H218       -7.0555  -25.6718  -48.0939 H         1 UNK         0.0600 
    219 H219       -7.9170  -24.4240  -48.9946 H         1 UNK         0.0600 
    220 H220       -4.4941  -22.4113  -50.1305 H         1 UNK         0.3000 
    221 H221       -4.4659  -20.3728  -50.9245 H         1 UNK         0.0600 
    222 H222       -5.2769  -19.4626  -48.1150 H         1 UNK         0.0600 
    223 H223       -3.6334  -19.8171  -48.6454 H         1 UNK         0.0600 
    224 H224       -4.5081  -18.4687  -49.3473 H         1 UNK         0.0600 
    225 H225       -6.8186  -21.8158  -51.4516 H         1 UNK         0.3000 
    226 H226       -9.2243  -20.3672  -51.2448 H         1 UNK         0.0600 
    227 H227       -9.9430  -21.8490  -53.1413 H         1 UNK         0.0600 
    228 H228       -8.2761  -22.3721  -53.3610 H         1 UNK         0.0600 
    229 H229       -9.1329  -22.7511  -51.8686 H         1 UNK         0.0600 
    230 H230       -9.6154  -18.4099  -51.9550 H         1 UNK         0.3000 
    231 H231       -9.7550  -16.5097  -53.0352 H         1 UNK         0.0600 
    232 H232      -10.1536  -17.6852  -55.2033 H         1 UNK         0.0600 
    233 H233       -8.4177  -17.7151  -55.5123 H         1 UNK         0.0600 
    234 H234       -9.2650  -16.1833  -55.4077 H         1 UNK         0.0600 
    235 H235       -6.5655  -18.0384  -53.6995 H         1 UNK         0.3000 
    236 H236       -5.1878  -16.3069  -51.9185 H         1 UNK         0.0600 
    237 H237       -5.2530  -14.6955  -53.8533 H         1 UNK         0.0600 
    238 H238       -3.6198  -15.2833  -53.6133 H         1 UNK         0.0600 
    239 H239       -4.6002  -15.9342  -54.9228 H         1 UNK         0.0600 
    240 H240       -2.9165  -17.0196  -51.7133 H         1 UNK         0.3000 
    241 H241       -2.5118  -19.8316  -52.3648 H         1 UNK         0.0600 
    242 H242       -0.6615  -17.7321  -55.2345 H         1 UNK         0.3800 
    243 H243       -1.8947  -17.0096  -54.2374 H         1 UNK         0.3800 
    244 H244       -1.8059  -19.3010  -50.1962 H         1 UNK         0.0800 
    245 H245       -0.3380  -19.5280  -51.0973 H         1 UNK         0.0800 
    246 H246       -0.1619  -16.7234  -48.1362 H         1 UNK         0.0800 
    247 H247       -0.6156  -18.3945  -48.3112 H         1 UNK         0.0800 
@<TRIPOS>BOND
     1    1    2 1    
     2    1  127 1    
     3    1  128 1    
     4    1  129 1    
     5    2    3 2    
     6    2    4 am   BACKBONE|DICT|INTERRES
     7    4    5 1    
     8    4  130 1    
     9    5    6 1    
    10    5   65 1    
    11    5  131 1    
    12    6    7 1    
    13    6  132 1    
    14    6  133 1    
    15    7    8 1    
    16    8    9 1    
    17    8  134 1    
    18    8  135 1    
    19    9   10 ar   
    20    9   14 ar   
    21   10   11 ar   
    22   10  136 1    
    23   11   12 ar   
    24   11  126 1    
    25   12   13 ar   
    26   12  137 1    
    27   13   14 ar   
    28   13   15 1    
    29   14  138 1    
    30   15   16 1    
    31   15  139 1    
    32   15  140 1    
    33   16   17 1    
    34   17   18 1    
    35   17  141 1    
    36   17  142 1    
    37   18   19 1    
    38   18   67 1    
    39   18  143 1    
    40   19   20 am   BACKBONE|DICT|INTERRES
    41   19  144 1    
    42   20   21 2    
    43   20   22 1    
    44   22   23 1    
    45   22   24 1    
    46   22  145 1    
    47   23  146 1    
    48   23  147 1    
    49   23  148 1    
    50   24   25 am   BACKBONE|DICT|INTERRES
    51   24  149 1    
    52   25   26 2    
    53   25   27 1    
    54   27   28 1    
    55   27   29 1    
    56   27  150 1    
    57   28  151 1    
    58   28  152 1    
    59   28  153 1    
    60   29   30 am   BACKBONE|DICT|INTERRES
    61   29  154 1    
    62   30   31 2    
    63   30   32 1    
    64   32   33 1    
    65   32   34 1    
    66   32  155 1    
    67   33  156 1    
    68   33  157 1    
    69   33  158 1    
    70   34   35 am   BACKBONE|DICT|INTERRES
    71   34  159 1    
    72   35   36 2    
    73   35   37 1    
    74   37   38 1    
    75   37   39 1    
    76   37  160 1    
    77   38  161 1    
    78   38  162 1    
    79   38  163 1    
    80   39   40 am   BACKBONE|DICT|INTERRES
    81   39  164 1    
    82   40   41 2    
    83   40   42 1    
    84   42   43 1    
    85   42   44 1    
    86   42  165 1    
    87   43  166 1    
    88   43  167 1    
    89   43  168 1    
    90   44   45 am   BACKBONE|DICT|INTERRES
    91   44  169 1    
    92   45   46 2    
    93   45   47 1    
    94   47   48 1    
    95   47   49 1    
    96   47  170 1    
    97   48  171 1    
    98   48  172 1    
    99   48  173 1    
   100   49   50 am   BACKBONE|DICT|INTERRES
   101   49  174 1    
   102   50   51 2    
   103   50   52 1    
   104   52   53 1    
   105   52   54 1    
   106   52  175 1    
   107   53  176 1    
   108   53  177 1    
   109   53  178 1    
   110   54   55 am   BACKBONE|DICT|INTERRES
   111   54  179 1    
   112   55   56 2    
   113   55   57 1    
   114   57   58 1    
   115   57   59 1    
   116   57  180 1    
   117   58  181 1    
   118   58  182 1    
   119   58  183 1    
   120   59   60 am   BACKBONE|DICT|INTERRES
   121   59  184 1    
   122   60   61 2    
   123   60   62 1    
   124   62   63 1    
   125   62   64 1    
   126   62  185 1    
   127   63  186 1    
   128   63  187 1    
   129   63  188 1    
   130   64   65 am   BACKBONE|DICT|INTERRES
   131   64  189 1    
   132   65   66 2    
   133   67   68 2    
   134   67   69 am   BACKBONE|DICT|INTERRES
   135   69   70 1    
   136   69  190 1    
   137   70   71 1    
   138   70   72 1    
   139   70  191 1    
   140   71  192 1    
   141   71  193 1    
   142   71  194 1    
   143   72   73 2    
   144   72   74 am   BACKBONE|DICT|INTERRES
   145   74   75 1    
   146   74  195 1    
   147   75   76 1    
   148   75   77 1    
   149   75  196 1    
   150   76  197 1    
   151   76  198 1    
   152   76  199 1    
   153   77   78 2    
   154   77   79 am   BACKBONE|DICT|INTERRES
   155   79   80 1    
   156   79  200 1    
   157   80   81 1    
   158   80   82 1    
   159   80  201 1    
   160   81  202 1    
   161   81  203 1    
   162   81  204 1    
   163   82   83 2    
   164   82   84 am   BACKBONE|DICT|INTERRES
   165   84   85 1    
   166   84  205 1    
   167   85   86 1    
   168   85   87 1    
   169   85  206 1    
   170   86  207 1    
   171   86  208 1    
   172   86  209 1    
   173   87   88 2    
   174   87   89 am   BACKBONE|DICT|INTERRES
   175   89   90 1    
   176   89  210 1    
   177   90   91 1    
   178   90   92 1    
   179   90  211 1    
   180   91  212 1    
   181   91  213 1    
   182   91  214 1    
   183   92   93 2    
   184   92   94 am   BACKBONE|DICT|INTERRES
   185   94   95 1    
   186   94  215 1    
   187   95   96 1    
   188   95   97 1    
   189   95  216 1    
   190   96  217 1    
   191   96  218 1    
   192   96  219 1    
   193   97   98 2    
   194   97   99 am   BACKBONE|DICT|INTERRES
   195   99  100 1    
   196   99  220 1    
   197  100  101 1    
   198  100  102 1    
   199  100  221 1    
   200  101  222 1    
   201  101  223 1    
   202  101  224 1    
   203  102  103 2    
   204  102  104 am   BACKBONE|DICT|INTERRES
   205  104  105 1    
   206  104  225 1    
   207  105  106 1    
   208  105  107 1    
   209  105  226 1    
   210  106  227 1    
   211  106  228 1    
   212  106  229 1    
   213  107  108 2    
   214  107  109 am   BACKBONE|DICT|INTERRES
   215  109  110 1    
   216  109  230 1    
   217  110  111 1    
   218  110  112 1    
   219  110  231 1    
   220  111  232 1    
   221  111  233 1    
   222  111  234 1    
   223  112  113 2    
   224  112  114 am   BACKBONE|DICT|INTERRES
   225  114  115 1    
   226  114  235 1    
   227  115  116 1    
   228  115  117 1    
   229  115  236 1    
   230  116  237 1    
   231  116  238 1    
   232  116  239 1    
   233  117  118 2    
   234  117  119 am   BACKBONE|DICT|INTERRES
   235  119  120 1    
   236  119  240 1    
   237  120  121 1    
   238  120  124 1    
   239  120  241 1    
   240  121  122 am   BACKBONE|DICT|INTERRES
   241  121  123 2    
   242  122  242 1    
   243  122  243 1    
   244  124  125 1    
   245  124  244 1    
   246  124  245 1    
   247  125  126 1    
   248  126  246 1    
   249  126  247 1    
@<TRIPOS>SUBSTRUCTURE
     1 UNK         1 GROUP             0       ****    0 ROOT    
