@<TRIPOS>MOLECULE
3R540
247   249    1
SMALL
USER_CHARGES


@<TRIPOS>ATOM
      1 CA         -4.8131  -16.2800  -46.8726 C.3       0 UNK        -0.1800 
      2 C          -3.3965  -15.7583  -47.0496 C.2       0 UNK         0.5000 
      3 O          -3.2136  -14.6385  -47.5281 O.2       0 UNK        -0.5000 
      4 N          -2.3989  -16.5624  -46.6660 N.am      1 UNK        -0.5000 
      5 CA         -0.9811  -16.2126  -46.7185 C.3       1 UNK         0.1400 
      6 C6         -0.0812  -17.4700  -46.6193 C.3       23 UNK        -0.0398 
      7 S7          1.4452  -17.2973  -47.5984 S.3       23 UNK        -0.2404 
      8 C8          1.0141  -18.2385  -49.0996 C.3       23 UNK        -0.0205 
      9 C9         -0.2333  -17.6921  -49.7820 C.ar      23 UNK        -0.0193 
     10 C10        -0.2151  -16.4247  -50.3700 C.ar      23 UNK        -0.1150 
     11 C11        -1.3673  -15.8989  -50.9610 C.ar      23 UNK        -0.0193 
     12 C12        -2.5370  -16.6635  -50.9879 C.ar      23 UNK        -0.1150 
     13 C13        -2.5614  -17.9447  -50.4281 C.ar      23 UNK        -0.0193 
     14 C14        -1.4104  -18.4454  -49.8142 C.ar      23 UNK        -0.1150 
     15 C15        -3.8183  -18.7968  -50.5288 C.3       23 UNK        -0.0205 
     16 S16        -4.5402  -19.2027  -48.9050 S.3       23 UNK        -0.2404 
     17 C17        -4.1298  -20.9713  -48.7117 C.3       23 UNK        -0.0398 
     18 CA         -3.5281  -21.3110  -47.3240 C.3       11 UNK         0.1400 
     19 N          -4.3802  -20.9271  -46.1829 N.am      11 UNK        -0.5000 
     20 C          -5.6299  -21.3250  -45.8920 C.2       10 UNK         0.5000 
     21 O          -6.2651  -22.1100  -46.5965 O.2       10 UNK        -0.5000 
     22 CA         -6.2600  -20.8380  -44.5696 C.3       10 UNK         0.1400 
     23 CB         -6.5567  -22.0365  -43.6520 C.3       10 UNK        -0.1800 
     24 N          -5.3964  -19.9082  -43.8403 N.am      10 UNK        -0.5000 
     25 C          -5.4922  -18.5730  -43.8772 C.2       9 UNK         0.5000 
     26 O          -6.3929  -17.9694  -44.4593 O.2       9 UNK        -0.5000 
     27 CA         -4.3858  -17.7704  -43.1561 C.3       9 UNK         0.1400 
     28 CB         -4.8979  -17.2379  -41.8096 C.3       9 UNK        -0.1800 
     29 N          -3.1415  -18.5159  -42.9280 N.am      9 UNK        -0.5000 
     30 C          -2.3579  -19.0196  -43.8878 C.2       8 UNK         0.5000 
     31 O          -2.6113  -18.9197  -45.0893 O.2       8 UNK        -0.5000 
     32 CA         -1.0958  -19.7707  -43.4315 C.3       8 UNK         0.1400 
     33 CB         -0.6326  -20.7928  -44.4847 C.3       8 UNK        -0.1800 
     34 N          -0.0014  -18.8430  -43.1752 N.am      8 UNK        -0.5000 
     35 C           0.1199  -18.0290  -42.1196 C.2       7 UNK         0.5000 
     36 O          -0.6937  -17.9983  -41.1946 O.2       7 UNK        -0.5000 
     37 CA          1.3430  -17.0835  -42.0991 C.3       7 UNK         0.1400 
     38 CB          1.9854  -16.9955  -40.6992 C.3       7 UNK        -0.1800 
     39 N           2.3576  -17.3705  -43.1275 N.am      7 UNK        -0.5000 
     40 C           3.1282  -18.4667  -43.2295 C.2       6 UNK         0.5000 
     41 O           3.0915  -19.4023  -42.4306 O.2       6 UNK        -0.5000 
     42 CA          4.0652  -18.5755  -44.4486 C.3       6 UNK         0.1400 
     43 CB          3.5235  -19.6161  -45.4412 C.3       6 UNK        -0.1800 
     44 N           4.2718  -17.3097  -45.1558 N.am      6 UNK        -0.5000 
     45 C           5.1280  -16.3590  -44.7592 C.2       5 UNK         0.5000 
     46 O           5.7994  -16.4460  -43.7291 O.2       5 UNK        -0.5000 
     47 CA          5.2845  -15.1144  -45.6555 C.3       5 UNK         0.1400 
     48 CB          4.3241  -15.0705  -46.8618 C.3       5 UNK        -0.1800 
     49 N           5.0673  -13.9261  -44.8397 N.am      5 UNK        -0.5000 
     50 C           6.0209  -13.1129  -44.3668 C.2       4 UNK         0.5000 
     51 O           7.2169  -13.2292  -44.6388 O.2       4 UNK        -0.5000 
     52 CA          5.5703  -11.9602  -43.4438 C.3       4 UNK         0.1400 
     53 CB          5.6400  -10.6180  -44.1896 C.3       4 UNK        -0.1800 
     54 N           4.2117  -12.1351  -42.9274 N.am      4 UNK        -0.5000 
     55 C           3.8635  -12.9725  -41.9406 C.2       3 UNK         0.5000 
     56 O           4.6701  -13.6215  -41.2752 O.2       3 UNK        -0.5000 
     57 CA          2.3526  -13.1309  -41.6747 C.3       3 UNK         0.1400 
     58 CB          1.9063  -12.2105  -40.5292 C.3       3 UNK        -0.1800 
     59 N           1.5182  -12.8710  -42.8538 N.am      3 UNK        -0.5000 
     60 C           1.5293  -13.6024  -43.9758 C.2       2 UNK         0.5000 
     61 O           2.2545  -14.5856  -44.1454 O.2       2 UNK        -0.5000 
     62 CA          0.6349  -13.1040  -45.1229 C.3       2 UNK         0.1400 
     63 CB          1.4001  -12.0768  -45.9720 C.3       2 UNK        -0.1800 
     64 N           0.1874  -14.1884  -45.9951 N.am      2 UNK        -0.5000 
     65 C          -0.6367  -15.1776  -45.6297 C.2       1 UNK         0.5000 
     66 O          -1.1125  -15.2970  -44.4972 O.2       1 UNK        -0.5000 
     67 C          -3.0634  -22.7864  -47.2838 C.2       11 UNK         0.5000 
     68 O          -1.9189  -23.0733  -47.6394 O.2       11 UNK        -0.5000 
     69 N          -3.9386  -23.6984  -46.8422 N.am      12 UNK        -0.5000 
     70 CA         -3.7352  -25.1468  -46.7696 C.3       12 UNK         0.1400 
     71 CB         -5.0325  -25.8090  -46.2837 C.3       12 UNK        -0.1800 
     72 C          -2.5490  -25.5750  -45.8887 C.2       12 UNK         0.5000 
     73 O          -1.8898  -26.5631  -46.2089 O.2       12 UNK        -0.5000 
     74 N          -2.2563  -24.7988  -44.8357 N.am      13 UNK        -0.5000 
     75 CA         -1.1117  -25.0087  -43.9430 C.3       13 UNK         0.1400 
     76 CB         -1.2708  -24.1239  -42.6969 C.3       13 UNK        -0.1800 
     77 C           0.2566  -24.7781  -44.6217 C.2       13 UNK         0.5000 
     78 O           1.2576  -25.3200  -44.1527 O.2       13 UNK        -0.5000 
     79 N           0.2723  -24.0131  -45.7226 N.am      14 UNK        -0.5000 
     80 CA          1.4342  -23.8089  -46.5912 C.3       14 UNK         0.1400 
     81 CB          1.4884  -22.3235  -46.9898 C.3       14 UNK        -0.1800 
     82 C           1.3790  -24.7011  -47.8491 C.2       14 UNK         0.5000 
     83 O           2.2641  -24.5912  -48.6980 O.2       14 UNK        -0.5000 
     84 N           0.3272  -25.5293  -47.9733 N.am      15 UNK        -0.5000 
     85 CA         -0.0601  -26.3223  -49.1482 C.3       15 UNK         0.1400 
     86 CB          0.9919  -27.4060  -49.4608 C.3       15 UNK        -0.1800 
     87 C          -0.4108  -25.4536  -50.3781 C.2       15 UNK         0.5000 
     88 O          -0.3588  -25.9351  -51.5107 O.2       15 UNK        -0.5000 
     89 N          -0.7738  -24.1874  -50.1343 N.am      16 UNK        -0.5000 
     90 CA         -1.0225  -23.1696  -51.1529 C.3       16 UNK         0.1400 
     91 CB         -0.5241  -21.8208  -50.6154 C.3       16 UNK        -0.1800 
     92 C          -2.5013  -23.0875  -51.5693 C.2       16 UNK         0.5000 
     93 O          -2.8232  -22.3422  -52.4924 O.2       16 UNK        -0.5000 
     94 N          -3.3820  -23.8567  -50.9107 N.am      17 UNK        -0.5000 
     95 CA         -4.8226  -23.9266  -51.1907 C.3       17 UNK         0.1400 
     96 CB         -5.5094  -24.7685  -50.1060 C.3       17 UNK        -0.1800 
     97 C          -5.1736  -24.4529  -52.5989 C.2       17 UNK         0.5000 
     98 O          -6.2784  -24.2035  -53.0800 O.2       17 UNK        -0.5000 
     99 N          -4.2193  -25.1270  -53.2557 N.am      18 UNK        -0.5000 
    100 CA        -4.2847  -25.5176  -54.6657 C.3       18 UNK         0.1400 
    101 CB        -3.1321  -26.4903  -54.9592 C.3       18 UNK        -0.1800 
    102 C         -4.2397  -24.3183  -55.6395 C.2       18 UNK         0.5000 
    103 O         -4.6418  -24.4673  -56.7939 O.2       18 UNK        -0.5000 
    104 N         -3.7633  -23.1597  -55.1653 N.am      19 UNK        -0.5000 
    105 CA        -3.6809  -21.9003  -55.8968 C.3       19 UNK         0.1400 
    106 CB        -2.2321  -21.6845  -56.3697 C.3       19 UNK        -0.1800 
    107 C         -4.1982  -20.7691  -54.9909 C.2       19 UNK         0.5000 
    108 O         -3.5243  -19.7499  -54.8214 O.2       19 UNK        -0.5000 
    109 N         -5.3941  -20.9816  -54.4173 N.am      20 UNK        -0.5000 
    110 CA        -6.0571  -20.1398  -53.4107 C.3       20 UNK         0.1400 
    111 CB        -7.3887  -20.7937  -53.0115 C.3       20 UNK        -0.1800 
    112 C         -6.2865  -18.6646  -53.8034 C.2       20 UNK         0.5000 
    113 O         -6.5016  -17.8317  -52.9235 O.2       20 UNK        -0.5000 
    114 N         -6.2061  -18.3566  -55.1032 N.am      21 UNK        -0.5000 
    115 CA        -6.2300  -17.0041  -55.6637 C.3       21 UNK         0.1400 
    116 CB        -6.6107  -17.1085  -57.1504 C.3       21 UNK        -0.1800 
    117 C         -4.9021  -16.2286  -55.4854 C.2       21 UNK         0.5000 
    118 O         -4.7922  -15.1174  -56.0053 O.2       21 UNK        -0.5000 
    119 N         -3.9226  -16.8163  -54.7819 N.am      22 UNK        -0.5000 
    120 CA        -2.5328  -16.3518  -54.6463 C.3       22 UNK         0.1400 
    121 C         -1.6946  -16.7011  -55.9102 C.2       22 UNK         0.5000 
    122 N         -1.8069  -17.9263  -56.4095 N.am      22 UNK        -0.7600 
    123 O         -0.9564  -15.8816  -56.4507 O.2       22 UNK        -0.5000 
    124 C124       -2.4129  -14.8783  -54.1588 C.3       23 UNK        -0.0398 
    125 S125       -0.8403  -14.5141  -53.3028 S.3       23 UNK        -0.2404 
    126 C126       -1.3442  -14.4992  -51.5537 C.3       23 UNK        -0.0205 
    127 H127       -5.3388  -15.7009  -46.1137 H         1 UNK         0.0600 
    128 H128       -4.8154  -17.3264  -46.5687 H         1 UNK         0.0600 
    129 H129       -5.3632  -16.2017  -47.8102 H         1 UNK         0.0600 
    130 H130       -2.6094  -17.4537  -46.2242 H         1 UNK         0.3000 
    131 H131       -0.8217  -15.7441  -47.6915 H         1 UNK         0.0600 
    132 H132        0.1888  -17.6896  -45.5879 H         1 UNK         0.0800 
    133 H133       -0.6139  -18.3540  -46.9723 H         1 UNK         0.0800 
    134 H134        1.8515  -18.1963  -49.7971 H         1 UNK         0.0800 
    135 H135        0.8861  -19.2902  -48.8380 H         1 UNK         0.0800 
    136 H136        0.6928  -15.8383  -50.3458 H         1 UNK         0.1150 
    137 H137       -3.4251  -16.2637  -51.4570 H         1 UNK         0.1150 
    138 H138       -1.4368  -19.4209  -49.3557 H         1 UNK         0.1150 
    139 H139       -4.5792  -18.2659  -51.1008 H         1 UNK         0.0800 
    140 H140       -3.5906  -19.6988  -51.0976 H         1 UNK         0.0800 
    141 H141       -3.4266  -21.2542  -49.4935 H         1 UNK         0.0800 
    142 H142       -5.0349  -21.5512  -48.8972 H         1 UNK         0.0800 
    143 H143       -2.6201  -20.7155  -47.2142 H         1 UNK         0.0600 
    144 H144       -3.9510  -20.2394  -45.5734 H         1 UNK         0.3000 
    145 H145       -7.2078  -20.3569  -44.8191 H         1 UNK         0.0600 
    146 H146       -7.0286  -21.7135  -42.7238 H         1 UNK         0.0600 
    147 H147       -7.2386  -22.7406  -44.1308 H         1 UNK         0.0600 
    148 H148       -5.6486  -22.5829  -43.3942 H         1 UNK         0.0600 
    149 H149       -4.6428  -20.3152  -43.3067 H         1 UNK         0.3000 
    150 H150       -4.1432  -16.9155  -43.7911 H         1 UNK         0.0600 
    151 H151       -5.1320  -18.0495  -41.1196 H         1 UNK         0.0600 
    152 H152       -5.8048  -16.6461  -41.9412 H         1 UNK         0.0600 
    153 H153       -4.1581  -16.5940  -41.3334 H         1 UNK         0.0600 
    154 H154       -2.8227  -18.5813  -41.9697 H         1 UNK         0.3000 
    155 H155       -1.3291  -20.3118  -42.5122 H         1 UNK         0.0600 
    156 H156       -0.3170  -20.3099  -45.4097 H         1 UNK         0.0600 
    157 H157       -1.4340  -21.4864  -44.7403 H         1 UNK         0.0600 
    158 H158        0.2050  -21.3834  -44.1132 H         1 UNK         0.0600 
    159 H159        0.7275  -18.8061  -43.8696 H         1 UNK         0.3000 
    160 H160        0.9458  -16.0974  -42.3390 H         1 UNK         0.0600 
    161 H161        2.2776  -17.9769  -40.3250 H         1 UNK         0.0600 
    162 H162        1.2897  -16.5670  -39.9770 H         1 UNK         0.0600 
    163 H163        2.8745  -16.3650  -40.7084 H         1 UNK         0.0600 
    164 H164        2.4839  -16.6300  -43.8101 H         1 UNK         0.3000 
    165 H165        5.0308  -18.9339  -44.0853 H         1 UNK         0.0600 
    166 H166        4.1700  -19.7090  -46.3140 H         1 UNK         0.0600 
    167 H167        3.4671  -20.6009  -44.9758 H         1 UNK         0.0600 
    168 H168        2.5225  -19.3621  -45.7891 H         1 UNK         0.0600 
    169 H169        3.7413  -17.1687  -46.0041 H         1 UNK         0.3000 
    170 H170        6.3047  -15.1306  -46.0435 H         1 UNK         0.0600 
    171 H171        4.4799  -15.9209  -47.5267 H         1 UNK         0.0600 
    172 H172        3.2783  -15.0691  -46.5545 H         1 UNK         0.0600 
    173 H173        4.4898  -14.1710  -47.4549 H         1 UNK         0.0600 
    174 H174        4.1211  -13.8145  -44.4965 H         1 UNK         0.3000 
    175 H175        6.2643  -11.9215  -42.6015 H         1 UNK         0.0600 
    176 H176        4.9637  -10.5975  -45.0452 H         1 UNK         0.0600 
    177 H177        5.3783   -9.7877  -43.5334 H         1 UNK         0.0600 
    178 H178        6.6474  -10.4296  -44.5630 H         1 UNK         0.0600 
    179 H179        3.4801  -11.6287  -43.4032 H         1 UNK         0.3000 
    180 H180        2.1825  -14.1626  -41.3662 H         1 UNK         0.0600 
    181 H181        2.0293  -11.1578  -40.7868 H         1 UNK         0.0600 
    182 H182        2.4903  -12.3982  -39.6271 H         1 UNK         0.0600 
    183 H183        0.8589  -12.3754  -40.2757 H         1 UNK         0.0600 
    184 H184        0.9031  -12.0717  -42.7964 H         1 UNK         0.3000 
    185 H185       -0.2493  -12.6252  -44.6970 H         1 UNK         0.0600 
    186 H186        1.7180  -11.2250  -45.3694 H         1 UNK         0.0600 
    187 H187        2.2939  -12.5115  -46.4221 H         1 UNK         0.0600 
    188 H188        0.7762  -11.6862  -46.7762 H         1 UNK         0.0600 
    189 H189        0.5620  -14.1883  -46.9322 H         1 UNK         0.3000 
    190 H190       -4.8700  -23.3597  -46.6155 H         1 UNK         0.3000 
    191 H191       -3.5289  -25.4999  -47.7816 H         1 UNK         0.0600 
    192 H192       -5.8629  -25.5920  -46.9559 H         1 UNK         0.0600 
    193 H193       -4.9268  -26.8938  -46.2395 H         1 UNK         0.0600 
    194 H194       -5.3107  -25.4637  -45.2871 H         1 UNK         0.0600 
    195 H195       -2.8503  -24.0063  -44.6433 H         1 UNK         0.3000 
    196 H196       -1.1315  -26.0506  -43.6161 H         1 UNK         0.0600 
    197 H197       -0.4350  -24.2620  -42.0098 H         1 UNK         0.0600 
    198 H198       -2.1809  -24.3743  -42.1516 H         1 UNK         0.0600 
    199 H199       -1.3144  -23.0661  -42.9495 H         1 UNK         0.0600 
    200 H200       -0.5991  -23.6247  -46.0626 H         1 UNK         0.3000 
    201 H201        2.3563  -24.0523  -46.0599 H         1 UNK         0.0600 
    202 H202        2.3475  -22.1142  -47.6283 H         1 UNK         0.0600 
    203 H203        1.5844  -21.6903  -46.1106 H         1 UNK         0.0600 
    204 H204        0.5939  -22.0140  -47.5312 H         1 UNK         0.0600 
    205 H205       -0.3197  -25.5881  -47.1962 H         1 UNK         0.3000 
    206 H206       -0.9831  -26.8343  -48.8733 H         1 UNK         0.0600 
    207 H207        1.2227  -27.9978  -48.5750 H         1 UNK         0.0600 
    208 H208        0.6281  -28.0952  -50.2237 H         1 UNK         0.0600 
    209 H209        1.9231  -26.9756  -49.8298 H         1 UNK         0.0600 
    210 H210       -0.8503  -23.8788  -49.1707 H         1 UNK         0.3000 
    211 H211       -0.4511  -23.4023  -52.0539 H         1 UNK         0.0600 
    212 H212       -0.9964  -21.5746  -49.6661 H         1 UNK         0.0600 
    213 H213       -0.7313  -21.0102  -51.3155 H         1 UNK         0.0600 
    214 H214        0.5535  -21.8398  -50.4512 H         1 UNK         0.0600 
    215 H215       -3.0293  -24.4526  -50.1773 H         1 UNK         0.3000 
    216 H216       -5.2191  -22.9108  -51.1314 H         1 UNK         0.0600 
    217 H217       -6.5747  -24.8821  -50.3115 H         1 UNK         0.0600 
    218 H218       -5.4254  -24.2919  -49.1307 H         1 UNK         0.0600 
    219 H219       -5.0798  -25.7685  -50.0366 H         1 UNK         0.0600 
    220 H220       -3.3450  -25.2988  -52.7814 H         1 UNK         0.3000 
    221 H221       -5.2285  -26.0410  -54.8321 H         1 UNK         0.0600 
    222 H222       -2.1602  -26.0240  -54.7918 H         1 UNK         0.0600 
    223 H223       -3.1927  -27.3767  -54.3274 H         1 UNK         0.0600 
    224 H224       -3.1598  -26.8293  -55.9956 H         1 UNK         0.0600 
    225 H225       -3.4760  -23.1004  -54.1923 H         1 UNK         0.3000 
    226 H226       -4.3317  -21.9248  -56.7730 H         1 UNK         0.0600 
    227 H227       -1.8928  -22.5148  -56.9892 H         1 UNK         0.0600 
    228 H228       -2.1465  -20.7786  -56.9699 H         1 UNK         0.0600 
    229 H229       -1.5450  -21.5929  -55.5273 H         1 UNK         0.0600 
    230 H230       -5.8566  -21.8563  -54.6223 H         1 UNK         0.3000 
    231 H231       -5.4124  -20.1365  -52.5321 H         1 UNK         0.0600 
    232 H232       -8.0532  -20.9071  -53.8688 H         1 UNK         0.0600 
    233 H233       -7.9138  -20.1955  -52.2654 H         1 UNK         0.0600 
    234 H234       -7.2313  -21.7786  -52.5740 H         1 UNK         0.0600 
    235 H235       -6.0171  -19.1063  -55.7518 H         1 UNK         0.3000 
    236 H236       -7.0067  -16.4306  -55.1538 H         1 UNK         0.0600 
    237 H237       -7.5645  -17.6206  -57.2790 H         1 UNK         0.0600 
    238 H238       -6.7137  -16.1211  -57.6021 H         1 UNK         0.0600 
    239 H239       -5.8565  -17.6531  -57.7200 H         1 UNK         0.0600 
    240 H240       -4.0821  -17.7654  -54.4667 H         1 UNK         0.3000 
    241 H241       -2.1142  -16.9777  -53.8575 H         1 UNK         0.0600 
    242 H242       -1.2802  -18.1802  -57.2298 H         1 UNK         0.3800 
    243 H243       -2.3928  -18.6127  -55.9449 H         1 UNK         0.3800 
    244 H244       -2.5166  -14.1855  -54.9950 H         1 UNK         0.0800 
    245 H245       -3.2363  -14.6436  -53.4838 H         1 UNK         0.0800 
    246 H246       -2.3155  -14.0163  -51.4381 H         1 UNK         0.0800 
    247 H247       -0.6386  -13.8814  -50.9961 H         1 UNK         0.0800 
@<TRIPOS>BOND
     1    1    2 1    
     2    1  127 1    
     3    1  128 1    
     4    1  129 1    
     5    2    3 2    
     6    2    4 am   BACKBONE|DICT|INTERRES
     7    4    5 1    
     8    4  130 1    
     9    5    6 1    
    10    5   65 1    
    11    5  131 1    
    12    6    7 1    
    13    6  132 1    
    14    6  133 1    
    15    7    8 1    
    16    8    9 1    
    17    8  134 1    
    18    8  135 1    
    19    9   10 ar   
    20    9   14 ar   
    21   10   11 ar   
    22   10  136 1    
    23   11   12 ar   
    24   11  126 1    
    25   12   13 ar   
    26   12  137 1    
    27   13   14 ar   
    28   13   15 1    
    29   14  138 1    
    30   15   16 1    
    31   15  139 1    
    32   15  140 1    
    33   16   17 1    
    34   17   18 1    
    35   17  141 1    
    36   17  142 1    
    37   18   19 1    
    38   18   67 1    
    39   18  143 1    
    40   19   20 am   BACKBONE|DICT|INTERRES
    41   19  144 1    
    42   20   21 2    
    43   20   22 1    
    44   22   23 1    
    45   22   24 1    
    46   22  145 1    
    47   23  146 1    
    48   23  147 1    
    49   23  148 1    
    50   24   25 am   BACKBONE|DICT|INTERRES
    51   24  149 1    
    52   25   26 2    
    53   25   27 1    
    54   27   28 1    
    55   27   29 1    
    56   27  150 1    
    57   28  151 1    
    58   28  152 1    
    59   28  153 1    
    60   29   30 am   BACKBONE|DICT|INTERRES
    61   29  154 1    
    62   30   31 2    
    63   30   32 1    
    64   32   33 1    
    65   32   34 1    
    66   32  155 1    
    67   33  156 1    
    68   33  157 1    
    69   33  158 1    
    70   34   35 am   BACKBONE|DICT|INTERRES
    71   34  159 1    
    72   35   36 2    
    73   35   37 1    
    74   37   38 1    
    75   37   39 1    
    76   37  160 1    
    77   38  161 1    
    78   38  162 1    
    79   38  163 1    
    80   39   40 am   BACKBONE|DICT|INTERRES
    81   39  164 1    
    82   40   41 2    
    83   40   42 1    
    84   42   43 1    
    85   42   44 1    
    86   42  165 1    
    87   43  166 1    
    88   43  167 1    
    89   43  168 1    
    90   44   45 am   BACKBONE|DICT|INTERRES
    91   44  169 1    
    92   45   46 2    
    93   45   47 1    
    94   47   48 1    
    95   47   49 1    
    96   47  170 1    
    97   48  171 1    
    98   48  172 1    
    99   48  173 1    
   100   49   50 am   BACKBONE|DICT|INTERRES
   101   49  174 1    
   102   50   51 2    
   103   50   52 1    
   104   52   53 1    
   105   52   54 1    
   106   52  175 1    
   107   53  176 1    
   108   53  177 1    
   109   53  178 1    
   110   54   55 am   BACKBONE|DICT|INTERRES
   111   54  179 1    
   112   55   56 2    
   113   55   57 1    
   114   57   58 1    
   115   57   59 1    
   116   57  180 1    
   117   58  181 1    
   118   58  182 1    
   119   58  183 1    
   120   59   60 am   BACKBONE|DICT|INTERRES
   121   59  184 1    
   122   60   61 2    
   123   60   62 1    
   124   62   63 1    
   125   62   64 1    
   126   62  185 1    
   127   63  186 1    
   128   63  187 1    
   129   63  188 1    
   130   64   65 am   BACKBONE|DICT|INTERRES
   131   64  189 1    
   132   65   66 2    
   133   67   68 2    
   134   67   69 am   BACKBONE|DICT|INTERRES
   135   69   70 1    
   136   69  190 1    
   137   70   71 1    
   138   70   72 1    
   139   70  191 1    
   140   71  192 1    
   141   71  193 1    
   142   71  194 1    
   143   72   73 2    
   144   72   74 am   BACKBONE|DICT|INTERRES
   145   74   75 1    
   146   74  195 1    
   147   75   76 1    
   148   75   77 1    
   149   75  196 1    
   150   76  197 1    
   151   76  198 1    
   152   76  199 1    
   153   77   78 2    
   154   77   79 am   BACKBONE|DICT|INTERRES
   155   79   80 1    
   156   79  200 1    
   157   80   81 1    
   158   80   82 1    
   159   80  201 1    
   160   81  202 1    
   161   81  203 1    
   162   81  204 1    
   163   82   83 2    
   164   82   84 am   BACKBONE|DICT|INTERRES
   165   84   85 1    
   166   84  205 1    
   167   85   86 1    
   168   85   87 1    
   169   85  206 1    
   170   86  207 1    
   171   86  208 1    
   172   86  209 1    
   173   87   88 2    
   174   87   89 am   BACKBONE|DICT|INTERRES
   175   89   90 1    
   176   89  210 1    
   177   90   91 1    
   178   90   92 1    
   179   90  211 1    
   180   91  212 1    
   181   91  213 1    
   182   91  214 1    
   183   92   93 2    
   184   92   94 am   BACKBONE|DICT|INTERRES
   185   94   95 1    
   186   94  215 1    
   187   95   96 1    
   188   95   97 1    
   189   95  216 1    
   190   96  217 1    
   191   96  218 1    
   192   96  219 1    
   193   97   98 2    
   194   97   99 am   BACKBONE|DICT|INTERRES
   195   99  100 1    
   196   99  220 1    
   197  100  101 1    
   198  100  102 1    
   199  100  221 1    
   200  101  222 1    
   201  101  223 1    
   202  101  224 1    
   203  102  103 2    
   204  102  104 am   BACKBONE|DICT|INTERRES
   205  104  105 1    
   206  104  225 1    
   207  105  106 1    
   208  105  107 1    
   209  105  226 1    
   210  106  227 1    
   211  106  228 1    
   212  106  229 1    
   213  107  108 2    
   214  107  109 am   BACKBONE|DICT|INTERRES
   215  109  110 1    
   216  109  230 1    
   217  110  111 1    
   218  110  112 1    
   219  110  231 1    
   220  111  232 1    
   221  111  233 1    
   222  111  234 1    
   223  112  113 2    
   224  112  114 am   BACKBONE|DICT|INTERRES
   225  114  115 1    
   226  114  235 1    
   227  115  116 1    
   228  115  117 1    
   229  115  236 1    
   230  116  237 1    
   231  116  238 1    
   232  116  239 1    
   233  117  118 2    
   234  117  119 am   BACKBONE|DICT|INTERRES
   235  119  120 1    
   236  119  240 1    
   237  120  121 1    
   238  120  124 1    
   239  120  241 1    
   240  121  122 am   BACKBONE|DICT|INTERRES
   241  121  123 2    
   242  122  242 1    
   243  122  243 1    
   244  124  125 1    
   245  124  244 1    
   246  124  245 1    
   247  125  126 1    
   248  126  246 1    
   249  126  247 1    
@<TRIPOS>SUBSTRUCTURE
     1 UNK         1 GROUP             0       ****    0 ROOT    
