@<TRIPOS>MOLECULE
3R540
247   249    1
SMALL
USER_CHARGES


@<TRIPOS>ATOM
      1 CA         -0.0617  -13.5561  -43.0602 C.3       0 UNK        -0.1800 
      2 C           0.5217  -13.2825  -44.4383 C.2       0 UNK         0.5000 
      3 O           1.3630  -12.3958  -44.5794 O.2       0 UNK        -0.5000 
      4 N           0.0720  -14.0313  -45.4546 N.am      1 UNK        -0.5000 
      5 CA          0.4826  -13.8772  -46.8586 C.3       1 UNK         0.1400 
      6 C6         -0.4089  -14.6854  -47.8300 C.3       23 UNK        -0.0398 
      7 S7         -2.1825  -14.2750  -47.7308 S.3       23 UNK        -0.2404 
      8 C8         -2.9310  -15.8677  -48.2003 C.3       23 UNK        -0.0205 
      9 C9         -2.7636  -16.1818  -49.6806 C.ar      23 UNK        -0.0193 
     10 C10        -3.7870  -15.8774  -50.5819 C.ar      23 UNK        -0.1150 
     11 C11        -3.6625  -16.1988  -51.9368 C.ar      23 UNK        -0.0193 
     12 C12        -2.4881  -16.8102  -52.3904 C.ar      23 UNK        -0.1150 
     13 C13        -1.4516  -17.1138  -51.5020 C.ar      23 UNK        -0.0193 
     14 C14        -1.6019  -16.8046  -50.1470 C.ar      23 UNK        -0.1150 
     15 C15        -0.1561  -17.7267  -52.0203 C.3       23 UNK        -0.0205 
     16 S16        -0.1086  -19.5413  -51.8557 S.3       23 UNK        -0.2404 
     17 C17         0.5266  -19.7616  -50.1536 C.3       23 UNK        -0.0398 
     18 CA         -0.1511  -20.8306  -49.2458 C.3       11 UNK         0.1400 
     19 N           0.0225  -20.4948  -47.8309 N.am      11 UNK        -0.5000 
     20 C          -0.1748  -21.3178  -46.7962 C.2       10 UNK         0.5000 
     21 O          -0.5953  -22.4673  -46.9142 O.2       10 UNK        -0.5000 
     22 CA          0.1242  -20.7573  -45.3922 C.3       10 UNK         0.1400 
     23 CB          1.5762  -20.2562  -45.2685 C.3       10 UNK        -0.1800 
     24 N          -0.8264  -19.7331  -44.9441 N.am      10 UNK        -0.5000 
     25 C          -1.0859  -18.5355  -45.4901 C.2       9 UNK         0.5000 
     26 O          -0.5514  -18.1027  -46.5115 O.2       9 UNK        -0.5000 
     27 CA         -2.1148  -17.6638  -44.7498 C.3       9 UNK         0.1400 
     28 CB         -3.5451  -18.0893  -45.1131 C.3       9 UNK        -0.1800 
     29 N          -1.9644  -17.7045  -43.2953 N.am      9 UNK        -0.5000 
     30 C          -0.9064  -17.2371  -42.6214 C.2       8 UNK         0.5000 
     31 O           0.0869  -16.7404  -43.1589 O.2       8 UNK        -0.5000 
     32 CA         -0.9825  -17.3644  -41.0932 C.3       8 UNK         0.1400 
     33 CB         -0.3456  -18.6793  -40.6176 C.3       8 UNK        -0.1800 
     34 N          -0.2928  -16.2493  -40.4537 N.am      8 UNK        -0.5000 
     35 C          -0.8940  -15.2283  -39.8290 C.2       7 UNK         0.5000 
     36 O          -2.1172  -15.0952  -39.7558 O.2       7 UNK        -0.5000 
     37 CA          0.0404  -14.1970  -39.1602 C.3       7 UNK         0.1400 
     38 CB         -0.6755  -13.2850  -38.1429 C.3       7 UNK        -0.1800 
     39 N           1.2179  -14.8343  -38.5651 N.am      7 UNK        -0.5000 
     40 C           1.2592  -15.7438  -37.5794 C.2       6 UNK         0.5000 
     41 O           0.2852  -16.0794  -36.9048 O.2       6 UNK        -0.5000 
     42 CA          2.6189  -16.4256  -37.3297 C.3       6 UNK         0.1400 
     43 CB          2.6000  -17.8571  -37.8905 C.3       6 UNK        -0.1800 
     44 N           3.7257  -15.6977  -37.9541 N.am      6 UNK        -0.5000 
     45 C           4.4225  -14.7160  -37.3659 C.2       5 UNK         0.5000 
     46 O           4.2647  -14.3684  -36.1951 O.2       5 UNK        -0.5000 
     47 CA          5.4562  -13.9838  -38.2445 C.3       5 UNK         0.1400 
     48 CB          6.8179  -14.6922  -38.1800 C.3       5 UNK        -0.1800 
     49 N           5.0375  -13.8733  -39.6445 N.am      5 UNK        -0.5000 
     50 C           4.0141  -13.1228  -40.0774 C.2       4 UNK         0.5000 
     51 O           3.3360  -12.4040  -39.3442 O.2       4 UNK        -0.5000 
     52 CA          3.6580  -13.2199  -41.5719 C.3       4 UNK         0.1400 
     53 CB          4.3560  -12.1080  -42.3679 C.3       4 UNK        -0.1800 
     54 N           3.9803  -14.5131  -42.1787 N.am      4 UNK        -0.5000 
     55 C           3.4473  -15.6968  -41.8492 C.2       3 UNK         0.5000 
     56 O           2.6373  -15.8467  -40.9324 O.2       3 UNK        -0.5000 
     57 CA          3.8982  -16.8964  -42.7069 C.3       3 UNK         0.1400 
     58 CB          3.2586  -18.2250  -42.2741 C.3       3 UNK        -0.1800 
     59 N           3.6025  -16.6679  -44.1221 N.am      3 UNK        -0.5000 
     60 C           4.3693  -15.9540  -44.9583 C.2       2 UNK         0.5000 
     61 O           5.4319  -15.4289  -44.6233 O.2       2 UNK        -0.5000 
     62 CA          3.8273  -15.7293  -46.3731 C.3       2 UNK         0.1400 
     63 CB          3.8730  -17.0147  -47.2162 C.3       2 UNK        -0.1800 
     64 N           2.4597  -15.2216  -46.3034 N.am      2 UNK        -0.5000 
     65 C           1.9561  -14.2694  -47.0971 C.2       1 UNK         0.5000 
     66 O           2.5903  -13.7188  -47.9985 O.2       1 UNK        -0.5000 
     67 C          -1.6267  -21.1570  -49.5694 C.2       11 UNK         0.5000 
     68 O          -1.9060  -22.2109  -50.1420 O.2       11 UNK        -0.5000 
     69 N          -2.5501  -20.2911  -49.1296 N.am      12 UNK        -0.5000 
     70 CA         -3.9928  -20.4993  -49.2855 C.3       12 UNK         0.1400 
     71 CB         -4.7170  -19.1548  -49.1537 C.3       12 UNK        -0.1800 
     72 C          -4.5699  -21.5297  -48.2956 C.2       12 UNK         0.5000 
     73 O          -5.6376  -22.0814  -48.5594 O.2       12 UNK        -0.5000 
     74 N          -3.8602  -21.7813  -47.1848 N.am      13 UNK        -0.5000 
     75 CA         -4.2036  -22.8213  -46.2127 C.3       13 UNK         0.1400 
     76 CB         -3.4865  -22.5539  -44.8800 C.3       13 UNK        -0.1800 
     77 C          -3.8756  -24.2240  -46.7558 C.2       13 UNK         0.5000 
     78 O          -4.6920  -25.1356  -46.6188 O.2       13 UNK        -0.5000 
     79 N          -2.7053  -24.3590  -47.3973 N.am      14 UNK        -0.5000 
     80 CA         -2.2969  -25.5497  -48.1438 C.3       14 UNK         0.1400 
     81 CB         -0.7999  -25.4481  -48.4761 C.3       14 UNK        -0.1800 
     82 C          -3.1161  -25.7392  -49.4339 C.2       14 UNK         0.5000 
     83 O          -3.3644  -26.8763  -49.8356 O.2       14 UNK        -0.5000 
     84 N          -3.4981  -24.6184  -50.0628 N.am      15 UNK        -0.5000 
     85 CA         -4.2977  -24.4455  -51.2806 C.3       15 UNK         0.1400 
     86 CB         -5.6877  -25.0929  -51.1509 C.3       15 UNK        -0.1800 
     87 C          -3.5851  -24.8935  -52.5676 C.2       15 UNK         0.5000 
     88 O          -3.6595  -24.1877  -53.5727 O.2       15 UNK        -0.5000 
     89 N          -2.8674  -26.0225  -52.5194 N.am      16 UNK        -0.5000 
     90 CA         -2.0673  -26.5730  -53.6161 C.3       16 UNK         0.1400 
     91 CB         -1.4883  -27.9283  -53.1857 C.3       16 UNK        -0.1800 
     92 C          -0.9447  -25.6269  -54.0831 C.2       16 UNK         0.5000 
     93 O          -0.6563  -25.5699  -55.2783 O.2       16 UNK        -0.5000 
     94 N          -0.3792  -24.8542  -53.1444 N.am      17 UNK        -0.5000 
     95 CA          0.6086  -23.8028  -53.4028 C.3       17 UNK         0.1400 
     96 CB          1.1783  -23.3187  -52.0622 C.3       17 UNK        -0.1800 
     97 C           0.0385  -22.6159  -54.2071 C.2       17 UNK         0.5000 
     98 O           0.7861  -21.9633  -54.9355 O.2       17 UNK        -0.5000 
     99 N          -1.2753  -22.3852  -54.0866 N.am      18 UNK        -0.5000 
    100 CA        -2.0356  -21.3894  -54.8399 C.3       18 UNK         0.1400 
    101 CB        -3.0957  -20.7756  -53.9087 C.3       18 UNK        -0.1800 
    102 C         -2.7067  -22.0003  -56.0873 C.2       18 UNK         0.5000 
    103 O         -3.5271  -21.3287  -56.7118 O.2       18 UNK        -0.5000 
    104 N         -2.4074  -23.2718  -56.4030 N.am      19 UNK        -0.5000 
    105 CA        -3.0110  -24.0873  -57.4656 C.3       19 UNK         0.1400 
    106 CB        -2.5922  -23.5624  -58.8544 C.3       19 UNK        -0.1800 
    107 C         -4.5426  -24.2387  -57.3170 C.2       19 UNK         0.5000 
    108 O         -5.2550  -24.3330  -58.3176 O.2       19 UNK        -0.5000 
    109 N         -5.0149  -24.2280  -56.0610 N.am      20 UNK        -0.5000 
    110 CA        -6.4096  -24.2465  -55.6121 C.3       20 UNK         0.1400 
    111 CB        -7.1161  -25.5480  -56.0438 C.3       20 UNK        -0.1800 
    112 C         -7.2180  -22.9807  -55.9759 C.2       20 UNK         0.5000 
    113 O         -8.4396  -22.9861  -55.8145 O.2       20 UNK        -0.5000 
    114 N         -6.5486  -21.9079  -56.4276 N.am      21 UNK        -0.5000 
    115 CA        -7.1784  -20.6186  -56.7287 C.3       21 UNK         0.1400 
    116 CB        -6.2759  -19.8151  -57.6773 C.3       21 UNK        -0.1800 
    117 C         -7.4846  -19.8019  -55.4587 C.2       21 UNK         0.5000 
    118 O         -8.3889  -18.9657  -55.4828 O.2       21 UNK        -0.5000 
    119 N         -6.7363  -20.0655  -54.3818 N.am      22 UNK        -0.5000 
    120 CA        -6.9005  -19.4726  -53.0496 C.3       22 UNK         0.1400 
    121 C         -7.0306  -20.6051  -51.9989 C.2       22 UNK         0.5000 
    122 N         -7.7930  -20.3950  -50.9357 N.am      22 UNK        -0.7600 
    123 O         -6.4126  -21.6606  -52.1204 O.2       22 UNK        -0.5000 
    124 C124       -5.7279  -18.5303  -52.6649 C.3       23 UNK        -0.0398 
    125 S125       -5.3240  -17.2721  -53.9266 S.3       23 UNK        -0.2404 
    126 C126       -4.7943  -15.8598  -52.9018 C.3       23 UNK        -0.0205 
    127 H127        0.6313  -14.1619  -42.4778 H         1 UNK         0.0600 
    128 H128       -1.0105  -14.0889  -43.1250 H         1 UNK         0.0600 
    129 H129       -0.2350  -12.6216  -42.5266 H         1 UNK         0.0600 
    130 H130       -0.6238  -14.7399  -45.2755 H         1 UNK         0.3000 
    131 H131        0.3856  -12.8198  -47.1142 H         1 UNK         0.0600 
    132 H132       -0.0950  -14.5217  -48.8630 H         1 UNK         0.0800 
    133 H133       -0.2813  -15.7503  -47.6352 H         1 UNK         0.0800 
    134 H134       -3.9907  -15.8461  -47.9416 H         1 UNK         0.0800 
    135 H135       -2.4930  -16.6670  -47.6064 H         1 UNK         0.0800 
    136 H136       -4.6872  -15.3986  -50.2229 H         1 UNK         0.1150 
    137 H137       -2.3805  -17.0458  -53.4399 H         1 UNK         0.1150 
    138 H138       -0.8089  -17.0345  -49.4533 H         1 UNK         0.1150 
    139 H139        0.7013  -17.2816  -51.5133 H         1 UNK         0.0800 
    140 H140       -0.0336  -17.4798  -53.0759 H         1 UNK         0.0800 
    141 H141        0.4919  -18.7934  -49.6579 H         1 UNK         0.0800 
    142 H142        1.5904  -19.9897  -50.2312 H         1 UNK         0.0800 
    143 H143        0.3940  -21.7631  -49.4040 H         1 UNK         0.0600 
    144 H144        0.2487  -19.5308  -47.6092 H         1 UNK         0.3000 
    145 H145        0.0145  -21.5925  -44.6985 H         1 UNK         0.0600 
    146 H146        2.2841  -21.0239  -45.5833 H         1 UNK         0.0600 
    147 H147        1.8110  -20.0034  -44.2353 H         1 UNK         0.0600 
    148 H148        1.7604  -19.3715  -45.8762 H         1 UNK         0.0600 
    149 H149       -1.3357  -19.9677  -44.1044 H         1 UNK         0.3000 
    150 H150       -1.9700  -16.6320  -45.0763 H         1 UNK         0.0600 
    151 H151       -3.7745  -19.0934  -44.7553 H         1 UNK         0.0600 
    152 H152       -3.6949  -18.0872  -46.1904 H         1 UNK         0.0600 
    153 H153       -4.2791  -17.4060  -44.6856 H         1 UNK         0.0600 
    154 H154       -2.7386  -18.0932  -42.7763 H         1 UNK         0.3000 
    155 H155       -2.0346  -17.3770  -40.8009 H         1 UNK         0.0600 
    156 H156       -0.4873  -18.8129  -39.5449 H         1 UNK         0.0600 
    157 H157        0.7253  -18.7075  -40.8111 H         1 UNK         0.0600 
    158 H158       -0.7950  -19.5399  -41.1144 H         1 UNK         0.0600 
    159 H159        0.7181  -16.2330  -40.5548 H         1 UNK         0.3000 
    160 H160        0.4152  -13.5607  -39.9628 H         1 UNK         0.0600 
    161 H161       -1.1404  -13.8566  -37.3394 H         1 UNK         0.0600 
    162 H162       -1.4614  -12.7040  -38.6266 H         1 UNK         0.0600 
    163 H163        0.0204  -12.5769  -37.6929 H         1 UNK         0.0600 
    164 H164        2.0799  -14.6823  -39.0696 H         1 UNK         0.3000 
    165 H165        2.7732  -16.4818  -36.2501 H         1 UNK         0.0600 
    166 H166        3.5444  -18.3679  -37.7025 H         1 UNK         0.0600 
    167 H167        1.8117  -18.4496  -37.4243 H         1 UNK         0.0600 
    168 H168        2.4212  -17.8653  -38.9662 H         1 UNK         0.0600 
    169 H169        3.9041  -15.9054  -38.9269 H         1 UNK         0.3000 
    170 H170        5.5766  -12.9747  -37.8446 H         1 UNK         0.0600 
    171 H171        7.5755  -14.1422  -38.7385 H         1 UNK         0.0600 
    172 H172        6.7670  -15.7028  -38.5871 H         1 UNK         0.0600 
    173 H173        7.1683  -14.7705  -37.1499 H         1 UNK         0.0600 
    174 H174        5.5465  -14.4249  -40.3195 H         1 UNK         0.3000 
    175 H175        2.5805  -13.0716  -41.6574 H         1 UNK         0.0600 
    176 H176        4.1166  -11.1250  -41.9601 H         1 UNK         0.0600 
    177 H177        5.4409  -12.2185  -42.3480 H         1 UNK         0.0600 
    178 H178        4.0365  -12.1116  -43.4105 H         1 UNK         0.0600 
    179 H179        4.6334  -14.4997  -42.9544 H         1 UNK         0.3000 
    180 H180        4.9772  -16.9963  -42.5719 H         1 UNK         0.0600 
    181 H181        2.1877  -18.2312  -42.4690 H         1 UNK         0.0600 
    182 H182        3.4084  -18.4118  -41.2103 H         1 UNK         0.0600 
    183 H183        3.6989  -19.0634  -42.8137 H         1 UNK         0.0600 
    184 H184        2.7298  -17.0524  -44.4520 H         1 UNK         0.3000 
    185 H185        4.4753  -14.9874  -46.8452 H         1 UNK         0.0600 
    186 H186        4.8833  -17.4243  -47.2504 H         1 UNK         0.0600 
    187 H187        3.2172  -17.7866  -46.8151 H         1 UNK         0.0600 
    188 H188        3.5662  -16.8198  -48.2440 H         1 UNK         0.0600 
    189 H189        1.8770  -15.5716  -45.5565 H         1 UNK         0.3000 
    190 H190       -2.2508  -19.4461  -48.6665 H         1 UNK         0.3000 
    191 H191       -4.1825  -20.8798  -50.2921 H         1 UNK         0.0600 
    192 H192       -4.4040  -18.4767  -49.9438 H         1 UNK         0.0600 
    193 H193       -5.7967  -19.2767  -49.2415 H         1 UNK         0.0600 
    194 H194       -4.5196  -18.6755  -48.1973 H         1 UNK         0.0600 
    195 H195       -2.9804  -21.3065  -47.0575 H         1 UNK         0.3000 
    196 H196       -5.2789  -22.7775  -46.0258 H         1 UNK         0.0600 
    197 H197       -3.7815  -23.2885  -44.1298 H         1 UNK         0.0600 
    198 H198       -3.7394  -21.5701  -44.4856 H         1 UNK         0.0600 
    199 H199       -2.4033  -22.6099  -44.9783 H         1 UNK         0.0600 
    200 H200       -2.0481  -23.5836  -47.3922 H         1 UNK         0.3000 
    201 H201       -2.4534  -26.4263  -47.5119 H         1 UNK         0.0600 
    202 H202       -0.4583  -26.3288  -49.0215 H         1 UNK         0.0600 
    203 H203       -0.2002  -25.3739  -47.5687 H         1 UNK         0.0600 
    204 H204       -0.5817  -24.5737  -49.0910 H         1 UNK         0.0600 
    205 H205       -3.1167  -23.7495  -49.7038 H         1 UNK         0.3000 
    206 H206       -4.4472  -23.3688  -51.3719 H         1 UNK         0.0600 
    207 H207       -6.2064  -24.7279  -50.2641 H         1 UNK         0.0600 
    208 H208       -6.3093  -24.8476  -52.0127 H         1 UNK         0.0600 
    209 H209       -5.6313  -26.1797  -51.0867 H         1 UNK         0.0600 
    210 H210       -2.8896  -26.5479  -51.6499 H         1 UNK         0.3000 
    211 H211       -2.7352  -26.7362  -54.4645 H         1 UNK         0.0600 
    212 H212       -0.8373  -27.8299  -52.3161 H         1 UNK         0.0600 
    213 H213       -0.9008  -28.3758  -53.9886 H         1 UNK         0.0600 
    214 H214       -2.2810  -28.6325  -52.9325 H         1 UNK         0.0600 
    215 H215       -0.6895  -24.9595  -52.1899 H         1 UNK         0.3000 
    216 H216        1.4227  -24.2371  -53.9868 H         1 UNK         0.0600 
    217 H217        1.9162  -22.5290  -52.2097 H         1 UNK         0.0600 
    218 H218        1.6693  -24.1291  -51.5233 H         1 UNK         0.0600 
    219 H219        0.3915  -22.9184  -51.4248 H         1 UNK         0.0600 
    220 H220       -1.8260  -22.9982  -53.4996 H         1 UNK         0.3000 
    221 H221       -1.3737  -20.5893  -55.1769 H         1 UNK         0.0600 
    222 H222       -3.8464  -21.5071  -53.6078 H         1 UNK         0.0600 
    223 H223       -2.6482  -20.3712  -53.0019 H         1 UNK         0.0600 
    224 H224       -3.6153  -19.9548  -54.4041 H         1 UNK         0.0600 
    225 H225       -1.7318  -23.7560  -55.8251 H         1 UNK         0.3000 
    226 H226       -2.5968  -25.0900  -57.3526 H         1 UNK         0.0600 
    227 H227       -2.9163  -24.2413  -59.6440 H         1 UNK         0.0600 
    228 H228       -3.0261  -22.5846  -59.0659 H         1 UNK         0.0600 
    229 H229       -1.5087  -23.4723  -58.9308 H         1 UNK         0.0600 
    230 H230       -4.3409  -24.1423  -55.3027 H         1 UNK         0.3000 
    231 H231       -6.3612  -24.2527  -54.5224 H         1 UNK         0.0600 
    232 H232       -7.2793  -25.5843  -57.1210 H         1 UNK         0.0600 
    233 H233       -8.0913  -25.6415  -55.5647 H         1 UNK         0.0600 
    234 H234       -6.5335  -26.4249  -55.7613 H         1 UNK         0.0600 
    235 H235       -5.5430  -21.9591  -56.5488 H         1 UNK         0.3000 
    236 H236       -8.1235  -20.8044  -57.2435 H         1 UNK         0.0600 
    237 H237       -5.3529  -19.5032  -57.1877 H         1 UNK         0.0600 
    238 H238       -6.0102  -20.3955  -58.5611 H         1 UNK         0.0600 
    239 H239       -6.7816  -18.9113  -58.0192 H         1 UNK         0.0600 
    240 H240       -6.0605  -20.8132  -54.4359 H         1 UNK         0.3000 
    241 H241       -7.8245  -18.8920  -53.0234 H         1 UNK         0.0600 
    242 H242       -7.8517  -21.1212  -50.2385 H         1 UNK         0.3800 
    243 H243       -8.3165  -19.5428  -50.8103 H         1 UNK         0.3800 
    244 H244       -4.8192  -19.0979  -52.4615 H         1 UNK         0.0800 
    245 H245       -5.9742  -18.0167  -51.7346 H         1 UNK         0.0800 
    246 H246       -4.4642  -15.0541  -53.5585 H         1 UNK         0.0800 
    247 H247       -5.6629  -15.4795  -52.3620 H         1 UNK         0.0800 
@<TRIPOS>BOND
     1    1    2 1    
     2    1  127 1    
     3    1  128 1    
     4    1  129 1    
     5    2    3 2    
     6    2    4 am   BACKBONE|DICT|INTERRES
     7    4    5 1    
     8    4  130 1    
     9    5    6 1    
    10    5   65 1    
    11    5  131 1    
    12    6    7 1    
    13    6  132 1    
    14    6  133 1    
    15    7    8 1    
    16    8    9 1    
    17    8  134 1    
    18    8  135 1    
    19    9   10 ar   
    20    9   14 ar   
    21   10   11 ar   
    22   10  136 1    
    23   11   12 ar   
    24   11  126 1    
    25   12   13 ar   
    26   12  137 1    
    27   13   14 ar   
    28   13   15 1    
    29   14  138 1    
    30   15   16 1    
    31   15  139 1    
    32   15  140 1    
    33   16   17 1    
    34   17   18 1    
    35   17  141 1    
    36   17  142 1    
    37   18   19 1    
    38   18   67 1    
    39   18  143 1    
    40   19   20 am   BACKBONE|DICT|INTERRES
    41   19  144 1    
    42   20   21 2    
    43   20   22 1    
    44   22   23 1    
    45   22   24 1    
    46   22  145 1    
    47   23  146 1    
    48   23  147 1    
    49   23  148 1    
    50   24   25 am   BACKBONE|DICT|INTERRES
    51   24  149 1    
    52   25   26 2    
    53   25   27 1    
    54   27   28 1    
    55   27   29 1    
    56   27  150 1    
    57   28  151 1    
    58   28  152 1    
    59   28  153 1    
    60   29   30 am   BACKBONE|DICT|INTERRES
    61   29  154 1    
    62   30   31 2    
    63   30   32 1    
    64   32   33 1    
    65   32   34 1    
    66   32  155 1    
    67   33  156 1    
    68   33  157 1    
    69   33  158 1    
    70   34   35 am   BACKBONE|DICT|INTERRES
    71   34  159 1    
    72   35   36 2    
    73   35   37 1    
    74   37   38 1    
    75   37   39 1    
    76   37  160 1    
    77   38  161 1    
    78   38  162 1    
    79   38  163 1    
    80   39   40 am   BACKBONE|DICT|INTERRES
    81   39  164 1    
    82   40   41 2    
    83   40   42 1    
    84   42   43 1    
    85   42   44 1    
    86   42  165 1    
    87   43  166 1    
    88   43  167 1    
    89   43  168 1    
    90   44   45 am   BACKBONE|DICT|INTERRES
    91   44  169 1    
    92   45   46 2    
    93   45   47 1    
    94   47   48 1    
    95   47   49 1    
    96   47  170 1    
    97   48  171 1    
    98   48  172 1    
    99   48  173 1    
   100   49   50 am   BACKBONE|DICT|INTERRES
   101   49  174 1    
   102   50   51 2    
   103   50   52 1    
   104   52   53 1    
   105   52   54 1    
   106   52  175 1    
   107   53  176 1    
   108   53  177 1    
   109   53  178 1    
   110   54   55 am   BACKBONE|DICT|INTERRES
   111   54  179 1    
   112   55   56 2    
   113   55   57 1    
   114   57   58 1    
   115   57   59 1    
   116   57  180 1    
   117   58  181 1    
   118   58  182 1    
   119   58  183 1    
   120   59   60 am   BACKBONE|DICT|INTERRES
   121   59  184 1    
   122   60   61 2    
   123   60   62 1    
   124   62   63 1    
   125   62   64 1    
   126   62  185 1    
   127   63  186 1    
   128   63  187 1    
   129   63  188 1    
   130   64   65 am   BACKBONE|DICT|INTERRES
   131   64  189 1    
   132   65   66 2    
   133   67   68 2    
   134   67   69 am   BACKBONE|DICT|INTERRES
   135   69   70 1    
   136   69  190 1    
   137   70   71 1    
   138   70   72 1    
   139   70  191 1    
   140   71  192 1    
   141   71  193 1    
   142   71  194 1    
   143   72   73 2    
   144   72   74 am   BACKBONE|DICT|INTERRES
   145   74   75 1    
   146   74  195 1    
   147   75   76 1    
   148   75   77 1    
   149   75  196 1    
   150   76  197 1    
   151   76  198 1    
   152   76  199 1    
   153   77   78 2    
   154   77   79 am   BACKBONE|DICT|INTERRES
   155   79   80 1    
   156   79  200 1    
   157   80   81 1    
   158   80   82 1    
   159   80  201 1    
   160   81  202 1    
   161   81  203 1    
   162   81  204 1    
   163   82   83 2    
   164   82   84 am   BACKBONE|DICT|INTERRES
   165   84   85 1    
   166   84  205 1    
   167   85   86 1    
   168   85   87 1    
   169   85  206 1    
   170   86  207 1    
   171   86  208 1    
   172   86  209 1    
   173   87   88 2    
   174   87   89 am   BACKBONE|DICT|INTERRES
   175   89   90 1    
   176   89  210 1    
   177   90   91 1    
   178   90   92 1    
   179   90  211 1    
   180   91  212 1    
   181   91  213 1    
   182   91  214 1    
   183   92   93 2    
   184   92   94 am   BACKBONE|DICT|INTERRES
   185   94   95 1    
   186   94  215 1    
   187   95   96 1    
   188   95   97 1    
   189   95  216 1    
   190   96  217 1    
   191   96  218 1    
   192   96  219 1    
   193   97   98 2    
   194   97   99 am   BACKBONE|DICT|INTERRES
   195   99  100 1    
   196   99  220 1    
   197  100  101 1    
   198  100  102 1    
   199  100  221 1    
   200  101  222 1    
   201  101  223 1    
   202  101  224 1    
   203  102  103 2    
   204  102  104 am   BACKBONE|DICT|INTERRES
   205  104  105 1    
   206  104  225 1    
   207  105  106 1    
   208  105  107 1    
   209  105  226 1    
   210  106  227 1    
   211  106  228 1    
   212  106  229 1    
   213  107  108 2    
   214  107  109 am   BACKBONE|DICT|INTERRES
   215  109  110 1    
   216  109  230 1    
   217  110  111 1    
   218  110  112 1    
   219  110  231 1    
   220  111  232 1    
   221  111  233 1    
   222  111  234 1    
   223  112  113 2    
   224  112  114 am   BACKBONE|DICT|INTERRES
   225  114  115 1    
   226  114  235 1    
   227  115  116 1    
   228  115  117 1    
   229  115  236 1    
   230  116  237 1    
   231  116  238 1    
   232  116  239 1    
   233  117  118 2    
   234  117  119 am   BACKBONE|DICT|INTERRES
   235  119  120 1    
   236  119  240 1    
   237  120  121 1    
   238  120  124 1    
   239  120  241 1    
   240  121  122 am   BACKBONE|DICT|INTERRES
   241  121  123 2    
   242  122  242 1    
   243  122  243 1    
   244  124  125 1    
   245  124  244 1    
   246  124  245 1    
   247  125  126 1    
   248  126  246 1    
   249  126  247 1    
@<TRIPOS>SUBSTRUCTURE
     1 UNK         1 GROUP             0       ****    0 ROOT    
