@<TRIPOS>MOLECULE
3R540
247   249    1
SMALL
USER_CHARGES


@<TRIPOS>ATOM
      1 CA         -1.0076  -15.0528  -48.3080 C.3       0 UNK        -0.1800 
      2 C          -0.4697  -13.9692  -49.2316 C.2       0 UNK         0.5000 
      3 O          -0.9399  -12.8338  -49.1748 O.2       0 UNK        -0.5000 
      4 N           0.4995  -14.3181  -50.0907 N.am      1 UNK        -0.5000 
      5 CA          1.0906  -13.4316  -51.1069 C.3       1 UNK         0.1400 
      6 C6          2.0458  -14.1908  -52.0587 C.3       23 UNK        -0.0398 
      7 S7          1.2159  -15.5157  -52.9990 S.3       23 UNK        -0.2404 
      8 C8          2.5922  -16.6778  -53.2670 C.3       23 UNK        -0.0205 
      9 C9          2.4623  -17.9232  -52.4026 C.ar      23 UNK        -0.0193 
     10 C10         2.1537  -19.1522  -52.9934 C.ar      23 UNK        -0.1150 
     11 C11         2.0481  -20.3097  -52.2177 C.ar      23 UNK        -0.0193 
     12 C12         2.2567  -20.2298  -50.8384 C.ar      23 UNK        -0.1150 
     13 C13         2.5751  -19.0098  -50.2341 C.ar      23 UNK        -0.0193 
     14 C14         2.6783  -17.8593  -51.0221 C.ar      23 UNK        -0.1150 
     15 C15         2.8461  -18.9455  -48.7372 C.3       23 UNK        -0.0205 
     16 S16         1.5260  -18.1008  -47.8087 S.3       23 UNK        -0.2404 
     17 C17         0.0421  -19.0861  -48.2011 C.3       23 UNK        -0.0398 
     18 CA          0.0975  -20.5725  -47.7650 C.3       11 UNK         0.1400 
     19 N           0.3903  -20.7742  -46.3392 N.am      11 UNK        -0.5000 
     20 C           0.6616  -21.9724  -45.7962 C.2       10 UNK         0.5000 
     21 O           0.7745  -23.0041  -46.4576 O.2       10 UNK        -0.5000 
     22 CA          0.7546  -22.0588  -44.2606 C.3       10 UNK         0.1400 
     23 CB          2.1626  -21.7048  -43.7600 C.3       10 UNK        -0.1800 
     24 N          -0.2503  -21.2262  -43.5975 N.am      10 UNK        -0.5000 
     25 C          -1.5690  -21.4672  -43.6483 C.2       9 UNK         0.5000 
     26 O          -2.0520  -22.4655  -44.1806 O.2       9 UNK        -0.5000 
     27 CA         -2.5111  -20.3946  -43.0657 C.3       9 UNK         0.1400 
     28 CB         -2.7621  -20.6353  -41.5707 C.3       9 UNK        -0.1800 
     29 N          -2.0154  -19.0336  -43.2759 N.am      9 UNK        -0.5000 
     30 C          -1.8417  -18.4712  -44.4805 C.2       8 UNK         0.5000 
     31 O          -2.1660  -19.0117  -45.5368 O.2       8 UNK        -0.5000 
     32 CA         -1.1215  -17.1126  -44.5188 C.3       8 UNK         0.1400 
     33 CB         -2.1161  -15.9549  -44.3667 C.3       8 UNK        -0.1800 
     34 N          -0.0672  -17.0223  -43.5041 N.am      8 UNK        -0.5000 
     35 C           1.0687  -17.7339  -43.5579 C.2       7 UNK         0.5000 
     36 O           1.3558  -18.4730  -44.4965 O.2       7 UNK        -0.5000 
     37 CA          2.0094  -17.6594  -42.3424 C.3       7 UNK         0.1400 
     38 CB          2.9702  -16.4654  -42.4355 C.3       7 UNK        -0.1800 
     39 N           1.2650  -17.6048  -41.0850 N.am      7 UNK        -0.5000 
     40 C           0.6449  -18.6678  -40.5533 C.2       6 UNK         0.5000 
     41 O           0.6840  -19.7921  -41.0526 O.2       6 UNK        -0.5000 
     42 CA         -0.1817  -18.4421  -39.2726 C.3       6 UNK         0.1400 
     43 CB          0.6754  -18.7127  -38.0274 C.3       6 UNK        -0.1800 
     44 N          -0.7673  -17.1042  -39.1696 N.am      6 UNK        -0.5000 
     45 C          -1.6566  -16.5790  -40.0231 C.2       5 UNK         0.5000 
     46 O          -2.0739  -17.1746  -41.0178 O.2       5 UNK        -0.5000 
     47 CA         -2.1451  -15.1393  -39.7465 C.3       5 UNK         0.1400 
     48 CB         -1.5834  -14.5212  -38.4458 C.3       5 UNK        -0.1800 
     49 N          -1.8933  -14.2341  -40.8742 N.am      5 UNK        -0.5000 
     50 C          -0.7178  -14.0129  -41.4776 C.2       4 UNK         0.5000 
     51 O           0.3285  -14.6036  -41.1925 O.2       4 UNK        -0.5000 
     52 CA         -0.7097  -12.9484  -42.5842 C.3       4 UNK         0.1400 
     53 CB         -0.7047  -11.5300  -41.9888 C.3       4 UNK        -0.1800 
     54 N           0.4841  -13.1385  -43.4006 N.am      4 UNK        -0.5000 
     55 C           0.5959  -12.8636  -44.7023 C.2       3 UNK         0.5000 
     56 O          -0.3104  -12.3851  -45.3886 O.2       3 UNK        -0.5000 
     57 CA          1.9474  -13.2031  -45.3451 C.3       3 UNK         0.1400 
     58 CB          2.0579  -14.7076  -45.6438 C.3       3 UNK        -0.1800 
     59 N           2.0975  -12.4704  -46.5951 N.am      3 UNK        -0.5000 
     60 C           3.2548  -12.0331  -47.1026 C.2       2 UNK         0.5000 
     61 O           4.3378  -12.1298  -46.5228 O.2       2 UNK        -0.5000 
     62 CA          3.1804  -11.4716  -48.5308 C.3       2 UNK         0.1400 
     63 CB          4.5604  -11.1474  -49.1379 C.3       2 UNK        -0.1800 
     64 N           2.4826  -12.4578  -49.3493 N.am      2 UNK        -0.5000 
     65 C           1.8266  -12.2227  -50.4891 C.2       1 UNK         0.5000 
     66 O           1.7759  -11.1228  -51.0414 O.2       1 UNK        -0.5000 
     67 C          -1.1992  -21.2925  -48.1904 C.2       11 UNK         0.5000 
     68 O          -1.2301  -21.9009  -49.2583 O.2       11 UNK        -0.5000 
     69 N          -2.2342  -21.2365  -47.3407 N.am      12 UNK        -0.5000 
     70 CA         -3.5073  -21.9336  -47.5315 C.3       12 UNK         0.1400 
     71 CB         -4.5083  -21.4764  -46.4595 C.3       12 UNK        -0.1800 
     72 C          -3.3499  -23.4639  -47.5323 C.2       12 UNK         0.5000 
     73 O          -3.9302  -24.1348  -48.3863 O.2       12 UNK        -0.5000 
     74 N          -2.5263  -23.9824  -46.6109 N.am      13 UNK        -0.5000 
     75 CA         -2.1491  -25.3931  -46.5307 C.3       13 UNK         0.1400 
     76 CB         -1.3812  -25.6490  -45.2254 C.3       13 UNK        -0.1800 
     77 C          -1.3331  -25.8615  -47.7501 C.2       13 UNK         0.5000 
     78 O          -1.5734  -26.9629  -48.2444 O.2       13 UNK        -0.5000 
     79 N          -0.4142  -25.0117  -48.2332 N.am      14 UNK        -0.5000 
     80 CA          0.3771  -25.2412  -49.4448 C.3       14 UNK         0.1400 
     81 CB          1.4880  -24.1853  -49.5492 C.3       14 UNK        -0.1800 
     82 C          -0.4842  -25.2571  -50.7218 C.2       14 UNK         0.5000 
     83 O          -0.2683  -26.1066  -51.5871 O.2       14 UNK        -0.5000 
     84 N          -1.4620  -24.3438  -50.8002 N.am      15 UNK        -0.5000 
     85 CA         -2.4579  -24.2822  -51.8715 C.3       15 UNK         0.1400 
     86 CB         -3.2158  -22.9479  -51.7805 C.3       15 UNK        -0.1800 
     87 C          -3.4657  -25.4461  -51.8249 C.2       15 UNK         0.5000 
     88 O          -4.0151  -25.8108  -52.8648 O.2       15 UNK        -0.5000 
     89 N          -3.7068  -25.9722  -50.6144 N.am      16 UNK        -0.5000 
     90 CA         -4.7564  -26.9231  -50.2372 C.3       16 UNK         0.1400 
     91 CB         -4.5404  -28.2924  -50.9138 C.3       16 UNK        -0.1800 
     92 C          -6.1634  -26.3322  -50.4713 C.2       16 UNK         0.5000 
     93 O          -7.0695  -27.0345  -50.9244 O.2       16 UNK        -0.5000 
     94 N          -6.3044  -25.0343  -50.1775 N.am      17 UNK        -0.5000 
     95 CA         -7.4858  -24.2167  -50.4301 C.3       17 UNK         0.1400 
     96 CB         -7.6285  -23.9379  -51.9447 C.3       17 UNK        -0.1800 
     97 C          -7.3892  -22.9487  -49.5628 C.2       17 UNK         0.5000 
     98 O          -7.0258  -23.0500  -48.3903 O.2       17 UNK        -0.5000 
     99 N          -7.7148  -21.7830  -50.1338 N.am      18 UNK        -0.5000 
    100 CA        -7.5408  -20.4719  -49.5094 C.3       18 UNK         0.1400 
    101 CB        -8.4743  -19.4690  -50.2063 C.3       18 UNK        -0.1800 
    102 C         -6.0769  -20.0009  -49.5957 C.2       18 UNK         0.5000 
    103 O         -5.3041  -20.5136  -50.4093 O.2       18 UNK        -0.5000 
    104 N         -5.7189  -19.0113  -48.7683 N.am      19 UNK        -0.5000 
    105 CA        -4.3996  -18.3785  -48.7721 C.3       19 UNK         0.1400 
    106 CB        -4.2992  -17.3974  -47.5946 C.3       19 UNK        -0.1800 
    107 C         -4.1217  -17.6725  -50.1130 C.2       19 UNK         0.5000 
    108 O         -4.9634  -16.9003  -50.5760 O.2       19 UNK        -0.5000 
    109 N         -2.9586  -17.9750  -50.7064 N.am      20 UNK        -0.5000 
    110 CA        -2.4752  -17.4977  -52.0091 C.3       20 UNK         0.1400 
    111 CB        -2.3586  -15.9600  -52.0412 C.3       20 UNK        -0.1800 
    112 C         -3.2566  -18.0483  -53.2230 C.2       20 UNK         0.5000 
    113 O         -3.1047  -17.5204  -54.3256 O.2       20 UNK        -0.5000 
    114 N         -4.0331  -19.1285  -53.0394 N.am      21 UNK        -0.5000 
    115 CA        -4.7683  -19.8114  -54.1131 C.3       21 UNK         0.1400 
    116 CB        -5.9612  -20.5736  -53.5152 C.3       21 UNK        -0.1800 
    117 C         -3.8855  -20.7281  -54.9922 C.2       21 UNK         0.5000 
    118 O         -4.4155  -21.4246  -55.8589 O.2       21 UNK        -0.5000 
    119 N         -2.5641  -20.7081  -54.7695 N.am      22 UNK        -0.5000 
    120 CA        -1.5338  -21.4021  -55.5603 C.3       22 UNK         0.1400 
    121 C         -1.4662  -20.9867  -57.0613 C.2       22 UNK         0.5000 
    122 N         -1.9462  -19.8102  -57.4481 N.am      22 UNK        -0.7600 
    123 O         -0.9646  -21.7454  -57.8862 O.2       22 UNK        -0.5000 
    124 C124       -0.1296  -21.2366  -54.9240 C.3       23 UNK        -0.0398 
    125 S125       -0.0206  -21.8711  -53.2181 S.3       23 UNK        -0.2404 
    126 C126        1.7511  -21.6542  -52.8671 C.3       23 UNK        -0.0205 
    127 H127       -0.4798  -15.9964  -48.4383 H         1 UNK         0.0600 
    128 H128       -2.0629  -15.2219  -48.5190 H         1 UNK         0.0600 
    129 H129       -0.9138  -14.7451  -47.2666 H         1 UNK         0.0600 
    130 H130        0.8251  -15.2738  -50.1078 H         1 UNK         0.3000 
    131 H131        0.2677  -13.0317  -51.7034 H         1 UNK         0.0600 
    132 H132        2.4862  -13.5061  -52.7863 H         1 UNK         0.0800 
    133 H133        2.8786  -14.6120  -51.4931 H         1 UNK         0.0800 
    134 H134        3.5525  -16.1970  -53.0764 H         1 UNK         0.0800 
    135 H135        2.6039  -16.9504  -54.3234 H         1 UNK         0.0800 
    136 H136        2.0116  -19.2100  -54.0623 H         1 UNK         0.1150 
    137 H137        2.1930  -21.1261  -50.2396 H         1 UNK         0.1150 
    138 H138        2.9327  -16.9165  -50.5596 H         1 UNK         0.1150 
    139 H139        2.9973  -19.9433  -48.3234 H         1 UNK         0.0800 
    140 H140        3.7818  -18.4103  -48.5699 H         1 UNK         0.0800 
    141 H141       -0.1228  -19.0155  -49.2777 H         1 UNK         0.0800 
    142 H142       -0.8077  -18.5844  -47.7371 H         1 UNK         0.0800 
    143 H143        0.9057  -21.0509  -48.3177 H         1 UNK         0.0600 
    144 H144        0.3733  -19.9540  -45.7441 H         1 UNK         0.3000 
    145 H145        0.5592  -23.0952  -43.9775 H         1 UNK         0.0600 
    146 H146        2.2196  -21.7540  -42.6724 H         1 UNK         0.0600 
    147 H147        2.8985  -22.4050  -44.1567 H         1 UNK         0.0600 
    148 H148        2.4706  -20.7070  -44.0671 H         1 UNK         0.0600 
    149 H149        0.0823  -20.4121  -43.0967 H         1 UNK         0.3000 
    150 H150       -3.4686  -20.4763  -43.5833 H         1 UNK         0.0600 
    151 H151       -3.2379  -21.6034  -41.4099 H         1 UNK         0.0600 
    152 H152       -3.4201  -19.8742  -41.1510 H         1 UNK         0.0600 
    153 H153       -1.8350  -20.6313  -40.9996 H         1 UNK         0.0600 
    154 H154       -1.7957  -18.4878  -42.4482 H         1 UNK         0.3000 
    155 H155       -0.6556  -17.0206  -45.5027 H         1 UNK         0.0600 
    156 H156       -2.9368  -16.0491  -45.0788 H         1 UNK         0.0600 
    157 H157       -1.6317  -15.0007  -44.5657 H         1 UNK         0.0600 
    158 H158       -2.5517  -15.9190  -43.3683 H         1 UNK         0.0600 
    159 H159       -0.2636  -16.4815  -42.6735 H         1 UNK         0.3000 
    160 H160        2.6173  -18.5671  -42.3446 H         1 UNK         0.0600 
    161 H161        2.4425  -15.5130  -42.4241 H         1 UNK         0.0600 
    162 H162        3.5556  -16.5084  -43.3548 H         1 UNK         0.0600 
    163 H163        3.6749  -16.4644  -41.6039 H         1 UNK         0.0600 
    164 H164        1.1496  -16.6950  -40.6560 H         1 UNK         0.3000 
    165 H165       -1.0033  -19.1605  -39.2813 H         1 UNK         0.0600 
    166 H166        0.0807  -18.6467  -37.1162 H         1 UNK         0.0600 
    167 H167        1.1065  -19.7143  -38.0602 H         1 UNK         0.0600 
    168 H168        1.4996  -18.0031  -37.9442 H         1 UNK         0.0600 
    169 H169       -0.4599  -16.5377  -38.3925 H         1 UNK         0.3000 
    170 H170       -3.2285  -15.2071  -39.6387 H         1 UNK         0.0600 
    171 H171       -1.8359  -15.1281  -37.5753 H         1 UNK         0.0600 
    172 H172       -0.4987  -14.4104  -38.4777 H         1 UNK         0.0600 
    173 H173       -2.0070  -13.5316  -38.2739 H         1 UNK         0.0600 
    174 H174       -2.7024  -13.7259  -41.2027 H         1 UNK         0.3000 
    175 H175       -1.6045  -13.0808  -43.1954 H         1 UNK         0.0600 
    176 H176        0.1727  -11.3611  -41.3632 H         1 UNK         0.0600 
    177 H177       -0.7064  -10.7732  -42.7735 H         1 UNK         0.0600 
    178 H178       -1.5872  -11.3579  -41.3717 H         1 UNK         0.0600 
    179 H179        1.2464  -13.5834  -42.9053 H         1 UNK         0.3000 
    180 H180        2.7329  -12.9114  -44.6444 H         1 UNK         0.0600 
    181 H181        1.8882  -15.2952  -44.7466 H         1 UNK         0.0600 
    182 H182        3.0482  -14.9670  -46.0182 H         1 UNK         0.0600 
    183 H183        1.3266  -15.0305  -46.3846 H         1 UNK         0.0600 
    184 H184        1.2300  -12.2889  -47.0852 H         1 UNK         0.3000 
    185 H185        2.5895  -10.5544  -48.4876 H         1 UNK         0.0600 
    186 H186        5.0944  -10.4182  -48.5275 H         1 UNK         0.0600 
    187 H187        5.1850  -12.0384  -49.2115 H         1 UNK         0.0600 
    188 H188        4.4652  -10.7226  -50.1371 H         1 UNK         0.0600 
    189 H189        2.4453  -13.3898  -48.9596 H         1 UNK         0.3000 
    190 H190       -2.1494  -20.6559  -46.5107 H         1 UNK         0.3000 
    191 H191       -3.8939  -21.6490  -48.5096 H         1 UNK         0.0600 
    192 H192       -4.2213  -21.8135  -45.4651 H         1 UNK         0.0600 
    193 H193       -5.5017  -21.8760  -46.6577 H         1 UNK         0.0600 
    194 H194       -4.5950  -20.3910  -46.4310 H         1 UNK         0.0600 
    195 H195       -2.1422  -23.3663  -45.9003 H         1 UNK         0.3000 
    196 H196       -3.0692  -25.9805  -46.5023 H         1 UNK         0.0600 
    197 H197       -1.1257  -26.7044  -45.1238 H         1 UNK         0.0600 
    198 H198       -1.9785  -25.3731  -44.3562 H         1 UNK         0.0600 
    199 H199       -0.4518  -25.0812  -45.1859 H         1 UNK         0.0600 
    200 H200       -0.2300  -24.1518  -47.7257 H         1 UNK         0.3000 
    201 H201        0.8509  -26.2205  -49.3512 H         1 UNK         0.0600 
    202 H202        2.1303  -24.1979  -48.6686 H         1 UNK         0.0600 
    203 H203        1.0788  -23.1810  -49.6515 H         1 UNK         0.0600 
    204 H204        2.1210  -24.3708  -50.4176 H         1 UNK         0.0600 
    205 H205       -1.5141  -23.6198  -50.0886 H         1 UNK         0.3000 
    206 H206       -1.9357  -24.3211  -52.8296 H         1 UNK         0.0600 
    207 H207       -2.5403  -22.0938  -51.7893 H         1 UNK         0.0600 
    208 H208       -3.8902  -22.8381  -52.6287 H         1 UNK         0.0600 
    209 H209       -3.8152  -22.8825  -50.8719 H         1 UNK         0.0600 
    210 H210       -3.2334  -25.5372  -49.8316 H         1 UNK         0.3000 
    211 H211       -4.6603  -27.0679  -49.1603 H         1 UNK         0.0600 
    212 H212       -4.6891  -28.2427  -51.9926 H         1 UNK         0.0600 
    213 H213       -5.2379  -29.0337  -50.5225 H         1 UNK         0.0600 
    214 H214       -3.5329  -28.6659  -50.7300 H         1 UNK         0.0600 
    215 H215       -5.5375  -24.5561  -49.7127 H         1 UNK         0.3000 
    216 H216       -8.3671  -24.7633  -50.0893 H         1 UNK         0.0600 
    217 H217       -8.5224  -23.3535  -52.1648 H         1 UNK         0.0600 
    218 H218       -7.7177  -24.8645  -52.5115 H         1 UNK         0.0600 
    219 H219       -6.7644  -23.4003  -52.3353 H         1 UNK         0.0600 
    220 H220       -7.9629  -21.7811  -51.1116 H         1 UNK         0.3000 
    221 H221       -7.8214  -20.5374  -48.4560 H         1 UNK         0.0600 
    222 H222       -8.2330  -19.3582  -51.2636 H         1 UNK         0.0600 
    223 H223       -9.5155  -19.7835  -50.1320 H         1 UNK         0.0600 
    224 H224       -8.4027  -18.4808  -49.7502 H         1 UNK         0.0600 
    225 H225       -6.4101  -18.6062  -48.1545 H         1 UNK         0.3000 
    226 H226       -3.6544  -19.1607  -48.6222 H         1 UNK         0.0600 
    227 H227       -3.2902  -16.9937  -47.5130 H         1 UNK         0.0600 
    228 H228       -4.9857  -16.5574  -47.7067 H         1 UNK         0.0600 
    229 H229       -4.5222  -17.8895  -46.6478 H         1 UNK         0.0600 
    230 H230       -2.3627  -18.6552  -50.2588 H         1 UNK         0.3000 
    231 H231       -1.4638  -17.8953  -52.1095 H         1 UNK         0.0600 
    232 H232       -1.8387  -15.6243  -52.9388 H         1 UNK         0.0600 
    233 H233       -1.7933  -15.5946  -51.1878 H         1 UNK         0.0600 
    234 H234       -3.3334  -15.4726  -52.0340 H         1 UNK         0.0600 
    235 H235       -4.1348  -19.5177  -52.1096 H         1 UNK         0.3000 
    236 H236       -5.1786  -19.0509  -54.7807 H         1 UNK         0.0600 
    237 H237       -6.6059  -19.9052  -52.9459 H         1 UNK         0.0600 
    238 H238       -6.5745  -21.0263  -54.2952 H         1 UNK         0.0600 
    239 H239       -5.6357  -21.3716  -52.8512 H         1 UNK         0.0600 
    240 H240       -2.2223  -20.1258  -54.0215 H         1 UNK         0.3000 
    241 H241       -1.7877  -22.4637  -55.5458 H         1 UNK         0.0600 
    242 H242       -2.3530  -19.1752  -56.7788 H         1 UNK         0.3800 
    243 H243       -1.8998  -19.5508  -58.4211 H         1 UNK         0.3800 
    244 H244        0.6203  -21.7603  -55.5202 H         1 UNK         0.0800 
    245 H245        0.1538  -20.1839  -54.9245 H         1 UNK         0.0800 
    246 H246        2.3362  -21.7659  -53.7809 H         1 UNK         0.0800 
    247 H247        2.0697  -22.4637  -52.2090 H         1 UNK         0.0800 
@<TRIPOS>BOND
     1    1    2 1    
     2    1  127 1    
     3    1  128 1    
     4    1  129 1    
     5    2    3 2    
     6    2    4 am   BACKBONE|DICT|INTERRES
     7    4    5 1    
     8    4  130 1    
     9    5    6 1    
    10    5   65 1    
    11    5  131 1    
    12    6    7 1    
    13    6  132 1    
    14    6  133 1    
    15    7    8 1    
    16    8    9 1    
    17    8  134 1    
    18    8  135 1    
    19    9   10 ar   
    20    9   14 ar   
    21   10   11 ar   
    22   10  136 1    
    23   11   12 ar   
    24   11  126 1    
    25   12   13 ar   
    26   12  137 1    
    27   13   14 ar   
    28   13   15 1    
    29   14  138 1    
    30   15   16 1    
    31   15  139 1    
    32   15  140 1    
    33   16   17 1    
    34   17   18 1    
    35   17  141 1    
    36   17  142 1    
    37   18   19 1    
    38   18   67 1    
    39   18  143 1    
    40   19   20 am   BACKBONE|DICT|INTERRES
    41   19  144 1    
    42   20   21 2    
    43   20   22 1    
    44   22   23 1    
    45   22   24 1    
    46   22  145 1    
    47   23  146 1    
    48   23  147 1    
    49   23  148 1    
    50   24   25 am   BACKBONE|DICT|INTERRES
    51   24  149 1    
    52   25   26 2    
    53   25   27 1    
    54   27   28 1    
    55   27   29 1    
    56   27  150 1    
    57   28  151 1    
    58   28  152 1    
    59   28  153 1    
    60   29   30 am   BACKBONE|DICT|INTERRES
    61   29  154 1    
    62   30   31 2    
    63   30   32 1    
    64   32   33 1    
    65   32   34 1    
    66   32  155 1    
    67   33  156 1    
    68   33  157 1    
    69   33  158 1    
    70   34   35 am   BACKBONE|DICT|INTERRES
    71   34  159 1    
    72   35   36 2    
    73   35   37 1    
    74   37   38 1    
    75   37   39 1    
    76   37  160 1    
    77   38  161 1    
    78   38  162 1    
    79   38  163 1    
    80   39   40 am   BACKBONE|DICT|INTERRES
    81   39  164 1    
    82   40   41 2    
    83   40   42 1    
    84   42   43 1    
    85   42   44 1    
    86   42  165 1    
    87   43  166 1    
    88   43  167 1    
    89   43  168 1    
    90   44   45 am   BACKBONE|DICT|INTERRES
    91   44  169 1    
    92   45   46 2    
    93   45   47 1    
    94   47   48 1    
    95   47   49 1    
    96   47  170 1    
    97   48  171 1    
    98   48  172 1    
    99   48  173 1    
   100   49   50 am   BACKBONE|DICT|INTERRES
   101   49  174 1    
   102   50   51 2    
   103   50   52 1    
   104   52   53 1    
   105   52   54 1    
   106   52  175 1    
   107   53  176 1    
   108   53  177 1    
   109   53  178 1    
   110   54   55 am   BACKBONE|DICT|INTERRES
   111   54  179 1    
   112   55   56 2    
   113   55   57 1    
   114   57   58 1    
   115   57   59 1    
   116   57  180 1    
   117   58  181 1    
   118   58  182 1    
   119   58  183 1    
   120   59   60 am   BACKBONE|DICT|INTERRES
   121   59  184 1    
   122   60   61 2    
   123   60   62 1    
   124   62   63 1    
   125   62   64 1    
   126   62  185 1    
   127   63  186 1    
   128   63  187 1    
   129   63  188 1    
   130   64   65 am   BACKBONE|DICT|INTERRES
   131   64  189 1    
   132   65   66 2    
   133   67   68 2    
   134   67   69 am   BACKBONE|DICT|INTERRES
   135   69   70 1    
   136   69  190 1    
   137   70   71 1    
   138   70   72 1    
   139   70  191 1    
   140   71  192 1    
   141   71  193 1    
   142   71  194 1    
   143   72   73 2    
   144   72   74 am   BACKBONE|DICT|INTERRES
   145   74   75 1    
   146   74  195 1    
   147   75   76 1    
   148   75   77 1    
   149   75  196 1    
   150   76  197 1    
   151   76  198 1    
   152   76  199 1    
   153   77   78 2    
   154   77   79 am   BACKBONE|DICT|INTERRES
   155   79   80 1    
   156   79  200 1    
   157   80   81 1    
   158   80   82 1    
   159   80  201 1    
   160   81  202 1    
   161   81  203 1    
   162   81  204 1    
   163   82   83 2    
   164   82   84 am   BACKBONE|DICT|INTERRES
   165   84   85 1    
   166   84  205 1    
   167   85   86 1    
   168   85   87 1    
   169   85  206 1    
   170   86  207 1    
   171   86  208 1    
   172   86  209 1    
   173   87   88 2    
   174   87   89 am   BACKBONE|DICT|INTERRES
   175   89   90 1    
   176   89  210 1    
   177   90   91 1    
   178   90   92 1    
   179   90  211 1    
   180   91  212 1    
   181   91  213 1    
   182   91  214 1    
   183   92   93 2    
   184   92   94 am   BACKBONE|DICT|INTERRES
   185   94   95 1    
   186   94  215 1    
   187   95   96 1    
   188   95   97 1    
   189   95  216 1    
   190   96  217 1    
   191   96  218 1    
   192   96  219 1    
   193   97   98 2    
   194   97   99 am   BACKBONE|DICT|INTERRES
   195   99  100 1    
   196   99  220 1    
   197  100  101 1    
   198  100  102 1    
   199  100  221 1    
   200  101  222 1    
   201  101  223 1    
   202  101  224 1    
   203  102  103 2    
   204  102  104 am   BACKBONE|DICT|INTERRES
   205  104  105 1    
   206  104  225 1    
   207  105  106 1    
   208  105  107 1    
   209  105  226 1    
   210  106  227 1    
   211  106  228 1    
   212  106  229 1    
   213  107  108 2    
   214  107  109 am   BACKBONE|DICT|INTERRES
   215  109  110 1    
   216  109  230 1    
   217  110  111 1    
   218  110  112 1    
   219  110  231 1    
   220  111  232 1    
   221  111  233 1    
   222  111  234 1    
   223  112  113 2    
   224  112  114 am   BACKBONE|DICT|INTERRES
   225  114  115 1    
   226  114  235 1    
   227  115  116 1    
   228  115  117 1    
   229  115  236 1    
   230  116  237 1    
   231  116  238 1    
   232  116  239 1    
   233  117  118 2    
   234  117  119 am   BACKBONE|DICT|INTERRES
   235  119  120 1    
   236  119  240 1    
   237  120  121 1    
   238  120  124 1    
   239  120  241 1    
   240  121  122 am   BACKBONE|DICT|INTERRES
   241  121  123 2    
   242  122  242 1    
   243  122  243 1    
   244  124  125 1    
   245  124  244 1    
   246  124  245 1    
   247  125  126 1    
   248  126  246 1    
   249  126  247 1    
@<TRIPOS>SUBSTRUCTURE
     1 UNK         1 GROUP             0       ****    0 ROOT    
