@<TRIPOS>MOLECULE
3R540
247   249    1
SMALL
USER_CHARGES


@<TRIPOS>ATOM
      1 CA          3.6790   -9.4029  -48.9654 C.3       0 UNK        -0.1800 
      2 C           3.9397  -10.8224  -49.4484 C.2       0 UNK         0.5000 
      3 O           5.0932  -11.1969  -49.6596 O.2       0 UNK        -0.5000 
      4 N           2.8734  -11.6134  -49.6226 N.am      1 UNK        -0.5000 
      5 CA          2.9209  -13.0194  -50.0466 C.3       1 UNK         0.1400 
      6 C6          1.5580  -13.5144  -50.5969 C.3       23 UNK        -0.0398 
      7 S7          0.0996  -13.1010  -49.5681 S.3       23 UNK        -0.2404 
      8 C8         -0.0760  -14.5366  -48.4583 C.3       23 UNK        -0.0205 
      9 C9         -0.2414  -15.8517  -49.2046 C.ar      23 UNK        -0.0193 
     10 C10        -1.4397  -16.1444  -49.8591 C.ar      23 UNK        -0.1150 
     11 C11        -1.5832  -17.3315  -50.5842 C.ar      23 UNK        -0.0193 
     12 C12        -0.5145  -18.2328  -50.6415 C.ar      23 UNK        -0.1150 
     13 C13         0.6812  -17.9652  -49.9659 C.ar      23 UNK        -0.0193 
     14 C14         0.8077  -16.7734  -49.2484 C.ar      23 UNK        -0.1150 
     15 C15         1.8596  -18.9298  -50.0413 C.3       23 UNK        -0.0205 
     16 S16         1.4552  -20.6225  -49.5021 S.3       23 UNK        -0.2404 
     17 C17         1.0184  -20.3753  -47.7453 C.3       23 UNK        -0.0398 
     18 CA          0.4906  -21.6717  -47.0794 C.3       11 UNK         0.1400 
     19 N           0.4029  -21.5560  -45.6203 N.am      11 UNK        -0.5000 
     20 C           0.0975  -22.5653  -44.7894 C.2       10 UNK         0.5000 
     21 O          -0.0732  -23.7274  -45.1557 O.2       10 UNK        -0.5000 
     22 CA         -0.1131  -22.2134  -43.3063 C.3       10 UNK         0.1400 
     23 CB          1.2306  -22.0944  -42.5729 C.3       10 UNK        -0.1800 
     24 N          -0.8964  -20.9902  -43.1274 N.am      10 UNK        -0.5000 
     25 C          -2.1679  -20.8427  -43.5281 C.2       9 UNK         0.5000 
     26 O          -2.8329  -21.7465  -44.0327 O.2       9 UNK        -0.5000 
     27 CA         -2.7892  -19.4420  -43.3892 C.3       9 UNK         0.1400 
     28 CB         -3.3025  -19.2098  -41.9607 C.3       9 UNK        -0.1800 
     29 N          -1.8628  -18.3735  -43.7639 N.am      9 UNK        -0.5000 
     30 C          -1.3455  -18.2078  -44.9901 C.2       8 UNK         0.5000 
     31 O          -1.6275  -18.9198  -45.9535 O.2       8 UNK        -0.5000 
     32 CA         -0.2959  -17.0924  -45.1499 C.3       8 UNK         0.1400 
     33 CB         -0.9758  -15.7173  -45.2132 C.3       8 UNK        -0.1800 
     34 N           0.6960  -17.1107  -44.0719 N.am      8 UNK        -0.5000 
     35 C           1.5394  -18.1278  -43.8399 C.2       7 UNK         0.5000 
     36 O           1.6331  -19.1140  -44.5708 O.2       7 UNK        -0.5000 
     37 CA          2.3699  -18.0671  -42.5444 C.3       7 UNK         0.1400 
     38 CB          3.6800  -17.2888  -42.7366 C.3       7 UNK        -0.1800 
     39 N           1.6129  -17.4900  -41.4340 N.am      7 UNK        -0.5000 
     40 C           0.6140  -18.1176  -40.7979 C.2       6 UNK         0.5000 
     41 O           0.2532  -19.2640  -41.0598 O.2       6 UNK        -0.5000 
     42 CA         -0.1323  -17.3140  -39.7169 C.3       6 UNK         0.1400 
     43 CB          0.6157  -17.3843  -38.3773 C.3       6 UNK        -0.1800 
     44 N          -0.3221  -15.9125  -40.0930 N.am      6 UNK        -0.5000 
     45 C          -1.0917  -15.4987  -41.1099 C.2       5 UNK         0.5000 
     46 O          -1.7725  -16.2562  -41.7993 O.2       5 UNK        -0.5000 
     47 CA         -1.0521  -13.9954  -41.4461 C.3       5 UNK         0.1400 
     48 CB         -2.1385  -13.2404  -40.6665 C.3       5 UNK        -0.1800 
     49 N           0.2523  -13.3801  -41.1829 N.am      5 UNK        -0.5000 
     50 C           1.3922  -13.7195  -41.7983 C.2       4 UNK         0.5000 
     51 O           1.4678  -14.5827  -42.6782 O.2       4 UNK        -0.5000 
     52 CA          2.6635  -13.0252  -41.2961 C.3       4 UNK         0.1400 
     53 CB          3.1041  -13.6187  -39.9441 C.3       4 UNK        -0.1800 
     54 N           3.7239  -13.2033  -42.2804 N.am      4 UNK        -0.5000 
     55 C           4.8206  -12.4453  -42.3903 C.2       3 UNK         0.5000 
     56 O           5.0578  -11.4820  -41.6599 O.2       3 UNK        -0.5000 
     57 CA          5.8370  -12.8251  -43.4861 C.3       3 UNK         0.1400 
     58 CB          7.0336  -13.5649  -42.8672 C.3       3 UNK        -0.1800 
     59 N           5.2787  -13.6537  -44.5582 N.am      3 UNK        -0.5000 
     60 C           4.4425  -13.2117  -45.5047 C.2       2 UNK         0.5000 
     61 O           4.0203  -12.0533  -45.5667 O.2       2 UNK        -0.5000 
     62 CA          4.0009  -14.2466  -46.5478 C.3       2 UNK         0.1400 
     63 CB          2.9540  -15.2099  -45.9653 C.3       2 UNK        -0.1800 
     64 N           3.4445  -13.5437  -47.6961 N.am      2 UNK        -0.5000 
     65 C           3.4774  -13.9700  -48.9631 C.2       1 UNK         0.5000 
     66 O           3.9326  -15.0642  -49.2989 O.2       1 UNK        -0.5000 
     67 C          -0.8517  -22.1298  -47.6870 C.2       11 UNK         0.5000 
     68 O          -0.8740  -23.1120  -48.4291 O.2       11 UNK        -0.5000 
     69 N          -1.9475  -21.4511  -47.3171 N.am      12 UNK        -0.5000 
     70 CA         -3.3059  -21.7725  -47.7537 C.3       12 UNK         0.1400 
     71 CB         -4.2876  -20.7259  -47.2073 C.3       12 UNK        -0.1800 
     72 C          -3.7471  -23.1947  -47.3611 C.2       12 UNK         0.5000 
     73 O          -4.3539  -23.8831  -48.1803 O.2       12 UNK        -0.5000 
     74 N          -3.4100  -23.6258  -46.1394 N.am      13 UNK        -0.5000 
     75 CA         -3.6662  -24.9774  -45.6464 C.3       13 UNK         0.1400 
     76 CB         -3.3912  -25.0363  -44.1359 C.3       13 UNK        -0.1800 
     77 C          -2.8511  -26.0471  -46.3965 C.2       13 UNK         0.5000 
     78 O          -3.4218  -27.0482  -46.8312 O.2       13 UNK        -0.5000 
     79 N          -1.5384  -25.8176  -46.5391 N.am      14 UNK        -0.5000 
     80 CA         -0.5979  -26.7536  -47.1562 C.3       14 UNK         0.1400 
     81 CB          0.8410  -26.3071  -46.8552 C.3       14 UNK        -0.1800 
     82 C          -0.7999  -26.9185  -48.6719 C.2       14 UNK         0.5000 
     83 O          -0.7403  -28.0427  -49.1715 O.2       14 UNK        -0.5000 
     84 N          -1.0281  -25.8026  -49.3751 N.am      15 UNK        -0.5000 
     85 CA         -1.1328  -25.7496  -50.8343 C.3       15 UNK         0.1400 
     86 CB         -0.4319  -24.4738  -51.3289 C.3       15 UNK        -0.1800 
     87 C          -2.5856  -25.8354  -51.3447 C.2       15 UNK         0.5000 
     88 O          -2.8078  -25.6343  -52.5400 O.2       15 UNK        -0.5000 
     89 N          -3.5454  -26.1126  -50.4472 N.am      16 UNK        -0.5000 
     90 CA         -4.9819  -26.2870  -50.7026 C.3       16 UNK         0.1400 
     91 CB         -5.2318  -27.5866  -51.4954 C.3       16 UNK        -0.1800 
     92 C          -5.6067  -25.0459  -51.3714 C.2       16 UNK         0.5000 
     93 O          -6.0787  -25.1149  -52.5070 O.2       16 UNK        -0.5000 
     94 N          -5.5243  -23.9163  -50.6561 N.am      17 UNK        -0.5000 
     95 CA         -5.8783  -22.5560  -51.0756 C.3       17 UNK         0.1400 
     96 CB         -7.3862  -22.4359  -51.3808 C.3       17 UNK        -0.1800 
     97 C          -4.9926  -22.0386  -52.2271 C.2       17 UNK         0.5000 
     98 O          -5.4401  -21.2010  -53.0118 O.2       17 UNK        -0.5000 
     99 N          -3.7545  -22.5550  -52.3042 N.am      18 UNK        -0.5000 
    100 CA        -2.7690  -22.3369  -53.3684 C.3       18 UNK         0.1400 
    101 CB        -2.1991  -20.9109  -53.2873 C.3       18 UNK        -0.1800 
    102 C         -3.3505  -22.7042  -54.7454 C.2       18 UNK         0.5000 
    103 O         -3.3697  -21.8769  -55.6609 O.2       18 UNK        -0.5000 
    104 N         -3.9188  -23.9178  -54.8103 N.am      19 UNK        -0.5000 
    105 CA        -4.7954  -24.4793  -55.8463 C.3       19 UNK         0.1400 
    106 CB        -4.0749  -24.5909  -57.2035 C.3       19 UNK        -0.1800 
    107 C         -6.1411  -23.7342  -55.9761 C.2       19 UNK         0.5000 
    108 O         -7.1970  -24.3661  -55.9262 O.2       19 UNK        -0.5000 
    109 N         -6.0710  -22.4085  -56.1216 N.am      20 UNK        -0.5000 
    110 CA        -7.1857  -21.4665  -56.1384 C.3       20 UNK         0.1400 
    111 CB        -7.9378  -21.5622  -57.4806 C.3       20 UNK        -0.1800 
    112 C         -6.7383  -20.0146  -55.8695 C.2       20 UNK         0.5000 
    113 O         -7.6064  -19.1529  -55.7201 O.2       20 UNK        -0.5000 
    114 N         -5.4239  -19.7328  -55.8274 N.am      21 UNK        -0.5000 
    115 CA        -4.8744  -18.3754  -55.7498 C.3       21 UNK         0.1400 
    116 CB        -3.3674  -18.4106  -56.0454 C.3       21 UNK        -0.1800 
    117 C         -5.1700  -17.6233  -54.4362 C.2       21 UNK         0.5000 
    118 O         -5.1693  -16.3913  -54.4503 O.2       21 UNK        -0.5000 
    119 N         -5.4483  -18.3469  -53.3431 N.am      22 UNK        -0.5000 
    120 CA        -5.9738  -17.7677  -52.0943 C.3       22 UNK         0.1400 
    121 C         -7.5095  -17.4939  -52.1272 C.2       22 UNK         0.5000 
    122 N         -8.2457  -17.8487  -53.1744 N.am      22 UNK        -0.7600 
    123 O         -8.0497  -16.9303  -51.1792 O.2       22 UNK        -0.5000 
    124 C124       -5.5982  -18.6032  -50.8386 C.3       23 UNK        -0.0398 
    125 S125       -3.8295  -18.9428  -50.4928 S.3       23 UNK        -0.2404 
    126 C126       -2.8863  -17.6196  -51.3166 C.3       23 UNK        -0.0205 
    127 H127        2.6135   -9.2041  -48.8469 H         1 UNK         0.0600 
    128 H128        4.0820   -8.6832  -49.6780 H         1 UNK         0.0600 
    129 H129        4.1641   -9.2405  -48.0027 H         1 UNK         0.0600 
    130 H130        1.9471  -11.2546  -49.4353 H         1 UNK         0.3000 
    131 H131        3.6305  -13.0775  -50.8750 H         1 UNK         0.0600 
    132 H132        1.3903  -13.0407  -51.5649 H         1 UNK         0.0800 
    133 H133        1.5828  -14.5823  -50.8163 H         1 UNK         0.0800 
    134 H134       -0.9531  -14.3697  -47.8334 H         1 UNK         0.0800 
    135 H135        0.7748  -14.5791  -47.7798 H         1 UNK         0.0800 
    136 H136       -2.2536  -15.4341  -49.8183 H         1 UNK         0.1150 
    137 H137       -0.6136  -19.1472  -51.2061 H         1 UNK         0.1150 
    138 H138        1.7366  -16.5516  -48.7447 H         1 UNK         0.1150 
    139 H139        2.2100  -18.9676  -51.0735 H         1 UNK         0.0800 
    140 H140        2.6996  -18.5657  -49.4474 H         1 UNK         0.0800 
    141 H141        0.2873  -19.5700  -47.6641 H         1 UNK         0.0800 
    142 H142        1.9124  -20.0282  -47.2256 H         1 UNK         0.0800 
    143 H143        1.2178  -22.4622  -47.2779 H         1 UNK         0.0600 
    144 H144        0.5713  -20.6349  -45.2271 H         1 UNK         0.3000 
    145 H145       -0.6731  -23.0317  -42.8489 H         1 UNK         0.0600 
    146 H146        1.0847  -21.9034  -41.5097 H         1 UNK         0.0600 
    147 H147        1.8045  -23.0176  -42.6615 H         1 UNK         0.0600 
    148 H148        1.8426  -21.2894  -42.9780 H         1 UNK         0.0600 
    149 H149       -0.4377  -20.2188  -42.6532 H         1 UNK         0.3000 
    150 H150       -3.6432  -19.3906  -44.0673 H         1 UNK         0.0600 
    151 H151       -4.0125  -19.9852  -41.6702 H         1 UNK         0.0600 
    152 H152       -3.8153  -18.2514  -41.8776 H         1 UNK         0.0600 
    153 H153       -2.4907  -19.2184  -41.2334 H         1 UNK         0.0600 
    154 H154       -1.6234  -17.7057  -43.0361 H         1 UNK         0.3000 
    155 H155        0.2291  -17.2572  -46.0935 H         1 UNK         0.0600 
    156 H156       -1.5237  -15.4927  -44.2998 H         1 UNK         0.0600 
    157 H157       -1.6939  -15.6818  -46.0328 H         1 UNK         0.0600 
    158 H158       -0.2521  -14.9189  -45.3713 H         1 UNK         0.0600 
    159 H159        0.7223  -16.3075  -43.4531 H         1 UNK         0.3000 
    160 H160        2.6344  -19.0929  -42.2803 H         1 UNK         0.0600 
    161 H161        3.5043  -16.2256  -42.8899 H         1 UNK         0.0600 
    162 H162        4.2359  -17.6630  -43.5973 H         1 UNK         0.0600 
    163 H163        4.3257  -17.3923  -41.8645 H         1 UNK         0.0600 
    164 H164        1.8107  -16.5286  -41.2010 H         1 UNK         0.3000 
    165 H165       -1.1168  -17.7674  -39.5838 H         1 UNK         0.0600 
    166 H166        0.0572  -16.8817  -37.5874 H         1 UNK         0.0600 
    167 H167        0.7584  -18.4196  -38.0646 H         1 UNK         0.0600 
    168 H168        1.6012  -16.9210  -38.4393 H         1 UNK         0.0600 
    169 H169        0.1965  -15.2232  -39.5698 H         1 UNK         0.3000 
    170 H170       -1.2613  -13.8889  -42.5122 H         1 UNK         0.0600 
    171 H171       -3.1245  -13.6644  -40.8618 H         1 UNK         0.0600 
    172 H172       -1.9686  -13.2864  -39.5900 H         1 UNK         0.0600 
    173 H173       -2.1749  -12.1903  -40.9570 H         1 UNK         0.0600 
    174 H174        0.2748  -12.6666  -40.4683 H         1 UNK         0.3000 
    175 H175        2.4500  -11.9603  -41.1833 H         1 UNK         0.0600 
    176 H176        3.3323  -14.6821  -40.0282 H         1 UNK         0.0600 
    177 H177        3.9936  -13.1178  -39.5619 H         1 UNK         0.0600 
    178 H178        2.3260  -13.5068  -39.1884 H         1 UNK         0.0600 
    179 H179        3.5535  -13.9413  -42.9503 H         1 UNK         0.3000 
    180 H180        6.2027  -11.8953  -43.9271 H         1 UNK         0.0600 
    181 H181        6.7325  -14.5131  -42.4198 H         1 UNK         0.0600 
    182 H182        7.5013  -12.9668  -42.0838 H         1 UNK         0.0600 
    183 H183        7.7995  -13.7729  -43.6146 H         1 UNK         0.0600 
    184 H184        5.5791  -14.6176  -44.5787 H         1 UNK         0.3000 
    185 H185        4.8828  -14.8103  -46.8598 H         1 UNK         0.0600 
    186 H186        3.3765  -15.7930  -45.1502 H         1 UNK         0.0600 
    187 H187        2.0898  -14.6737  -45.5728 H         1 UNK         0.0600 
    188 H188        2.6030  -15.9218  -46.7104 H         1 UNK         0.0600 
    189 H189        3.1204  -12.6059  -47.4955 H         1 UNK         0.3000 
    190 H190       -1.8424  -20.6366  -46.7165 H         1 UNK         0.3000 
    191 H191       -3.3173  -21.7115  -48.8439 H         1 UNK         0.0600 
    192 H192       -4.3331  -20.7456  -46.1184 H         1 UNK         0.0600 
    193 H193       -5.2959  -20.9032  -47.5833 H         1 UNK         0.0600 
    194 H194       -3.9995  -19.7189  -47.5094 H         1 UNK         0.0600 
    195 H195       -2.9631  -22.9788  -45.4951 H         1 UNK         0.3000 
    196 H196       -4.7245  -25.1962  -45.8033 H         1 UNK         0.0600 
    197 H197       -3.5832  -26.0349  -43.7416 H         1 UNK         0.0600 
    198 H198       -4.0331  -24.3426  -43.5925 H         1 UNK         0.0600 
    199 H199       -2.3564  -24.7833  -43.9033 H         1 UNK         0.0600 
    200 H200       -1.1373  -24.9711  -46.1424 H         1 UNK         0.3000 
    201 H201       -0.7487  -27.7320  -46.6949 H         1 UNK         0.0600 
    202 H202        1.0280  -26.2794  -45.7816 H         1 UNK         0.0600 
    203 H203        1.0446  -25.3129  -47.2557 H         1 UNK         0.0600 
    204 H204        1.5655  -26.9944  -47.2939 H         1 UNK         0.0600 
    205 H205       -1.0499  -24.9051  -48.8929 H         1 UNK         0.3000 
    206 H206       -0.5996  -26.5984  -51.2670 H         1 UNK         0.0600 
    207 H207        0.5722  -24.3881  -50.9129 H         1 UNK         0.0600 
    208 H208       -0.3266  -24.4828  -52.4139 H         1 UNK         0.0600 
    209 H209       -0.9829  -23.5750  -51.0507 H         1 UNK         0.0600 
    210 H210       -3.2592  -26.2157  -49.4831 H         1 UNK         0.3000 
    211 H211       -5.4619  -26.3956  -49.7287 H         1 UNK         0.0600 
    212 H212       -4.7829  -27.5514  -52.4887 H         1 UNK         0.0600 
    213 H213       -6.3001  -27.7631  -51.6260 H         1 UNK         0.0600 
    214 H214       -4.8210  -28.4506  -50.9732 H         1 UNK         0.0600 
    215 H215       -5.1009  -23.9799  -49.7285 H         1 UNK         0.3000 
    216 H216       -5.6634  -21.9151  -50.2198 H         1 UNK         0.0600 
    217 H217       -7.9875  -22.8175  -50.5560 H         1 UNK         0.0600 
    218 H218       -7.6624  -22.9845  -52.2818 H         1 UNK         0.0600 
    219 H219       -7.6737  -21.3956  -51.5367 H         1 UNK         0.0600 
    220 H220       -3.5117  -23.2601  -51.6248 H         1 UNK         0.3000 
    221 H221       -1.9461  -23.0281  -53.2008 H         1 UNK         0.0600 
    222 H222       -2.9816  -20.1587  -53.3741 H         1 UNK         0.0600 
    223 H223       -1.6985  -20.7578  -52.3329 H         1 UNK         0.0600 
    224 H224       -1.4664  -20.7295  -54.0743 H         1 UNK         0.0600 
    225 H225       -3.8406  -24.4961  -53.9791 H         1 UNK         0.3000 
    226 H226       -5.0277  -25.4921  -55.5132 H         1 UNK         0.0600 
    227 H227       -3.1537  -25.1664  -57.1129 H         1 UNK         0.0600 
    228 H228       -4.7053  -25.0984  -57.9346 H         1 UNK         0.0600 
    229 H229       -3.8209  -23.6149  -57.6174 H         1 UNK         0.0600 
    230 H230       -5.1364  -22.0140  -56.1188 H         1 UNK         0.3000 
    231 H231       -7.8686  -21.7355  -55.3301 H         1 UNK         0.0600 
    232 H232       -8.3575  -22.5559  -57.6359 H         1 UNK         0.0600 
    233 H233       -7.2799  -21.3411  -58.3217 H         1 UNK         0.0600 
    234 H234       -8.7686  -20.8564  -57.5183 H         1 UNK         0.0600 
    235 H235       -4.7359  -20.4741  -55.8731 H         1 UNK         0.3000 
    236 H236       -5.3452  -17.7968  -56.5474 H         1 UNK         0.0600 
    237 H237       -2.9450  -17.4050  -56.0442 H         1 UNK         0.0600 
    238 H238       -2.8210  -18.9937  -55.3075 H         1 UNK         0.0600 
    239 H239       -3.1686  -18.8443  -57.0255 H         1 UNK         0.0600 
    240 H240       -5.4318  -19.3635  -53.3941 H         1 UNK         0.3000 
    241 H241       -5.5411  -16.7762  -51.9677 H         1 UNK         0.0600 
    242 H242       -9.2335  -17.6512  -53.1663 H         1 UNK         0.3800 
    243 H243       -7.8385  -18.2976  -53.9888 H         1 UNK         0.3800 
    244 H244       -6.1142  -19.5617  -50.8731 H         1 UNK         0.0800 
    245 H245       -5.9807  -18.1063  -49.9453 H         1 UNK         0.0800 
    246 H246       -3.4742  -16.7046  -51.3582 H         1 UNK         0.0800 
    247 H247       -2.6781  -17.9050  -52.3483 H         1 UNK         0.0800 
@<TRIPOS>BOND
     1    1    2 1    
     2    1  127 1    
     3    1  128 1    
     4    1  129 1    
     5    2    3 2    
     6    2    4 am   BACKBONE|DICT|INTERRES
     7    4    5 1    
     8    4  130 1    
     9    5    6 1    
    10    5   65 1    
    11    5  131 1    
    12    6    7 1    
    13    6  132 1    
    14    6  133 1    
    15    7    8 1    
    16    8    9 1    
    17    8  134 1    
    18    8  135 1    
    19    9   10 ar   
    20    9   14 ar   
    21   10   11 ar   
    22   10  136 1    
    23   11   12 ar   
    24   11  126 1    
    25   12   13 ar   
    26   12  137 1    
    27   13   14 ar   
    28   13   15 1    
    29   14  138 1    
    30   15   16 1    
    31   15  139 1    
    32   15  140 1    
    33   16   17 1    
    34   17   18 1    
    35   17  141 1    
    36   17  142 1    
    37   18   19 1    
    38   18   67 1    
    39   18  143 1    
    40   19   20 am   BACKBONE|DICT|INTERRES
    41   19  144 1    
    42   20   21 2    
    43   20   22 1    
    44   22   23 1    
    45   22   24 1    
    46   22  145 1    
    47   23  146 1    
    48   23  147 1    
    49   23  148 1    
    50   24   25 am   BACKBONE|DICT|INTERRES
    51   24  149 1    
    52   25   26 2    
    53   25   27 1    
    54   27   28 1    
    55   27   29 1    
    56   27  150 1    
    57   28  151 1    
    58   28  152 1    
    59   28  153 1    
    60   29   30 am   BACKBONE|DICT|INTERRES
    61   29  154 1    
    62   30   31 2    
    63   30   32 1    
    64   32   33 1    
    65   32   34 1    
    66   32  155 1    
    67   33  156 1    
    68   33  157 1    
    69   33  158 1    
    70   34   35 am   BACKBONE|DICT|INTERRES
    71   34  159 1    
    72   35   36 2    
    73   35   37 1    
    74   37   38 1    
    75   37   39 1    
    76   37  160 1    
    77   38  161 1    
    78   38  162 1    
    79   38  163 1    
    80   39   40 am   BACKBONE|DICT|INTERRES
    81   39  164 1    
    82   40   41 2    
    83   40   42 1    
    84   42   43 1    
    85   42   44 1    
    86   42  165 1    
    87   43  166 1    
    88   43  167 1    
    89   43  168 1    
    90   44   45 am   BACKBONE|DICT|INTERRES
    91   44  169 1    
    92   45   46 2    
    93   45   47 1    
    94   47   48 1    
    95   47   49 1    
    96   47  170 1    
    97   48  171 1    
    98   48  172 1    
    99   48  173 1    
   100   49   50 am   BACKBONE|DICT|INTERRES
   101   49  174 1    
   102   50   51 2    
   103   50   52 1    
   104   52   53 1    
   105   52   54 1    
   106   52  175 1    
   107   53  176 1    
   108   53  177 1    
   109   53  178 1    
   110   54   55 am   BACKBONE|DICT|INTERRES
   111   54  179 1    
   112   55   56 2    
   113   55   57 1    
   114   57   58 1    
   115   57   59 1    
   116   57  180 1    
   117   58  181 1    
   118   58  182 1    
   119   58  183 1    
   120   59   60 am   BACKBONE|DICT|INTERRES
   121   59  184 1    
   122   60   61 2    
   123   60   62 1    
   124   62   63 1    
   125   62   64 1    
   126   62  185 1    
   127   63  186 1    
   128   63  187 1    
   129   63  188 1    
   130   64   65 am   BACKBONE|DICT|INTERRES
   131   64  189 1    
   132   65   66 2    
   133   67   68 2    
   134   67   69 am   BACKBONE|DICT|INTERRES
   135   69   70 1    
   136   69  190 1    
   137   70   71 1    
   138   70   72 1    
   139   70  191 1    
   140   71  192 1    
   141   71  193 1    
   142   71  194 1    
   143   72   73 2    
   144   72   74 am   BACKBONE|DICT|INTERRES
   145   74   75 1    
   146   74  195 1    
   147   75   76 1    
   148   75   77 1    
   149   75  196 1    
   150   76  197 1    
   151   76  198 1    
   152   76  199 1    
   153   77   78 2    
   154   77   79 am   BACKBONE|DICT|INTERRES
   155   79   80 1    
   156   79  200 1    
   157   80   81 1    
   158   80   82 1    
   159   80  201 1    
   160   81  202 1    
   161   81  203 1    
   162   81  204 1    
   163   82   83 2    
   164   82   84 am   BACKBONE|DICT|INTERRES
   165   84   85 1    
   166   84  205 1    
   167   85   86 1    
   168   85   87 1    
   169   85  206 1    
   170   86  207 1    
   171   86  208 1    
   172   86  209 1    
   173   87   88 2    
   174   87   89 am   BACKBONE|DICT|INTERRES
   175   89   90 1    
   176   89  210 1    
   177   90   91 1    
   178   90   92 1    
   179   90  211 1    
   180   91  212 1    
   181   91  213 1    
   182   91  214 1    
   183   92   93 2    
   184   92   94 am   BACKBONE|DICT|INTERRES
   185   94   95 1    
   186   94  215 1    
   187   95   96 1    
   188   95   97 1    
   189   95  216 1    
   190   96  217 1    
   191   96  218 1    
   192   96  219 1    
   193   97   98 2    
   194   97   99 am   BACKBONE|DICT|INTERRES
   195   99  100 1    
   196   99  220 1    
   197  100  101 1    
   198  100  102 1    
   199  100  221 1    
   200  101  222 1    
   201  101  223 1    
   202  101  224 1    
   203  102  103 2    
   204  102  104 am   BACKBONE|DICT|INTERRES
   205  104  105 1    
   206  104  225 1    
   207  105  106 1    
   208  105  107 1    
   209  105  226 1    
   210  106  227 1    
   211  106  228 1    
   212  106  229 1    
   213  107  108 2    
   214  107  109 am   BACKBONE|DICT|INTERRES
   215  109  110 1    
   216  109  230 1    
   217  110  111 1    
   218  110  112 1    
   219  110  231 1    
   220  111  232 1    
   221  111  233 1    
   222  111  234 1    
   223  112  113 2    
   224  112  114 am   BACKBONE|DICT|INTERRES
   225  114  115 1    
   226  114  235 1    
   227  115  116 1    
   228  115  117 1    
   229  115  236 1    
   230  116  237 1    
   231  116  238 1    
   232  116  239 1    
   233  117  118 2    
   234  117  119 am   BACKBONE|DICT|INTERRES
   235  119  120 1    
   236  119  240 1    
   237  120  121 1    
   238  120  124 1    
   239  120  241 1    
   240  121  122 am   BACKBONE|DICT|INTERRES
   241  121  123 2    
   242  122  242 1    
   243  122  243 1    
   244  124  125 1    
   245  124  244 1    
   246  124  245 1    
   247  125  126 1    
   248  126  246 1    
   249  126  247 1    
@<TRIPOS>SUBSTRUCTURE
     1 UNK         1 GROUP             0       ****    0 ROOT    
