@<TRIPOS>MOLECULE
3R540
247   249    1
SMALL
USER_CHARGES


@<TRIPOS>ATOM
      1 CA          0.1257  -14.4375  -50.1010 C.3       0 UNK        -0.1800 
      2 C           1.6394  -14.5869  -50.0817 C.2       0 UNK         0.5000 
      3 O           2.3372  -13.8537  -50.7825 O.2       0 UNK        -0.5000 
      4 N           2.1479  -15.5326  -49.2828 N.am      1 UNK        -0.5000 
      5 CA          3.5760  -15.7807  -49.0690 C.3       1 UNK         0.1400 
      6 C6          3.8313  -17.1420  -48.3778 C.3       23 UNK        -0.0398 
      7 S7          3.4008  -18.5691  -49.4279 S.3       23 UNK        -0.2404 
      8 C8          2.0362  -19.3292  -48.4941 C.3       23 UNK        -0.0205 
      9 C9          0.7063  -18.6492  -48.7712 C.ar      23 UNK        -0.0193 
     10 C10         0.0718  -18.8453  -50.0005 C.ar      23 UNK        -0.1150 
     11 C11        -1.1688  -18.2624  -50.2658 C.ar      23 UNK        -0.0193 
     12 C12        -1.7781  -17.4792  -49.2821 C.ar      23 UNK        -0.1150 
     13 C13        -1.1477  -17.2620  -48.0538 C.ar      23 UNK        -0.0193 
     14 C14         0.0974  -17.8475  -47.8018 C.ar      23 UNK        -0.1150 
     15 C15        -1.8217  -16.3970  -47.0020 C.3       23 UNK        -0.0205 
     16 S16        -3.1488  -17.2910  -46.1403 S.3       23 UNK        -0.2404 
     17 C17        -2.1903  -18.5358  -45.2176 C.3       23 UNK        -0.0398 
     18 CA         -2.0948  -19.8923  -45.9578 C.3       11 UNK         0.1400 
     19 N          -0.9237  -20.6607  -45.5241 N.am      11 UNK        -0.5000 
     20 C          -0.5178  -21.8336  -46.0296 C.2       10 UNK         0.5000 
     21 O          -1.0758  -22.4001  -46.9675 O.2       10 UNK        -0.5000 
     22 CA          0.6812  -22.5098  -45.3461 C.3       10 UNK         0.1400 
     23 CB          2.0075  -21.9989  -45.9252 C.3       10 UNK        -0.1800 
     24 N           0.6589  -22.2848  -43.9018 N.am      10 UNK        -0.5000 
     25 C          -0.0620  -23.0116  -43.0374 C.2       9 UNK         0.5000 
     26 O          -0.7127  -24.0065  -43.3569 O.2       9 UNK        -0.5000 
     27 CA         -0.0784  -22.5347  -41.5717 C.3       9 UNK         0.1400 
     28 CB          1.0808  -23.1666  -40.7866 C.3       9 UNK        -0.1800 
     29 N          -0.0142  -21.0775  -41.4341 N.am      9 UNK        -0.5000 
     30 C          -0.9765  -20.2337  -41.8316 C.2       8 UNK         0.5000 
     31 O          -2.0302  -20.5967  -42.3549 O.2       8 UNK        -0.5000 
     32 CA         -0.6945  -18.7275  -41.6602 C.3       8 UNK         0.1400 
     33 CB         -1.0962  -18.2686  -40.2511 C.3       8 UNK        -0.1800 
     34 N           0.6900  -18.3194  -41.9276 N.am      8 UNK        -0.5000 
     35 C           1.3933  -18.5893  -43.0384 C.2       7 UNK         0.5000 
     36 O           0.9756  -19.3129  -43.9425 O.2       7 UNK        -0.5000 
     37 CA          2.7853  -17.9441  -43.1637 C.3       7 UNK         0.1400 
     38 CB          3.2150  -17.7852  -44.6330 C.3       7 UNK        -0.1800 
     39 N           2.7967  -16.6255  -42.5371 N.am      7 UNK        -0.5000 
     40 C           3.5097  -16.2695  -41.4610 C.2       6 UNK         0.5000 
     41 O           4.2370  -17.0430  -40.8377 O.2       6 UNK        -0.5000 
     42 CA          3.4016  -14.8002  -41.0007 C.3       6 UNK         0.1400 
     43 CB          4.6799  -14.0331  -41.3721 C.3       6 UNK        -0.1800 
     44 N           2.2514  -14.0979  -41.5740 N.am      6 UNK        -0.5000 
     45 C           0.9751  -14.2973  -41.2180 C.2       5 UNK         0.5000 
     46 O           0.6315  -15.0527  -40.3093 O.2       5 UNK        -0.5000 
     47 CA         -0.0959  -13.5584  -42.0436 C.3       5 UNK         0.1400 
     48 CB         -0.4862  -12.2391  -41.3614 C.3       5 UNK        -0.1800 
     49 N           0.3210  -13.2777  -43.4206 N.am      5 UNK        -0.5000 
     50 C           0.5714  -14.1975  -44.3601 C.2       4 UNK         0.5000 
     51 O           0.5030  -15.4097  -44.1591 O.2       4 UNK        -0.5000 
     52 CA          1.0220  -13.6848  -45.7387 C.3       4 UNK         0.1400 
     53 CB         -0.1224  -12.9906  -46.5027 C.3       4 UNK        -0.1800 
     54 N           2.2241  -12.8460  -45.6861 N.am      4 UNK        -0.5000 
     55 C           2.3752  -11.6090  -45.1862 C.2       3 UNK         0.5000 
     56 O           1.4736  -10.9824  -44.6277 O.2       3 UNK        -0.5000 
     57 CA          3.7698  -10.9593  -45.3062 C.3       3 UNK         0.1400 
     58 CB          4.4561  -10.9045  -43.9324 C.3       3 UNK        -0.1800 
     59 N           4.6587  -11.6431  -46.2479 N.am      3 UNK        -0.5000 
     60 C           4.5409  -11.6122  -47.5821 C.2       2 UNK         0.5000 
     61 O           3.6938  -10.9453  -48.1778 O.2       2 UNK        -0.5000 
     62 CA          5.5135  -12.4941  -48.3931 C.3       2 UNK         0.1400 
     63 CB          6.7888  -12.8991  -47.6191 C.3       2 UNK        -0.1800 
     64 N           4.8450  -13.6819  -48.9348 N.am      2 UNK        -0.5000 
     65 C           4.1947  -14.6318  -48.2468 C.2       1 UNK         0.5000 
     66 O           4.0596  -14.6252  -47.0210 O.2       1 UNK        -0.5000 
     67 C          -3.4048  -20.6955  -45.8367 C.2       11 UNK         0.5000 
     68 O          -4.2296  -20.6555  -46.7493 O.2       11 UNK        -0.5000 
     69 N          -3.5308  -21.4780  -44.7556 N.am      12 UNK        -0.5000 
     70 CA         -4.6342  -22.4077  -44.4996 C.3       12 UNK         0.1400 
     71 CB         -4.4374  -23.0301  -43.1088 C.3       12 UNK        -0.1800 
     72 C          -4.8041  -23.5135  -45.5655 C.2       12 UNK         0.5000 
     73 O          -5.8930  -24.0784  -45.6715 O.2       12 UNK        -0.5000 
     74 N          -3.7429  -23.7944  -46.3329 N.am      13 UNK        -0.5000 
     75 CA         -3.7269  -24.7362  -47.4508 C.3       13 UNK         0.1400 
     76 CB         -2.5991  -25.7530  -47.2034 C.3       13 UNK        -0.1800 
     77 C          -3.5235  -24.0259  -48.8037 C.2       13 UNK         0.5000 
     78 O          -3.3678  -24.7176  -49.8106 O.2       13 UNK        -0.5000 
     79 N          -3.4880  -22.6811  -48.8116 N.am      14 UNK        -0.5000 
     80 CA         -3.1424  -21.7988  -49.9349 C.3       14 UNK         0.1400 
     81 CB         -4.3265  -21.6934  -50.9146 C.3       14 UNK        -0.1800 
     82 C          -1.8245  -22.2222  -50.6188 C.2       14 UNK         0.5000 
     83 O          -1.7944  -22.4437  -51.8319 O.2       14 UNK        -0.5000 
     84 N          -0.7906  -22.4325  -49.7907 N.am      15 UNK        -0.5000 
     85 CA          0.4643  -23.1414  -50.0596 C.3       15 UNK         0.1400 
     86 CB          1.2959  -22.4883  -51.1828 C.3       15 UNK        -0.1800 
     87 C           0.2191  -24.6416  -50.3043 C.2       15 UNK         0.5000 
     88 O           0.5920  -25.4633  -49.4664 O.2       15 UNK        -0.5000 
     89 N          -0.4307  -24.9598  -51.4278 N.am      16 UNK        -0.5000 
     90 CA         -0.8846  -26.2991  -51.7977 C.3       16 UNK         0.1400 
     91 CB          0.2703  -27.0656  -52.4704 C.3       16 UNK        -0.1800 
     92 C          -2.1440  -26.2676  -52.6887 C.2       16 UNK         0.5000 
     93 O          -2.5657  -27.3238  -53.1622 O.2       16 UNK        -0.5000 
     94 N          -2.7237  -25.0809  -52.9270 N.am      17 UNK        -0.5000 
     95 CA         -3.8626  -24.8802  -53.8271 C.3       17 UNK         0.1400 
     96 CB         -3.7498  -23.4753  -54.4355 C.3       17 UNK        -0.1800 
     97 C          -5.2337  -25.0663  -53.1459 C.2       17 UNK         0.5000 
     98 O          -6.2575  -24.8980  -53.8122 O.2       17 UNK        -0.5000 
     99 N          -5.2442  -25.3546  -51.8365 N.am      18 UNK        -0.5000 
    100 CA        -6.3854  -25.4911  -50.9235 C.3       18 UNK         0.1400 
    101 CB        -7.3520  -26.6073  -51.3664 C.3       18 UNK        -0.1800 
    102 C         -7.1106  -24.1558  -50.6787 C.2       18 UNK         0.5000 
    103 O         -7.1322  -23.6713  -49.5476 O.2       18 UNK        -0.5000 
    104 N         -7.6591  -23.5797  -51.7510 N.am      19 UNK        -0.5000 
    105 CA        -8.3189  -22.2766  -51.7894 C.3       19 UNK         0.1400 
    106 CB        -9.7590  -22.4093  -51.2573 C.3       19 UNK        -0.1800 
    107 C         -8.2955  -21.6522  -53.2000 C.2       19 UNK         0.5000 
    108 O         -8.8530  -20.5689  -53.3793 O.2       19 UNK        -0.5000 
    109 N         -7.6830  -22.3270  -54.1874 N.am      20 UNK        -0.5000 
    110 CA        -7.6888  -21.9111  -55.5933 C.3       20 UNK         0.1400 
    111 CB        -7.4850  -23.1520  -56.4782 C.3       20 UNK        -0.1800 
    112 C         -6.6573  -20.8159  -55.9341 C.2       20 UNK         0.5000 
    113 O         -6.7071  -20.2803  -57.0426 O.2       20 UNK        -0.5000 
    114 N         -5.7492  -20.5010  -55.0022 N.am      21 UNK        -0.5000 
    115 CA        -4.7441  -19.4482  -55.1328 C.3       21 UNK         0.1400 
    116 CB        -3.3405  -20.0667  -55.0246 C.3       21 UNK        -0.1800 
    117 C         -4.9388  -18.4003  -54.0295 C.2       21 UNK         0.5000 
    118 O         -5.4355  -18.7264  -52.9487 O.2       21 UNK        -0.5000 
    119 N         -4.4914  -17.1735  -54.3211 N.am      22 UNK        -0.5000 
    120 CA        -4.4187  -16.0203  -53.4031 C.3       22 UNK         0.1400 
    121 C         -5.7933  -15.3984  -53.0075 C.2       22 UNK         0.5000 
    122 N         -6.8892  -15.7306  -53.6786 N.am      22 UNK        -0.7600 
    123 O         -5.8672  -14.5742  -52.1001 O.2       22 UNK        -0.5000 
    124 C124       -3.5057  -16.2680  -52.1670 C.3       23 UNK        -0.0398 
    125 S125       -1.8701  -16.9616  -52.6080 S.3       23 UNK        -0.2404 
    126 C126       -1.8416  -18.4864  -51.6126 C.3       23 UNK        -0.0205 
    127 H127       -0.3202  -14.7893  -49.1720 H         1 UNK         0.0600 
    128 H128       -0.2977  -15.0083  -50.9264 H         1 UNK         0.0600 
    129 H129       -0.1521  -13.3913  -50.2287 H         1 UNK         0.0600 
    130 H130        1.5197  -16.1352  -48.7711 H         1 UNK         0.3000 
    131 H131        4.0688  -15.8058  -50.0435 H         1 UNK         0.0600 
    132 H132        3.2879  -17.1974  -47.4350 H         1 UNK         0.0800 
    133 H133        4.8872  -17.2461  -48.1211 H         1 UNK         0.0800 
    134 H134        2.2652  -19.3202  -47.4285 H         1 UNK         0.0800 
    135 H135        1.9606  -20.3792  -48.7774 H         1 UNK         0.0800 
    136 H136        0.5484  -19.4532  -50.7551 H         1 UNK         0.1150 
    137 H137       -2.7420  -17.0300  -49.4706 H         1 UNK         0.1150 
    138 H138        0.5798  -17.6968  -46.8456 H         1 UNK         0.1150 
    139 H139       -1.0948  -16.0374  -46.2739 H         1 UNK         0.0800 
    140 H140       -2.2477  -15.5136  -47.4794 H         1 UNK         0.0800 
    141 H141       -2.6446  -18.6582  -44.2339 H         1 UNK         0.0800 
    142 H142       -1.1954  -18.1288  -45.0335 H         1 UNK         0.0800 
    143 H143       -1.9442  -19.7026  -47.0216 H         1 UNK         0.0600 
    144 H144       -0.3510  -20.2359  -44.7990 H         1 UNK         0.3000 
    145 H145        0.6183  -23.5814  -45.5478 H         1 UNK         0.0600 
    146 H146        2.8542  -22.5328  -45.4938 H         1 UNK         0.0600 
    147 H147        2.1507  -20.9369  -45.7297 H         1 UNK         0.0600 
    148 H148        2.0468  -22.1475  -47.0045 H         1 UNK         0.0600 
    149 H149        1.1091  -21.4410  -43.5718 H         1 UNK         0.3000 
    150 H150       -1.0167  -22.8731  -41.1268 H         1 UNK         0.0600 
    151 H151        1.0478  -24.2551  -40.8504 H         1 UNK         0.0600 
    152 H152        1.0317  -22.9029  -39.7299 H         1 UNK         0.0600 
    153 H153        2.0499  -22.8444  -41.1695 H         1 UNK         0.0600 
    154 H154        0.8234  -20.6925  -41.0227 H         1 UNK         0.3000 
    155 H155       -1.3232  -18.1941  -42.3737 H         1 UNK         0.0600 
    156 H156       -2.1216  -18.5611  -40.0205 H         1 UNK         0.0600 
    157 H157       -1.0442  -17.1839  -40.1597 H         1 UNK         0.0600 
    158 H158       -0.4504  -18.7020  -39.4866 H         1 UNK         0.0600 
    159 H159        1.1095  -17.7027  -41.2467 H         1 UNK         0.3000 
    160 H160        3.4920  -18.6146  -42.6715 H         1 UNK         0.0600 
    161 H161        4.1898  -17.3035  -44.7105 H         1 UNK         0.0600 
    162 H162        3.2922  -18.7524  -45.1302 H         1 UNK         0.0600 
    163 H163        2.4990  -17.1801  -45.1904 H         1 UNK         0.0600 
    164 H164        2.1691  -15.9486  -42.9555 H         1 UNK         0.3000 
    165 H165        3.3020  -14.7991  -39.9132 H         1 UNK         0.0600 
    166 H166        4.6296  -12.9944  -41.0448 H         1 UNK         0.0600 
    167 H167        5.5544  -14.4799  -40.8974 H         1 UNK         0.0600 
    168 H168        4.8535  -14.0419  -42.4488 H         1 UNK         0.0600 
    169 H169        2.4396  -13.4570  -42.3300 H         1 UNK         0.3000 
    170 H170       -0.9784  -14.2003  -42.0845 H         1 UNK         0.0600 
    171 H171        0.3537  -11.5442  -41.3204 H         1 UNK         0.0600 
    172 H172       -1.3022  -11.7478  -41.8917 H         1 UNK         0.0600 
    173 H173       -0.8217  -12.4116  -40.3379 H         1 UNK         0.0600 
    174 H174        0.4647  -12.3037  -43.6740 H         1 UNK         0.3000 
    175 H175        1.3056  -14.5651  -46.3182 H         1 UNK         0.0600 
    176 H176       -0.4697  -12.0888  -45.9989 H         1 UNK         0.0600 
    177 H177        0.1929  -12.7096  -47.5075 H         1 UNK         0.0600 
    178 H178       -0.9845  -13.6478  -46.6040 H         1 UNK         0.0600 
    179 H179        3.0462  -13.2877  -46.0904 H         1 UNK         0.3000 
    180 H180        3.6206   -9.9351  -45.6544 H         1 UNK         0.0600 
    181 H181        5.4032  -10.3673  -43.9865 H         1 UNK         0.0600 
    182 H182        4.6587  -11.9026  -43.5453 H         1 UNK         0.0600 
    183 H183        3.8333  -10.3877  -43.2009 H         1 UNK         0.0600 
    184 H184        5.3682  -12.2395  -45.8472 H         1 UNK         0.3000 
    185 H185        5.8267  -11.8947  -49.2492 H         1 UNK         0.0600 
    186 H186        7.4890  -13.4180  -48.2738 H         1 UNK         0.0600 
    187 H187        7.3069  -12.0219  -47.2294 H         1 UNK         0.0600 
    188 H188        6.5763  -13.5614  -46.7793 H         1 UNK         0.0600 
    189 H189        4.8158  -13.7336  -49.9442 H         1 UNK         0.3000 
    190 H190       -2.8273  -21.4060  -44.0269 H         1 UNK         0.3000 
    191 H191       -5.5576  -21.8255  -44.4879 H         1 UNK         0.0600 
    192 H192       -4.4056  -22.2638  -42.3339 H         1 UNK         0.0600 
    193 H193       -3.5094  -23.6006  -43.0534 H         1 UNK         0.0600 
    194 H194       -5.2558  -23.7076  -42.8617 H         1 UNK         0.0600 
    195 H195       -2.8849  -23.2753  -46.1895 H         1 UNK         0.3000 
    196 H196       -4.6722  -25.2781  -47.5157 H         1 UNK         0.0600 
    197 H197       -2.7359  -26.2707  -46.2540 H         1 UNK         0.0600 
    198 H198       -1.6212  -25.2693  -47.1841 H         1 UNK         0.0600 
    199 H199       -2.5727  -26.5127  -47.9857 H         1 UNK         0.0600 
    200 H200       -3.6739  -22.2003  -47.9388 H         1 UNK         0.3000 
    201 H201       -2.9684  -20.8078  -49.5129 H         1 UNK         0.0600 
    202 H202       -5.2236  -21.3365  -50.4089 H         1 UNK         0.0600 
    203 H203       -4.5592  -22.6561  -51.3651 H         1 UNK         0.0600 
    204 H204       -4.1099  -20.9947  -51.7227 H         1 UNK         0.0600 
    205 H205       -0.9725  -22.2955  -48.7980 H         1 UNK         0.3000 
    206 H206        1.0487  -23.0662  -49.1415 H         1 UNK         0.0600 
    207 H207        0.7690  -22.4572  -52.1360 H         1 UNK         0.0600 
    208 H208        1.5766  -21.4694  -50.9239 H         1 UNK         0.0600 
    209 H209        2.2218  -23.0411  -51.3455 H         1 UNK         0.0600 
    210 H210       -0.7182  -24.1962  -52.0280 H         1 UNK         0.3000 
    211 H211       -1.1750  -26.8321  -50.8898 H         1 UNK         0.0600 
    212 H212        0.5959  -26.5711  -53.3862 H         1 UNK         0.0600 
    213 H213       -0.0276  -28.0817  -52.7317 H         1 UNK         0.0600 
    214 H214        1.1324  -27.1454  -51.8082 H         1 UNK         0.0600 
    215 H215       -2.3879  -24.2484  -52.4553 H         1 UNK         0.3000 
    216 H216       -3.8084  -25.6023  -54.6443 H         1 UNK         0.0600 
    217 H217       -4.5020  -23.3140  -55.2064 H         1 UNK         0.0600 
    218 H218       -2.7759  -23.3217  -54.9004 H         1 UNK         0.0600 
    219 H219       -3.8845  -22.7036  -53.6795 H         1 UNK         0.0600 
    220 H220       -4.3449  -25.3592  -51.3623 H         1 UNK         0.3000 
    221 H221       -5.9616  -25.7978  -49.9661 H         1 UNK         0.0600 
    222 H222       -7.8356  -26.3879  -52.3183 H         1 UNK         0.0600 
    223 H223       -6.8296  -27.5583  -51.4698 H         1 UNK         0.0600 
    224 H224       -8.1418  -26.7491  -50.6279 H         1 UNK         0.0600 
    225 H225       -7.5563  -24.0709  -52.6321 H         1 UNK         0.3000 
    226 H226       -7.7692  -21.5900  -51.1422 H         1 UNK         0.0600 
    227 H227       -9.7719  -22.7767  -50.2312 H         1 UNK         0.0600 
    228 H228      -10.2716  -21.4466  -51.2584 H         1 UNK         0.0600 
    229 H229      -10.3467  -23.0968  -51.8666 H         1 UNK         0.0600 
    230 H230       -7.2065  -23.2012  -53.9975 H         1 UNK         0.3000 
    231 H231       -8.6732  -21.5007  -55.8288 H         1 UNK         0.0600 
    232 H232       -7.5421  -22.8937  -57.5363 H         1 UNK         0.0600 
    233 H233       -8.2532  -23.9016  -56.2874 H         1 UNK         0.0600 
    234 H234       -6.5156  -23.6189  -56.3080 H         1 UNK         0.0600 
    235 H235       -5.8333  -20.9157  -54.0857 H         1 UNK         0.3000 
    236 H236       -4.8293  -18.9493  -56.1003 H         1 UNK         0.0600 
    237 H237       -3.1636  -20.5036  -54.0414 H         1 UNK         0.0600 
    238 H238       -3.1923  -20.8442  -55.7738 H         1 UNK         0.0600 
    239 H239       -2.5689  -19.3123  -55.1840 H         1 UNK         0.0600 
    240 H240       -4.1022  -17.0091  -55.2383 H         1 UNK         0.3000 
    241 H241       -3.9360  -15.2370  -53.9883 H         1 UNK         0.0600 
    242 H242       -7.7723  -15.3164  -53.4244 H         1 UNK         0.3800 
    243 H243       -6.8467  -16.4027  -54.4276 H         1 UNK         0.3800 
    244 H244       -4.0146  -16.9218  -51.4584 H         1 UNK         0.0800 
    245 H245       -3.3288  -15.3324  -51.6340 H         1 UNK         0.0800 
    246 H246       -1.3100  -19.2529  -52.1789 H         1 UNK         0.0800 
    247 H247       -2.8507  -18.8727  -51.4670 H         1 UNK         0.0800 
@<TRIPOS>BOND
     1    1    2 1    
     2    1  127 1    
     3    1  128 1    
     4    1  129 1    
     5    2    3 2    
     6    2    4 am   BACKBONE|DICT|INTERRES
     7    4    5 1    
     8    4  130 1    
     9    5    6 1    
    10    5   65 1    
    11    5  131 1    
    12    6    7 1    
    13    6  132 1    
    14    6  133 1    
    15    7    8 1    
    16    8    9 1    
    17    8  134 1    
    18    8  135 1    
    19    9   10 ar   
    20    9   14 ar   
    21   10   11 ar   
    22   10  136 1    
    23   11   12 ar   
    24   11  126 1    
    25   12   13 ar   
    26   12  137 1    
    27   13   14 ar   
    28   13   15 1    
    29   14  138 1    
    30   15   16 1    
    31   15  139 1    
    32   15  140 1    
    33   16   17 1    
    34   17   18 1    
    35   17  141 1    
    36   17  142 1    
    37   18   19 1    
    38   18   67 1    
    39   18  143 1    
    40   19   20 am   BACKBONE|DICT|INTERRES
    41   19  144 1    
    42   20   21 2    
    43   20   22 1    
    44   22   23 1    
    45   22   24 1    
    46   22  145 1    
    47   23  146 1    
    48   23  147 1    
    49   23  148 1    
    50   24   25 am   BACKBONE|DICT|INTERRES
    51   24  149 1    
    52   25   26 2    
    53   25   27 1    
    54   27   28 1    
    55   27   29 1    
    56   27  150 1    
    57   28  151 1    
    58   28  152 1    
    59   28  153 1    
    60   29   30 am   BACKBONE|DICT|INTERRES
    61   29  154 1    
    62   30   31 2    
    63   30   32 1    
    64   32   33 1    
    65   32   34 1    
    66   32  155 1    
    67   33  156 1    
    68   33  157 1    
    69   33  158 1    
    70   34   35 am   BACKBONE|DICT|INTERRES
    71   34  159 1    
    72   35   36 2    
    73   35   37 1    
    74   37   38 1    
    75   37   39 1    
    76   37  160 1    
    77   38  161 1    
    78   38  162 1    
    79   38  163 1    
    80   39   40 am   BACKBONE|DICT|INTERRES
    81   39  164 1    
    82   40   41 2    
    83   40   42 1    
    84   42   43 1    
    85   42   44 1    
    86   42  165 1    
    87   43  166 1    
    88   43  167 1    
    89   43  168 1    
    90   44   45 am   BACKBONE|DICT|INTERRES
    91   44  169 1    
    92   45   46 2    
    93   45   47 1    
    94   47   48 1    
    95   47   49 1    
    96   47  170 1    
    97   48  171 1    
    98   48  172 1    
    99   48  173 1    
   100   49   50 am   BACKBONE|DICT|INTERRES
   101   49  174 1    
   102   50   51 2    
   103   50   52 1    
   104   52   53 1    
   105   52   54 1    
   106   52  175 1    
   107   53  176 1    
   108   53  177 1    
   109   53  178 1    
   110   54   55 am   BACKBONE|DICT|INTERRES
   111   54  179 1    
   112   55   56 2    
   113   55   57 1    
   114   57   58 1    
   115   57   59 1    
   116   57  180 1    
   117   58  181 1    
   118   58  182 1    
   119   58  183 1    
   120   59   60 am   BACKBONE|DICT|INTERRES
   121   59  184 1    
   122   60   61 2    
   123   60   62 1    
   124   62   63 1    
   125   62   64 1    
   126   62  185 1    
   127   63  186 1    
   128   63  187 1    
   129   63  188 1    
   130   64   65 am   BACKBONE|DICT|INTERRES
   131   64  189 1    
   132   65   66 2    
   133   67   68 2    
   134   67   69 am   BACKBONE|DICT|INTERRES
   135   69   70 1    
   136   69  190 1    
   137   70   71 1    
   138   70   72 1    
   139   70  191 1    
   140   71  192 1    
   141   71  193 1    
   142   71  194 1    
   143   72   73 2    
   144   72   74 am   BACKBONE|DICT|INTERRES
   145   74   75 1    
   146   74  195 1    
   147   75   76 1    
   148   75   77 1    
   149   75  196 1    
   150   76  197 1    
   151   76  198 1    
   152   76  199 1    
   153   77   78 2    
   154   77   79 am   BACKBONE|DICT|INTERRES
   155   79   80 1    
   156   79  200 1    
   157   80   81 1    
   158   80   82 1    
   159   80  201 1    
   160   81  202 1    
   161   81  203 1    
   162   81  204 1    
   163   82   83 2    
   164   82   84 am   BACKBONE|DICT|INTERRES
   165   84   85 1    
   166   84  205 1    
   167   85   86 1    
   168   85   87 1    
   169   85  206 1    
   170   86  207 1    
   171   86  208 1    
   172   86  209 1    
   173   87   88 2    
   174   87   89 am   BACKBONE|DICT|INTERRES
   175   89   90 1    
   176   89  210 1    
   177   90   91 1    
   178   90   92 1    
   179   90  211 1    
   180   91  212 1    
   181   91  213 1    
   182   91  214 1    
   183   92   93 2    
   184   92   94 am   BACKBONE|DICT|INTERRES
   185   94   95 1    
   186   94  215 1    
   187   95   96 1    
   188   95   97 1    
   189   95  216 1    
   190   96  217 1    
   191   96  218 1    
   192   96  219 1    
   193   97   98 2    
   194   97   99 am   BACKBONE|DICT|INTERRES
   195   99  100 1    
   196   99  220 1    
   197  100  101 1    
   198  100  102 1    
   199  100  221 1    
   200  101  222 1    
   201  101  223 1    
   202  101  224 1    
   203  102  103 2    
   204  102  104 am   BACKBONE|DICT|INTERRES
   205  104  105 1    
   206  104  225 1    
   207  105  106 1    
   208  105  107 1    
   209  105  226 1    
   210  106  227 1    
   211  106  228 1    
   212  106  229 1    
   213  107  108 2    
   214  107  109 am   BACKBONE|DICT|INTERRES
   215  109  110 1    
   216  109  230 1    
   217  110  111 1    
   218  110  112 1    
   219  110  231 1    
   220  111  232 1    
   221  111  233 1    
   222  111  234 1    
   223  112  113 2    
   224  112  114 am   BACKBONE|DICT|INTERRES
   225  114  115 1    
   226  114  235 1    
   227  115  116 1    
   228  115  117 1    
   229  115  236 1    
   230  116  237 1    
   231  116  238 1    
   232  116  239 1    
   233  117  118 2    
   234  117  119 am   BACKBONE|DICT|INTERRES
   235  119  120 1    
   236  119  240 1    
   237  120  121 1    
   238  120  124 1    
   239  120  241 1    
   240  121  122 am   BACKBONE|DICT|INTERRES
   241  121  123 2    
   242  122  242 1    
   243  122  243 1    
   244  124  125 1    
   245  124  244 1    
   246  124  245 1    
   247  125  126 1    
   248  126  246 1    
   249  126  247 1    
@<TRIPOS>SUBSTRUCTURE
     1 UNK         1 GROUP             0       ****    0 ROOT    
