@<TRIPOS>MOLECULE
3R540
247   249    1
SMALL
USER_CHARGES


@<TRIPOS>ATOM
      1 CA         -2.0982  -12.7386  -49.2330 C.3       0 UNK        -0.1800 
      2 C          -1.1191  -12.2704  -48.1658 C.2       0 UNK         0.5000 
      3 O          -1.3620  -11.2602  -47.5065 O.2       0 UNK        -0.5000 
      4 N          -0.0232  -13.0137  -47.9693 N.am      1 UNK        -0.5000 
      5 CA          1.0796  -12.7360  -47.0347 C.3       1 UNK         0.1400 
      6 C6          2.3762  -13.4680  -47.4666 C.3       23 UNK        -0.0398 
      7 S7          2.1765  -15.2806  -47.5629 S.3       23 UNK        -0.2404 
      8 C8          2.9068  -15.6565  -49.1849 C.3       23 UNK        -0.0205 
      9 C9          2.7507  -17.1277  -49.5456 C.ar      23 UNK        -0.0193 
     10 C10         2.0858  -17.5008  -50.7176 C.ar      23 UNK        -0.1150 
     11 C11         1.9669  -18.8487  -51.0676 C.ar      23 UNK        -0.0193 
     12 C12         2.5127  -19.8275  -50.2322 C.ar      23 UNK        -0.1150 
     13 C13         3.1670  -19.4718  -49.0470 C.ar      23 UNK        -0.0193 
     14 C14         3.2900  -18.1185  -48.7186 C.ar      23 UNK        -0.1150 
     15 C15         3.7755  -20.5268  -48.1251 C.3       23 UNK        -0.0205 
     16 S16         2.7312  -22.0035  -47.8797 S.3       23 UNK        -0.2404 
     17 C17         1.2193  -21.2555  -47.1882 C.3       23 UNK        -0.0398 
     18 CA          0.1888  -22.3007  -46.6977 C.3       11 UNK         0.1400 
     19 N          -0.8494  -21.6669  -45.8838 N.am      11 UNK        -0.5000 
     20 C          -1.8279  -22.3082  -45.2309 C.2       10 UNK         0.5000 
     21 O          -1.9334  -23.5338  -45.1767 O.2       10 UNK        -0.5000 
     22 CA         -2.9016  -21.4210  -44.5795 C.3       10 UNK         0.1400 
     23 CB         -2.4204  -20.8793  -43.2254 C.3       10 UNK        -0.1800 
     24 N          -3.2808  -20.3089  -45.4535 N.am      10 UNK        -0.5000 
     25 C          -4.0052  -20.4502  -46.5726 C.2       9 UNK         0.5000 
     26 O          -4.4619  -21.5252  -46.9573 O.2       9 UNK        -0.5000 
     27 CA         -4.2333  -19.1896  -47.4255 C.3       9 UNK         0.1400 
     28 CB         -5.4516  -18.4031  -46.9218 C.3       9 UNK        -0.1800 
     29 N          -3.0678  -18.3063  -47.4791 N.am      9 UNK        -0.5000 
     30 C          -1.9073  -18.6363  -48.0639 C.2       8 UNK         0.5000 
     31 O          -1.6915  -19.7251  -48.5864 O.2       8 UNK        -0.5000 
     32 CA         -0.7804  -17.5931  -48.0084 C.3       8 UNK         0.1400 
     33 CB         -1.0158  -16.5235  -49.0865 C.3       8 UNK        -0.1800 
     34 N          -0.6278  -16.9516  -46.6977 N.am      8 UNK        -0.5000 
     35 C          -0.4855  -17.5869  -45.5256 C.2       7 UNK         0.5000 
     36 O          -0.5215  -18.8128  -45.3990 O.2       7 UNK        -0.5000 
     37 CA         -0.3050  -16.6812  -44.2926 C.3       7 UNK         0.1400 
     38 CB         -0.8235  -17.3406  -42.9995 C.3       7 UNK        -0.1800 
     39 N           1.0721  -16.2129  -44.1037 N.am      7 UNK        -0.5000 
     40 C           2.1852  -16.9493  -43.9469 C.2       6 UNK         0.5000 
     41 O           2.2350  -18.1748  -44.0484 O.2       6 UNK        -0.5000 
     42 CA          3.4588  -16.1853  -43.5356 C.3       6 UNK         0.1400 
     43 CB          4.3120  -15.7891  -44.7481 C.3       6 UNK        -0.1800 
     44 N           3.1467  -14.9873  -42.7553 N.am      6 UNK        -0.5000 
     45 C           2.9356  -14.9769  -41.4319 C.2       5 UNK         0.5000 
     46 O           3.0394  -15.9801  -40.7241 O.2       5 UNK        -0.5000 
     47 CA          2.5101  -13.6375  -40.7906 C.3       5 UNK         0.1400 
     48 CB          3.1310  -13.4229  -39.3944 C.3       5 UNK        -0.1800 
     49 N           2.7183  -12.4667  -41.6510 N.am      5 UNK        -0.5000 
     50 C           3.8803  -11.9407  -42.0717 C.2       4 UNK         0.5000 
     51 O           4.9854  -12.3687  -41.7381 O.2       4 UNK        -0.5000 
     52 CA          3.8027  -10.7575  -43.0600 C.3       4 UNK         0.1400 
     53 CB          4.4821  -11.1214  -44.3910 C.3       4 UNK        -0.1800 
     54 N           2.4241  -10.3523  -43.3411 N.am      4 UNK        -0.5000 
     55 C           1.7258   -9.4450  -42.6445 C.2       3 UNK         0.5000 
     56 O           2.1957   -8.7809  -41.7206 O.2       3 UNK        -0.5000 
     57 CA          0.2412   -9.2731  -43.0286 C.3       3 UNK         0.1400 
     58 CB          0.0726   -8.1055  -44.0124 C.3       3 UNK        -0.1800 
     59 N          -0.3481  -10.4805  -43.6168 N.am      3 UNK        -0.5000 
     60 C          -0.5457  -11.6350  -42.9630 C.2       2 UNK         0.5000 
     61 O          -0.2829  -11.7979  -41.7724 O.2       2 UNK        -0.5000 
     62 CA         -1.0469  -12.8286  -43.7958 C.3       2 UNK         0.1400 
     63 CB         -2.5807  -12.8855  -43.8103 C.3       2 UNK        -0.1800 
     64 N          -0.5510  -12.7946  -45.1733 N.am      2 UNK        -0.5000 
     65 C           0.7270  -12.9567  -45.5381 C.2       1 UNK         0.5000 
     66 O           1.6079  -13.2548  -44.7271 O.2       1 UNK        -0.5000 
     67 C          -0.4289  -23.1101  -47.8600 C.2       11 UNK         0.5000 
     68 O          -0.1001  -24.2840  -48.0347 O.2       11 UNK        -0.5000 
     69 N          -1.3626  -22.4889  -48.5919 N.am      12 UNK        -0.5000 
     70 CA         -2.1087  -23.1030  -49.6837 C.3       12 UNK         0.1400 
     71 CB         -2.9440  -22.0400  -50.3961 C.3       12 UNK        -0.1800 
     72 C          -3.0167  -24.2517  -49.2273 C.2       12 UNK         0.5000 
     73 O          -3.1378  -25.2332  -49.9574 O.2       12 UNK        -0.5000 
     74 N          -3.6438  -24.1257  -48.0500 N.am      13 UNK        -0.5000 
     75 CA         -4.4597  -25.1777  -47.4422 C.3       13 UNK         0.1400 
     76 CB         -5.2269  -24.6226  -46.2338 C.3       13 UNK        -0.1800 
     77 C          -3.6214  -26.4058  -47.0482 C.2       13 UNK         0.5000 
     78 O          -4.0387  -27.5312  -47.3203 O.2       13 UNK        -0.5000 
     79 N          -2.4331  -26.1699  -46.4727 N.am      14 UNK        -0.5000 
     80 CA         -1.4498  -27.2053  -46.1435 C.3       14 UNK         0.1400 
     81 CB         -0.3223  -26.5921  -45.2993 C.3       14 UNK        -0.1800 
     82 C          -0.8836  -27.9101  -47.3926 C.2       14 UNK         0.5000 
     83 O          -0.6759  -29.1235  -47.3654 O.2       14 UNK        -0.5000 
     84 N          -0.6834  -27.1453  -48.4745 N.am      15 UNK        -0.5000 
     85 CA         -0.2646  -27.6368  -49.7899 C.3       15 UNK         0.1400 
     86 CB          0.2961  -26.4553  -50.5979 C.3       15 UNK        -0.1800 
     87 C          -1.3901  -28.3375  -50.5825 C.2       15 UNK         0.5000 
     88 O          -1.1005  -28.9550  -51.6079 O.2       15 UNK        -0.5000 
     89 N          -2.6423  -28.2098  -50.1169 N.am      16 UNK        -0.5000 
     90 CA         -3.8896  -28.6794  -50.7337 C.3       16 UNK         0.1400 
     91 CB         -3.9148  -30.2181  -50.8433 C.3       16 UNK        -0.1800 
     92 C          -4.2268  -27.9709  -52.0661 C.2       16 UNK         0.5000 
     93 O          -4.9502  -28.5263  -52.8948 O.2       16 UNK        -0.5000 
     94 N          -3.7143  -26.7466  -52.2374 N.am      17 UNK        -0.5000 
     95 CA         -3.9972  -25.8548  -53.3608 C.3       17 UNK         0.1400 
     96 CB         -2.7523  -24.9956  -53.6358 C.3       17 UNK        -0.1800 
     97 C          -5.2171  -24.9608  -53.0706 C.2       17 UNK         0.5000 
     98 O          -6.0095  -24.7103  -53.9792 O.2       17 UNK        -0.5000 
     99 N          -5.3411  -24.5332  -51.8035 N.am      18 UNK        -0.5000 
    100 CA        -6.3594  -23.6535  -51.2151 C.3       18 UNK         0.1400 
    101 CB        -7.7626  -24.2777  -51.3502 C.3       18 UNK        -0.1800 
    102 C         -6.3385  -22.1958  -51.7317 C.2       18 UNK         0.5000 
    103 O         -5.7730  -21.9034  -52.7882 O.2       18 UNK        -0.5000 
    104 N         -6.9779  -21.3137  -50.9468 N.am      19 UNK        -0.5000 
    105 CA        -7.1480  -19.8647  -51.1307 C.3       19 UNK         0.1400 
    106 CB        -7.8618  -19.5555  -52.4625 C.3       19 UNK        -0.1800 
    107 C         -5.8443  -19.0502  -51.0081 C.2       19 UNK         0.5000 
    108 O         -4.7486  -19.5689  -51.2141 O.2       19 UNK        -0.5000 
    109 N         -5.9846  -17.7503  -50.7117 N.am      20 UNK        -0.5000 
    110 CA        -4.8718  -16.7945  -50.6085 C.3       20 UNK         0.1400 
    111 CB        -5.3942  -15.4733  -50.0237 C.3       20 UNK        -0.1800 
    112 C         -4.1369  -16.5425  -51.9425 C.2       20 UNK         0.5000 
    113 O         -3.0043  -16.0622  -51.9316 O.2       20 UNK        -0.5000 
    114 N         -4.7886  -16.8847  -53.0618 N.am      21 UNK        -0.5000 
    115 CA        -4.2118  -16.8953  -54.4049 C.3       21 UNK         0.1400 
    116 CB        -5.3605  -16.9007  -55.4264 C.3       21 UNK        -0.1800 
    117 C         -3.2638  -18.0885  -54.6549 C.2       21 UNK         0.5000 
    118 O         -2.5292  -18.0591  -55.6430 O.2       21 UNK        -0.5000 
    119 N         -3.2988  -19.1041  -53.7788 N.am      22 UNK        -0.5000 
    120 CA        -2.5344  -20.3573  -53.8523 C.3       22 UNK         0.1400 
    121 C         -2.9327  -21.2132  -55.0865 C.2       22 UNK         0.5000 
    122 N         -4.1381  -21.7663  -55.0965 N.am      22 UNK        -0.7600 
    123 O         -2.1655  -21.3842  -56.0308 O.2       22 UNK        -0.5000 
    124 C124       -0.9989  -20.1594  -53.7111 C.3       23 UNK        -0.0398 
    125 S125       -0.5271  -19.3944  -52.1232 S.3       23 UNK        -0.2404 
    126 C126        1.2684  -19.2491  -52.3576 C.3       23 UNK        -0.0205 
    127 H127       -2.3205  -11.9233  -49.9214 H         1 UNK         0.0600 
    128 H128       -1.7002  -13.5711  -49.8137 H         1 UNK         0.0600 
    129 H129       -3.0312  -13.0588  -48.7696 H         1 UNK         0.0600 
    130 H130        0.1106  -13.8388  -48.5350 H         1 UNK         0.3000 
    131 H131        1.2930  -11.6679  -47.1109 H         1 UNK         0.0600 
    132 H132        3.2048  -13.2356  -46.7969 H         1 UNK         0.0800 
    133 H133        2.6866  -13.0915  -48.4421 H         1 UNK         0.0800 
    134 H134        2.4408  -15.0249  -49.9427 H         1 UNK         0.0800 
    135 H135        3.9674  -15.4019  -49.1711 H         1 UNK         0.0800 
    136 H136        1.6645  -16.7441  -51.3644 H         1 UNK         0.1150 
    137 H137        2.4241  -20.8695  -50.5053 H         1 UNK         0.1150 
    138 H138        3.8056  -17.8293  -47.8135 H         1 UNK         0.1150 
    139 H139        4.7321  -20.8414  -48.5437 H         1 UNK         0.0800 
    140 H140        3.9938  -20.0967  -47.1461 H         1 UNK         0.0800 
    141 H141        0.7753  -20.5923  -47.9317 H         1 UNK         0.0800 
    142 H142        1.5192  -20.6155  -46.3562 H         1 UNK         0.0800 
    143 H143        0.7071  -23.0080  -46.0467 H         1 UNK         0.0600 
    144 H144       -0.8282  -20.6511  -45.8384 H         1 UNK         0.3000 
    145 H145       -3.7861  -22.0364  -44.4020 H         1 UNK         0.0600 
    146 H146       -3.1819  -20.2579  -42.7540 H         1 UNK         0.0600 
    147 H147       -2.1962  -21.6967  -42.5391 H         1 UNK         0.0600 
    148 H148       -1.5141  -20.2824  -43.3272 H         1 UNK         0.0600 
    149 H149       -2.8797  -19.4069  -45.2429 H         1 UNK         0.3000 
    150 H150       -4.4424  -19.5242  -48.4427 H         1 UNK         0.0600 
    151 H151       -6.3389  -19.0369  -46.8914 H         1 UNK         0.0600 
    152 H152       -5.6779  -17.5635  -47.5779 H         1 UNK         0.0600 
    153 H153       -5.2922  -18.0117  -45.9164 H         1 UNK         0.0600 
    154 H154       -3.1547  -17.3997  -47.0451 H         1 UNK         0.3000 
    155 H155        0.1571  -18.1062  -48.2323 H         1 UNK         0.0600 
    156 H156       -0.1735  -15.8401  -49.1669 H         1 UNK         0.0600 
    157 H157       -1.9124  -15.9358  -48.8872 H         1 UNK         0.0600 
    158 H158       -1.1389  -16.9855  -50.0673 H         1 UNK         0.0600 
    159 H159       -0.5525  -15.9464  -46.7065 H         1 UNK         0.3000 
    160 H160       -0.9157  -15.7947  -44.4645 H         1 UNK         0.0600 
    161 H161       -0.7827  -16.6452  -42.1610 H         1 UNK         0.0600 
    162 H162       -0.2397  -18.2212  -42.7296 H         1 UNK         0.0600 
    163 H163       -1.8616  -17.6562  -43.1100 H         1 UNK         0.0600 
    164 H164        1.1912  -15.2082  -44.0624 H         1 UNK         0.3000 
    165 H165        4.0568  -16.8666  -42.9263 H         1 UNK         0.0600 
    166 H166        5.3115  -15.4858  -44.4367 H         1 UNK         0.0600 
    167 H167        4.4247  -16.6199  -45.4462 H         1 UNK         0.0600 
    168 H168        3.8725  -14.9539  -45.2890 H         1 UNK         0.0600 
    169 H169        2.9921  -14.1332  -43.2766 H         1 UNK         0.3000 
    170 H170        1.4305  -13.7114  -40.6542 H         1 UNK         0.0600 
    171 H171        2.8231  -14.2094  -38.7045 H         1 UNK         0.0600 
    172 H172        4.2205  -13.4297  -39.4276 H         1 UNK         0.0600 
    173 H173        2.8129  -12.4737  -38.9633 H         1 UNK         0.0600 
    174 H174        1.8641  -12.0270  -41.9693 H         1 UNK         0.3000 
    175 H175        4.3478   -9.9219  -42.6163 H         1 UNK         0.0600 
    176 H176        4.0192  -11.9923  -44.8549 H         1 UNK         0.0600 
    177 H177        4.4315  -10.2951  -45.1001 H         1 UNK         0.0600 
    178 H178        5.5370  -11.3543  -44.2414 H         1 UNK         0.0600 
    179 H179        1.9506  -10.8672  -44.0686 H         1 UNK         0.3000 
    180 H180       -0.3101   -9.0364  -42.1162 H         1 UNK         0.0600 
    181 H181        0.5863   -8.2959  -44.9556 H         1 UNK         0.0600 
    182 H182        0.4796   -7.1825  -43.5970 H         1 UNK         0.0600 
    183 H183       -0.9796   -7.9243  -44.2332 H         1 UNK         0.0600 
    184 H184       -0.5961  -10.4331  -44.5949 H         1 UNK         0.3000 
    185 H185       -0.6754  -13.7354  -43.3153 H         1 UNK         0.0600 
    186 H186       -2.9798  -12.9273  -42.7960 H         1 UNK         0.0600 
    187 H187       -3.0117  -12.0103  -44.2982 H         1 UNK         0.0600 
    188 H188       -2.9367  -13.7718  -44.3358 H         1 UNK         0.0600 
    189 H189       -1.1980  -12.4792  -45.8873 H         1 UNK         0.3000 
    190 H190       -1.5474  -21.5001  -48.4270 H         1 UNK         0.3000 
    191 H191       -1.3852  -23.5023  -50.3966 H         1 UNK         0.0600 
    192 H192       -3.7264  -21.6404  -49.7502 H         1 UNK         0.0600 
    193 H193       -3.4221  -22.4519  -51.2835 H         1 UNK         0.0600 
    194 H194       -2.3264  -21.2043  -50.7186 H         1 UNK         0.0600 
    195 H195       -3.5695  -23.2524  -47.5389 H         1 UNK         0.3000 
    196 H196       -5.1932  -25.5025  -48.1834 H         1 UNK         0.0600 
    197 H197       -5.8383  -25.3974  -45.7698 H         1 UNK         0.0600 
    198 H198       -5.8973  -23.8161  -46.5306 H         1 UNK         0.0600 
    199 H199       -4.5533  -24.2346  -45.4700 H         1 UNK         0.0600 
    200 H200       -2.1786  -25.2122  -46.2491 H         1 UNK         0.3000 
    201 H201       -1.9529  -27.9615  -45.5374 H         1 UNK         0.0600 
    202 H202       -0.7127  -26.1528  -44.3811 H         1 UNK         0.0600 
    203 H203        0.2101  -25.8106  -45.8417 H         1 UNK         0.0600 
    204 H204        0.4081  -27.3499  -45.0136 H         1 UNK         0.0600 
    205 H205       -0.7980  -26.1406  -48.3818 H         1 UNK         0.3000 
    206 H206        0.5373  -28.3639  -49.6479 H         1 UNK         0.0600 
    207 H207        1.1136  -25.9657  -50.0682 H         1 UNK         0.0600 
    208 H208        0.6860  -26.7877  -51.5607 H         1 UNK         0.0600 
    209 H209       -0.4706  -25.7066  -50.7968 H         1 UNK         0.0600 
    210 H210       -2.7653  -27.6674  -49.2718 H         1 UNK         0.3000 
    211 H211       -4.6823  -28.3921  -50.0416 H         1 UNK         0.0600 
    212 H212       -3.2056  -30.5851  -51.5855 H         1 UNK         0.0600 
    213 H213       -4.9037  -30.5727  -51.1358 H         1 UNK         0.0600 
    214 H214       -3.6741  -30.6847  -49.8880 H         1 UNK         0.0600 
    215 H215       -3.1942  -26.3462  -51.4618 H         1 UNK         0.3000 
    216 H216       -4.2090  -26.4454  -54.2547 H         1 UNK         0.0600 
    217 H217       -2.9113  -24.3454  -54.4964 H         1 UNK         0.0600 
    218 H218       -1.8852  -25.6186  -53.8557 H         1 UNK         0.0600 
    219 H219       -2.5004  -24.3608  -52.7854 H         1 UNK         0.0600 
    220 H220       -4.6135  -24.8256  -51.1608 H         1 UNK         0.3000 
    221 H221       -6.1163  -23.6112  -50.1520 H         1 UNK         0.0600 
    222 H222       -8.1022  -24.2936  -52.3861 H         1 UNK         0.0600 
    223 H223       -7.7761  -25.3019  -50.9771 H         1 UNK         0.0600 
    224 H224       -8.5015  -23.7166  -50.7773 H         1 UNK         0.0600 
    225 H225       -7.3830  -21.6690  -50.0925 H         1 UNK         0.3000 
    226 H226       -7.8016  -19.5429  -50.3184 H         1 UNK         0.0600 
    227 H227       -8.7785  -20.1368  -52.5626 H         1 UNK         0.0600 
    228 H228       -8.1399  -18.5030  -52.5249 H         1 UNK         0.0600 
    229 H229       -7.2312  -19.7743  -53.3250 H         1 UNK         0.0600 
    230 H230       -6.9109  -17.3756  -50.5629 H         1 UNK         0.3000 
    231 H231       -4.1378  -17.2084  -49.9149 H         1 UNK         0.0600 
    232 H232       -6.1440  -15.0168  -50.6709 H         1 UNK         0.0600 
    233 H233       -5.8432  -15.6216  -49.0419 H         1 UNK         0.0600 
    234 H234       -4.5840  -14.7533  -49.9025 H         1 UNK         0.0600 
    235 H235       -5.7225  -17.2546  -52.9710 H         1 UNK         0.3000 
    236 H236       -3.6326  -15.9798  -54.5433 H         1 UNK         0.0600 
    237 H237       -4.9769  -16.8707  -56.4471 H         1 UNK         0.0600 
    238 H238       -5.9762  -17.7965  -55.3339 H         1 UNK         0.0600 
    239 H239       -6.0073  -16.0324  -55.2988 H         1 UNK         0.0600 
    240 H240       -3.9217  -19.0451  -52.9808 H         1 UNK         0.3000 
    241 H241       -2.8555  -20.9387  -52.9904 H         1 UNK         0.0600 
    242 H242       -4.4218  -22.3201  -55.8879 H         1 UNK         0.3800 
    243 H243       -4.7611  -21.6933  -54.2916 H         1 UNK         0.3800 
    244 H244       -0.4918  -21.1234  -53.7770 H         1 UNK         0.0800 
    245 H245       -0.6091  -19.5521  -54.5291 H         1 UNK         0.0800 
    246 H246        1.6667  -20.1995  -52.7162 H         1 UNK         0.0800 
    247 H247        1.4728  -18.5143  -53.1378 H         1 UNK         0.0800 
@<TRIPOS>BOND
     1    1    2 1    
     2    1  127 1    
     3    1  128 1    
     4    1  129 1    
     5    2    3 2    
     6    2    4 am   BACKBONE|DICT|INTERRES
     7    4    5 1    
     8    4  130 1    
     9    5    6 1    
    10    5   65 1    
    11    5  131 1    
    12    6    7 1    
    13    6  132 1    
    14    6  133 1    
    15    7    8 1    
    16    8    9 1    
    17    8  134 1    
    18    8  135 1    
    19    9   10 ar   
    20    9   14 ar   
    21   10   11 ar   
    22   10  136 1    
    23   11   12 ar   
    24   11  126 1    
    25   12   13 ar   
    26   12  137 1    
    27   13   14 ar   
    28   13   15 1    
    29   14  138 1    
    30   15   16 1    
    31   15  139 1    
    32   15  140 1    
    33   16   17 1    
    34   17   18 1    
    35   17  141 1    
    36   17  142 1    
    37   18   19 1    
    38   18   67 1    
    39   18  143 1    
    40   19   20 am   BACKBONE|DICT|INTERRES
    41   19  144 1    
    42   20   21 2    
    43   20   22 1    
    44   22   23 1    
    45   22   24 1    
    46   22  145 1    
    47   23  146 1    
    48   23  147 1    
    49   23  148 1    
    50   24   25 am   BACKBONE|DICT|INTERRES
    51   24  149 1    
    52   25   26 2    
    53   25   27 1    
    54   27   28 1    
    55   27   29 1    
    56   27  150 1    
    57   28  151 1    
    58   28  152 1    
    59   28  153 1    
    60   29   30 am   BACKBONE|DICT|INTERRES
    61   29  154 1    
    62   30   31 2    
    63   30   32 1    
    64   32   33 1    
    65   32   34 1    
    66   32  155 1    
    67   33  156 1    
    68   33  157 1    
    69   33  158 1    
    70   34   35 am   BACKBONE|DICT|INTERRES
    71   34  159 1    
    72   35   36 2    
    73   35   37 1    
    74   37   38 1    
    75   37   39 1    
    76   37  160 1    
    77   38  161 1    
    78   38  162 1    
    79   38  163 1    
    80   39   40 am   BACKBONE|DICT|INTERRES
    81   39  164 1    
    82   40   41 2    
    83   40   42 1    
    84   42   43 1    
    85   42   44 1    
    86   42  165 1    
    87   43  166 1    
    88   43  167 1    
    89   43  168 1    
    90   44   45 am   BACKBONE|DICT|INTERRES
    91   44  169 1    
    92   45   46 2    
    93   45   47 1    
    94   47   48 1    
    95   47   49 1    
    96   47  170 1    
    97   48  171 1    
    98   48  172 1    
    99   48  173 1    
   100   49   50 am   BACKBONE|DICT|INTERRES
   101   49  174 1    
   102   50   51 2    
   103   50   52 1    
   104   52   53 1    
   105   52   54 1    
   106   52  175 1    
   107   53  176 1    
   108   53  177 1    
   109   53  178 1    
   110   54   55 am   BACKBONE|DICT|INTERRES
   111   54  179 1    
   112   55   56 2    
   113   55   57 1    
   114   57   58 1    
   115   57   59 1    
   116   57  180 1    
   117   58  181 1    
   118   58  182 1    
   119   58  183 1    
   120   59   60 am   BACKBONE|DICT|INTERRES
   121   59  184 1    
   122   60   61 2    
   123   60   62 1    
   124   62   63 1    
   125   62   64 1    
   126   62  185 1    
   127   63  186 1    
   128   63  187 1    
   129   63  188 1    
   130   64   65 am   BACKBONE|DICT|INTERRES
   131   64  189 1    
   132   65   66 2    
   133   67   68 2    
   134   67   69 am   BACKBONE|DICT|INTERRES
   135   69   70 1    
   136   69  190 1    
   137   70   71 1    
   138   70   72 1    
   139   70  191 1    
   140   71  192 1    
   141   71  193 1    
   142   71  194 1    
   143   72   73 2    
   144   72   74 am   BACKBONE|DICT|INTERRES
   145   74   75 1    
   146   74  195 1    
   147   75   76 1    
   148   75   77 1    
   149   75  196 1    
   150   76  197 1    
   151   76  198 1    
   152   76  199 1    
   153   77   78 2    
   154   77   79 am   BACKBONE|DICT|INTERRES
   155   79   80 1    
   156   79  200 1    
   157   80   81 1    
   158   80   82 1    
   159   80  201 1    
   160   81  202 1    
   161   81  203 1    
   162   81  204 1    
   163   82   83 2    
   164   82   84 am   BACKBONE|DICT|INTERRES
   165   84   85 1    
   166   84  205 1    
   167   85   86 1    
   168   85   87 1    
   169   85  206 1    
   170   86  207 1    
   171   86  208 1    
   172   86  209 1    
   173   87   88 2    
   174   87   89 am   BACKBONE|DICT|INTERRES
   175   89   90 1    
   176   89  210 1    
   177   90   91 1    
   178   90   92 1    
   179   90  211 1    
   180   91  212 1    
   181   91  213 1    
   182   91  214 1    
   183   92   93 2    
   184   92   94 am   BACKBONE|DICT|INTERRES
   185   94   95 1    
   186   94  215 1    
   187   95   96 1    
   188   95   97 1    
   189   95  216 1    
   190   96  217 1    
   191   96  218 1    
   192   96  219 1    
   193   97   98 2    
   194   97   99 am   BACKBONE|DICT|INTERRES
   195   99  100 1    
   196   99  220 1    
   197  100  101 1    
   198  100  102 1    
   199  100  221 1    
   200  101  222 1    
   201  101  223 1    
   202  101  224 1    
   203  102  103 2    
   204  102  104 am   BACKBONE|DICT|INTERRES
   205  104  105 1    
   206  104  225 1    
   207  105  106 1    
   208  105  107 1    
   209  105  226 1    
   210  106  227 1    
   211  106  228 1    
   212  106  229 1    
   213  107  108 2    
   214  107  109 am   BACKBONE|DICT|INTERRES
   215  109  110 1    
   216  109  230 1    
   217  110  111 1    
   218  110  112 1    
   219  110  231 1    
   220  111  232 1    
   221  111  233 1    
   222  111  234 1    
   223  112  113 2    
   224  112  114 am   BACKBONE|DICT|INTERRES
   225  114  115 1    
   226  114  235 1    
   227  115  116 1    
   228  115  117 1    
   229  115  236 1    
   230  116  237 1    
   231  116  238 1    
   232  116  239 1    
   233  117  118 2    
   234  117  119 am   BACKBONE|DICT|INTERRES
   235  119  120 1    
   236  119  240 1    
   237  120  121 1    
   238  120  124 1    
   239  120  241 1    
   240  121  122 am   BACKBONE|DICT|INTERRES
   241  121  123 2    
   242  122  242 1    
   243  122  243 1    
   244  124  125 1    
   245  124  244 1    
   246  124  245 1    
   247  125  126 1    
   248  126  246 1    
   249  126  247 1    
@<TRIPOS>SUBSTRUCTURE
     1 UNK         1 GROUP             0       ****    0 ROOT    
