@<TRIPOS>MOLECULE
3R540
247   249    1
SMALL
USER_CHARGES


@<TRIPOS>ATOM
      1 CA          6.9825  -15.2383  -45.4585 C.3       0 UNK        -0.1800 
      2 C           5.6182  -14.5995  -45.6694 C.2       0 UNK         0.5000 
      3 O           5.0118  -14.1242  -44.7126 O.2       0 UNK        -0.5000 
      4 N           5.1434  -14.5584  -46.9220 N.am      1 UNK        -0.5000 
      5 CA          3.8144  -14.0703  -47.3280 C.3       1 UNK         0.1400 
      6 C6          3.5268  -14.4223  -48.8128 C.3       23 UNK        -0.0398 
      7 S7          1.7633  -14.7471  -49.1730 S.3       23 UNK        -0.2404 
      8 C8          1.6771  -16.5645  -49.0662 C.3       23 UNK        -0.0205 
      9 C9          0.4529  -17.1122  -49.7860 C.ar      23 UNK        -0.0193 
     10 C10         0.5781  -17.6435  -51.0735 C.ar      23 UNK        -0.1150 
     11 C11        -0.5373  -18.1561  -51.7419 C.ar      23 UNK        -0.0193 
     12 C12        -1.7858  -18.1336  -51.1165 C.ar      23 UNK        -0.1150 
     13 C13        -1.9250  -17.6116  -49.8286 C.ar      23 UNK        -0.0193 
     14 C14        -0.8017  -17.1010  -49.1672 C.ar      23 UNK        -0.1150 
     15 C15        -3.2948  -17.5980  -49.1654 C.3       23 UNK        -0.0205 
     16 S16        -3.7787  -19.2485  -48.5633 S.3       23 UNK        -0.2404 
     17 C17        -2.5586  -19.5086  -47.2353 C.3       23 UNK        -0.0398 
     18 CA         -1.5190  -20.6031  -47.5892 C.3       11 UNK         0.1400 
     19 N          -0.2314  -20.3869  -46.9275 N.am      11 UNK        -0.5000 
     20 C           0.8665  -21.1381  -47.0961 C.2       10 UNK         0.5000 
     21 O           0.9386  -22.0841  -47.8791 O.2       10 UNK        -0.5000 
     22 CA          2.0702  -20.8189  -46.1924 C.3       10 UNK         0.1400 
     23 CB          2.8735  -19.6315  -46.7436 C.3       10 UNK        -0.1800 
     24 N           1.6772  -20.5521  -44.8080 N.am      10 UNK        -0.5000 
     25 C           1.0833  -21.4411  -43.9988 C.2       9 UNK         0.5000 
     26 O           0.8461  -22.6060  -44.3194 O.2       9 UNK        -0.5000 
     27 CA          0.6319  -20.9296  -42.6179 C.3       9 UNK         0.1400 
     28 CB          1.8187  -20.8310  -41.6480 C.3       9 UNK        -0.1800 
     29 N          -0.0527  -19.6382  -42.6938 N.am      9 UNK        -0.5000 
     30 C          -1.2134  -19.4343  -43.3338 C.2       8 UNK         0.5000 
     31 O          -1.8533  -20.3231  -43.8972 O.2       8 UNK        -0.5000 
     32 CA         -1.7190  -17.9823  -43.4028 C.3       8 UNK         0.1400 
     33 CB         -2.4083  -17.5789  -42.0913 C.3       8 UNK        -0.1800 
     34 N          -0.6552  -17.0274  -43.7147 N.am      8 UNK        -0.5000 
     35 C           0.0665  -17.0398  -44.8447 C.2       7 UNK         0.5000 
     36 O          -0.1030  -17.8412  -45.7588 O.2       7 UNK        -0.5000 
     37 CA          1.2052  -16.0206  -44.9578 C.3       7 UNK         0.1400 
     38 CB          0.6408  -14.6274  -45.2729 C.3       7 UNK        -0.1800 
     39 N           2.0283  -15.9787  -43.7530 N.am      7 UNK        -0.5000 
     40 C           2.7239  -17.0116  -43.2568 C.2       6 UNK         0.5000 
     41 O           2.7971  -18.1118  -43.8023 O.2       6 UNK        -0.5000 
     42 CA          3.3998  -16.8053  -41.8910 C.3       6 UNK         0.1400 
     43 CB          4.7946  -16.1844  -42.0376 C.3       6 UNK        -0.1800 
     44 N           2.5880  -15.9800  -40.9993 N.am      6 UNK        -0.5000 
     45 C           1.4520  -16.3912  -40.4216 C.2       5 UNK         0.5000 
     46 O           0.9870  -17.5248  -40.5523 O.2       5 UNK        -0.5000 
     47 CA          0.6962  -15.3413  -39.5872 C.3       5 UNK         0.1400 
     48 CB          1.3352  -15.1839  -38.1991 C.3       5 UNK        -0.1800 
     49 N           0.6363  -14.0349  -40.2483 N.am      5 UNK        -0.5000 
     50 C          -0.0692  -13.7946  -41.3616 C.2       4 UNK         0.5000 
     51 O          -0.7350  -14.6513  -41.9437 O.2       4 UNK        -0.5000 
     52 CA         -0.0071  -12.3658  -41.9374 C.3       4 UNK         0.1400 
     53 CB         -1.0132  -11.4547  -41.2179 C.3       4 UNK        -0.1800 
     54 N           1.3180  -11.7327  -41.9194 N.am      4 UNK        -0.5000 
     55 C           2.4267  -12.2449  -42.4698 C.2       3 UNK         0.5000 
     56 O           2.5059  -13.3931  -42.8998 O.2       3 UNK        -0.5000 
     57 CA          3.6560  -11.3335  -42.5590 C.3       3 UNK         0.1400 
     58 CB          4.7842  -11.8529  -41.6542 C.3       3 UNK        -0.1800 
     59 N           4.1243  -11.3180  -43.9450 N.am      3 UNK        -0.5000 
     60 C           4.0091  -10.2741  -44.7788 C.2       2 UNK         0.5000 
     61 O           3.5129   -9.1957  -44.4493 O.2       2 UNK        -0.5000 
     62 CA          4.5428  -10.4320  -46.2195 C.3       2 UNK         0.1400 
     63 CB          5.9413   -9.8068  -46.3412 C.3       2 UNK        -0.1800 
     64 N           4.6097  -11.8195  -46.6765 N.am      2 UNK        -0.5000 
     65 C           3.5534  -12.5722  -47.0132 C.2       1 UNK         0.5000 
     66 O           2.4064  -12.1279  -47.0635 O.2       1 UNK        -0.5000 
     67 C          -2.0766  -22.0038  -47.2817 C.2       11 UNK         0.5000 
     68 O          -2.3877  -22.7494  -48.2116 O.2       11 UNK        -0.5000 
     69 N          -2.1581  -22.3418  -45.9857 N.am      12 UNK        -0.5000 
     70 CA         -2.6355  -23.6258  -45.4702 C.3       12 UNK         0.1400 
     71 CB         -2.6874  -23.5740  -43.9363 C.3       12 UNK        -0.1800 
     72 C          -1.8015  -24.8256  -45.9493 C.2       12 UNK         0.5000 
     73 O          -2.3737  -25.8651  -46.2780 O.2       12 UNK        -0.5000 
     74 N          -0.4746  -24.6516  -46.0063 N.am      13 UNK        -0.5000 
     75 CA          0.4623  -25.6382  -46.5404 C.3       13 UNK         0.1400 
     76 CB          1.8987  -25.2205  -46.1899 C.3       13 UNK        -0.1800 
     77 C           0.3087  -25.8443  -48.0593 C.2       13 UNK         0.5000 
     78 O           0.4084  -26.9797  -48.5264 O.2       13 UNK        -0.5000 
     79 N           0.0754  -24.7514  -48.7988 N.am      14 UNK        -0.5000 
     80 CA         -0.0787  -24.7547  -50.2509 C.3       14 UNK         0.1400 
     81 CB          0.0928  -23.3290  -50.7958 C.3       14 UNK        -0.1800 
     82 C          -1.4136  -25.3602  -50.7169 C.2       14 UNK         0.5000 
     83 O          -1.4008  -26.2516  -51.5677 O.2       14 UNK        -0.5000 
     84 N          -2.5350  -24.8610  -50.1782 N.am      15 UNK        -0.5000 
     85 CA         -3.8818  -25.2337  -50.6292 C.3       15 UNK         0.1400 
     86 CB         -4.1835  -24.5535  -51.9834 C.3       15 UNK        -0.1800 
     87 C          -5.0080  -24.9042  -49.6337 C.2       15 UNK         0.5000 
     88 O          -6.1018  -25.4449  -49.7925 O.2       15 UNK        -0.5000 
     89 N          -4.7608  -23.9990  -48.6740 N.am      16 UNK        -0.5000 
     90 CA         -5.7540  -23.3086  -47.8379 C.3       16 UNK         0.1400 
     91 CB         -6.5081  -24.2876  -46.9136 C.3       16 UNK        -0.1800 
     92 C          -6.6822  -22.4204  -48.6932 C.2       16 UNK         0.5000 
     93 O          -7.8931  -22.3758  -48.4669 O.2       16 UNK        -0.5000 
     94 N          -6.0729  -21.7537  -49.6865 N.am      17 UNK        -0.5000 
     95 CA         -6.6644  -20.9752  -50.7766 C.3       17 UNK         0.1400 
     96 CB         -7.4713  -19.7666  -50.2625 C.3       17 UNK        -0.1800 
     97 C          -7.4705  -21.8615  -51.7415 C.2       17 UNK         0.5000 
     98 O          -7.0297  -22.0709  -52.8727 O.2       17 UNK        -0.5000 
     99 N          -8.6225  -22.3650  -51.2729 N.am      18 UNK        -0.5000 
    100 CA        -9.5160  -23.3504  -51.9023 C.3       18 UNK         0.1400 
    101 CB        -8.8411  -24.7367  -51.8858 C.3       18 UNK        -0.1800 
    102 C        -10.0267  -22.9772  -53.3128 C.2       18 UNK         0.5000 
    103 O        -10.4175  -23.8638  -54.0733 O.2       18 UNK        -0.5000 
    104 N         -9.9729  -21.6795  -53.6511 N.am      19 UNK        -0.5000 
    105 CA       -10.1707  -21.0864  -54.9821 C.3       19 UNK         0.1400 
    106 CB       -11.6104  -21.3129  -55.4881 C.3       19 UNK        -0.1800 
    107 C         -9.1069  -21.5084  -56.0259 C.2       19 UNK         0.5000 
    108 O         -9.2558  -21.1857  -57.2056 O.2       19 UNK        -0.5000 
    109 N         -8.0455  -22.1945  -55.5811 N.am      20 UNK        -0.5000 
    110 CA        -6.8960  -22.5995  -56.3845 C.3       20 UNK         0.1400 
    111 CB        -6.3503  -23.9325  -55.8477 C.3       20 UNK        -0.1800 
    112 C         -5.8037  -21.5205  -56.3513 C.2       20 UNK         0.5000 
    113 O         -5.1586  -21.2861  -57.3736 O.2       20 UNK        -0.5000 
    114 N         -5.6226  -20.8870  -55.1795 N.am      21 UNK        -0.5000 
    115 CA        -4.7186  -19.7616  -54.9058 C.3       21 UNK         0.1400 
    116 CB        -5.2945  -18.4675  -55.5150 C.3       21 UNK        -0.1800 
    117 C         -3.2595  -20.0317  -55.3350 C.2       21 UNK         0.5000 
    118 O         -2.6314  -19.1883  -55.9771 O.2       21 UNK        -0.5000 
    119 N         -2.7714  -21.2305  -54.9918 N.am      22 UNK        -0.5000 
    120 CA        -1.4547  -21.7861  -55.3581 C.3       22 UNK         0.1400 
    121 C         -1.3104  -22.1981  -56.8567 C.2       22 UNK         0.5000 
    122 N         -2.3498  -22.1422  -57.6813 N.am      22 UNK        -0.7600 
    123 O         -0.2350  -22.6141  -57.2797 O.2       22 UNK        -0.5000 
    124 C124       -0.2445  -20.9297  -54.8808 C.3       23 UNK        -0.0398 
    125 S125       -0.2787  -20.5431  -53.0971 S.3       23 UNK        -0.2404 
    126 C126       -0.4022  -18.7298  -53.1413 C.3       23 UNK        -0.0205 
    127 H127        7.4240  -15.5728  -46.3974 H         1 UNK         0.0600 
    128 H128        6.8925  -16.1004  -44.7978 H         1 UNK         0.0600 
    129 H129        7.6635  -14.5235  -44.9966 H         1 UNK         0.0600 
    130 H130        5.7134  -14.9358  -47.6657 H         1 UNK         0.3000 
    131 H131        3.1120  -14.6316  -46.7142 H         1 UNK         0.0600 
    132 H132        3.8772  -13.6290  -49.4757 H         1 UNK         0.0800 
    133 H133        4.0917  -15.3063  -49.1105 H         1 UNK         0.0800 
    134 H134        2.5796  -17.0089  -49.4879 H         1 UNK         0.0800 
    135 H135        1.6479  -16.8624  -48.0193 H         1 UNK         0.0800 
    136 H136        1.5450  -17.6590  -51.5565 H         1 UNK         0.1150 
    137 H137       -2.6496  -18.5330  -51.6293 H         1 UNK         0.1150 
    138 H138       -0.8996  -16.6933  -48.1708 H         1 UNK         0.1150 
    139 H139       -3.3189  -16.8851  -48.3397 H         1 UNK         0.0800 
    140 H140       -4.0400  -17.2544  -49.8842 H         1 UNK         0.0800 
    141 H141       -3.0864  -19.7261  -46.3052 H         1 UNK         0.0800 
    142 H142       -2.0628  -18.5582  -47.0578 H         1 UNK         0.0800 
    143 H143       -1.3142  -20.5549  -48.6612 H         1 UNK         0.0600 
    144 H144       -0.1759  -19.5834  -46.3053 H         1 UNK         0.3000 
    145 H145        2.7214  -21.6954  -46.1895 H         1 UNK         0.0600 
    146 H146        3.1575  -19.7971  -47.7836 H         1 UNK         0.0600 
    147 H147        2.2997  -18.7069  -46.7008 H         1 UNK         0.0600 
    148 H148        3.7903  -19.4792  -46.1740 H         1 UNK         0.0600 
    149 H149        1.8771  -19.6202  -44.4526 H         1 UNK         0.3000 
    150 H150       -0.0757  -21.6556  -42.2121 H         1 UNK         0.0600 
    151 H151        1.4909  -20.5249  -40.6543 H         1 UNK         0.0600 
    152 H152        2.5628  -20.1117  -41.9895 H         1 UNK         0.0600 
    153 H153        2.3178  -21.7952  -41.5444 H         1 UNK         0.0600 
    154 H154        0.3994  -18.8524  -42.2417 H         1 UNK         0.3000 
    155 H155       -2.4575  -17.9281  -44.2053 H         1 UNK         0.0600 
    156 H156       -1.7086  -17.5664  -41.2549 H         1 UNK         0.0600 
    157 H157       -3.2102  -18.2743  -41.8405 H         1 UNK         0.0600 
    158 H158       -2.8512  -16.5859  -42.1695 H         1 UNK         0.0600 
    159 H159       -0.4762  -16.3032  -43.0254 H         1 UNK         0.3000 
    160 H160        1.8546  -16.3292  -45.7769 H         1 UNK         0.0600 
    161 H161        0.1715  -14.6135  -46.2574 H         1 UNK         0.0600 
    162 H162        1.4213  -13.8694  -45.2732 H         1 UNK         0.0600 
    163 H163       -0.1117  -14.3195  -44.5480 H         1 UNK         0.0600 
    164 H164        2.0985  -15.0761  -43.2851 H         1 UNK         0.3000 
    165 H165        3.5201  -17.7899  -41.4342 H         1 UNK         0.0600 
    166 H166        5.3281  -16.1874  -41.0872 H         1 UNK         0.0600 
    167 H167        5.3999  -16.7398  -42.7549 H         1 UNK         0.0600 
    168 H168        4.7355  -15.1534  -42.3819 H         1 UNK         0.0600 
    169 H169        2.8625  -15.0139  -40.8991 H         1 UNK         0.3000 
    170 H170       -0.3261  -15.7011  -39.4505 H         1 UNK         0.0600 
    171 H171        0.7558  -14.5045  -37.5737 H         1 UNK         0.0600 
    172 H172        1.3809  -16.1423  -37.6802 H         1 UNK         0.0600 
    173 H173        2.3526  -14.7961  -38.2630 H         1 UNK         0.0600 
    174 H174        1.1647  -13.2805  -39.8354 H         1 UNK         0.3000 
    175 H175       -0.3095  -12.4323  -42.9841 H         1 UNK         0.0600 
    176 H176       -0.7381  -11.2960  -40.1745 H         1 UNK         0.0600 
    177 H177       -2.0139  -11.8889  -41.2314 H         1 UNK         0.0600 
    178 H178       -1.0786  -10.4794  -41.7006 H         1 UNK         0.0600 
    179 H179        1.3485  -10.7864  -41.5684 H         1 UNK         0.3000 
    180 H180        3.3844  -10.3309  -42.2230 H         1 UNK         0.0600 
    181 H181        4.4557  -11.9206  -40.6164 H         1 UNK         0.0600 
    182 H182        5.6453  -11.1852  -41.6811 H         1 UNK         0.0600 
    183 H183        5.1232  -12.8432  -41.9594 H         1 UNK         0.0600 
    184 H184        4.4596  -12.2095  -44.2997 H         1 UNK         0.3000 
    185 H185        3.8680   -9.8845  -46.8810 H         1 UNK         0.0600 
    186 H186        6.6678  -10.3211  -45.7108 H         1 UNK         0.0600 
    187 H187        6.3021   -9.8427  -47.3693 H         1 UNK         0.0600 
    188 H188        5.9288   -8.7586  -46.0393 H         1 UNK         0.0600 
    189 H189        5.5151  -12.2644  -46.6435 H         1 UNK         0.3000 
    190 H190       -1.8851  -21.6561  -45.2856 H         1 UNK         0.3000 
    191 H191       -3.6525  -23.7718  -45.8332 H         1 UNK         0.0600 
    192 H192       -1.7024  -23.3899  -43.5062 H         1 UNK         0.0600 
    193 H193       -3.0565  -24.5142  -43.5247 H         1 UNK         0.0600 
    194 H194       -3.3546  -22.7838  -43.5916 H         1 UNK         0.0600 
    195 H195       -0.0776  -23.7844  -45.6575 H         1 UNK         0.3000 
    196 H196        0.2599  -26.5940  -46.0528 H         1 UNK         0.0600 
    197 H197        2.6195  -25.9513  -46.5586 H         1 UNK         0.0600 
    198 H198        2.0344  -25.1446  -45.1109 H         1 UNK         0.0600 
    199 H199        2.1555  -24.2552  -46.6269 H         1 UNK         0.0600 
    200 H200        0.0602  -23.8439  -48.3440 H         1 UNK         0.3000 
    201 H201        0.7239  -25.3638  -50.6723 H         1 UNK         0.0600 
    202 H202        1.0825  -22.9347  -50.5656 H         1 UNK         0.0600 
    203 H203       -0.6439  -22.6406  -50.3801 H         1 UNK         0.0600 
    204 H204       -0.0177  -23.3137  -51.8806 H         1 UNK         0.0600 
    205 H205       -2.4506  -24.1402  -49.4674 H         1 UNK         0.3000 
    206 H206       -3.9109  -26.3165  -50.7691 H         1 UNK         0.0600 
    207 H207       -5.1929  -24.7842  -52.3276 H         1 UNK         0.0600 
    208 H208       -4.1054  -23.4680  -51.9108 H         1 UNK         0.0600 
    209 H209       -3.4991  -24.8862  -52.7635 H         1 UNK         0.0600 
    210 H210       -3.8213  -23.6159  -48.5938 H         1 UNK         0.3000 
    211 H211       -5.1962  -22.6216  -47.2009 H         1 UNK         0.0600 
    212 H212       -7.1844  -24.9372  -47.4693 H         1 UNK         0.0600 
    213 H213       -7.1093  -23.7444  -46.1839 H         1 UNK         0.0600 
    214 H214       -5.8161  -24.9209  -46.3587 H         1 UNK         0.0600 
    215 H215       -5.0733  -21.8754  -49.7599 H         1 UNK         0.3000 
    216 H216       -5.8228  -20.5779  -51.3465 H         1 UNK         0.0600 
    217 H217       -7.8426  -19.1671  -51.0944 H         1 UNK         0.0600 
    218 H218       -6.8482  -19.1162  -49.6485 H         1 UNK         0.0600 
    219 H219       -8.3330  -20.0605  -49.6636 H         1 UNK         0.0600 
    220 H220       -8.8298  -22.1597  -50.3009 H         1 UNK         0.3000 
    221 H221      -10.4023  -23.4059  -51.2691 H         1 UNK         0.0600 
    222 H222       -7.9505  -24.7594  -52.5151 H         1 UNK         0.0600 
    223 H223       -8.5430  -25.0126  -50.8746 H         1 UNK         0.0600 
    224 H224       -9.5169  -25.5148  -52.2421 H         1 UNK         0.0600 
    225 H225       -9.6394  -21.0419  -52.9423 H         1 UNK         0.3000 
    226 H226      -10.0394  -20.0119  -54.8476 H         1 UNK         0.0600 
    227 H227      -12.3439  -21.0118  -54.7402 H         1 UNK         0.0600 
    228 H228      -11.8053  -20.7253  -56.3860 H         1 UNK         0.0600 
    229 H229      -11.7952  -22.3574  -55.7396 H         1 UNK         0.0600 
    230 H230       -7.9721  -22.3687  -54.5847 H         1 UNK         0.3000 
    231 H231       -7.2022  -22.7469  -57.4223 H         1 UNK         0.0600 
    232 H232       -6.0259  -23.8508  -54.8094 H         1 UNK         0.0600 
    233 H233       -7.1076  -24.7150  -55.8987 H         1 UNK         0.0600 
    234 H234       -5.4942  -24.2684  -56.4343 H         1 UNK         0.0600 
    235 H235       -6.1714  -21.2098  -54.3880 H         1 UNK         0.3000 
    236 H236       -4.6986  -19.6359  -53.8222 H         1 UNK         0.0600 
    237 H237       -6.3087  -18.2834  -55.1608 H         1 UNK         0.0600 
    238 H238       -4.6925  -17.6013  -55.2379 H         1 UNK         0.0600 
    239 H239       -5.3235  -18.5136  -56.6043 H         1 UNK         0.0600 
    240 H240       -3.3785  -21.8585  -54.4862 H         1 UNK         0.3000 
    241 H241       -1.3989  -22.7313  -54.8169 H         1 UNK         0.0600 
    242 H242       -2.2274  -22.4270  -58.6400 H         1 UNK         0.3800 
    243 H243       -3.2510  -21.7832  -57.3840 H         1 UNK         0.3800 
    244 H244        0.6888  -21.4633  -55.0680 H         1 UNK         0.0800 
    245 H245       -0.1758  -20.0081  -55.4600 H         1 UNK         0.0800 
    246 H246       -1.2627  -18.4316  -53.7405 H         1 UNK         0.0800 
    247 H247        0.4779  -18.3186  -53.6380 H         1 UNK         0.0800 
@<TRIPOS>BOND
     1    1    2 1    
     2    1  127 1    
     3    1  128 1    
     4    1  129 1    
     5    2    3 2    
     6    2    4 am   BACKBONE|DICT|INTERRES
     7    4    5 1    
     8    4  130 1    
     9    5    6 1    
    10    5   65 1    
    11    5  131 1    
    12    6    7 1    
    13    6  132 1    
    14    6  133 1    
    15    7    8 1    
    16    8    9 1    
    17    8  134 1    
    18    8  135 1    
    19    9   10 ar   
    20    9   14 ar   
    21   10   11 ar   
    22   10  136 1    
    23   11   12 ar   
    24   11  126 1    
    25   12   13 ar   
    26   12  137 1    
    27   13   14 ar   
    28   13   15 1    
    29   14  138 1    
    30   15   16 1    
    31   15  139 1    
    32   15  140 1    
    33   16   17 1    
    34   17   18 1    
    35   17  141 1    
    36   17  142 1    
    37   18   19 1    
    38   18   67 1    
    39   18  143 1    
    40   19   20 am   BACKBONE|DICT|INTERRES
    41   19  144 1    
    42   20   21 2    
    43   20   22 1    
    44   22   23 1    
    45   22   24 1    
    46   22  145 1    
    47   23  146 1    
    48   23  147 1    
    49   23  148 1    
    50   24   25 am   BACKBONE|DICT|INTERRES
    51   24  149 1    
    52   25   26 2    
    53   25   27 1    
    54   27   28 1    
    55   27   29 1    
    56   27  150 1    
    57   28  151 1    
    58   28  152 1    
    59   28  153 1    
    60   29   30 am   BACKBONE|DICT|INTERRES
    61   29  154 1    
    62   30   31 2    
    63   30   32 1    
    64   32   33 1    
    65   32   34 1    
    66   32  155 1    
    67   33  156 1    
    68   33  157 1    
    69   33  158 1    
    70   34   35 am   BACKBONE|DICT|INTERRES
    71   34  159 1    
    72   35   36 2    
    73   35   37 1    
    74   37   38 1    
    75   37   39 1    
    76   37  160 1    
    77   38  161 1    
    78   38  162 1    
    79   38  163 1    
    80   39   40 am   BACKBONE|DICT|INTERRES
    81   39  164 1    
    82   40   41 2    
    83   40   42 1    
    84   42   43 1    
    85   42   44 1    
    86   42  165 1    
    87   43  166 1    
    88   43  167 1    
    89   43  168 1    
    90   44   45 am   BACKBONE|DICT|INTERRES
    91   44  169 1    
    92   45   46 2    
    93   45   47 1    
    94   47   48 1    
    95   47   49 1    
    96   47  170 1    
    97   48  171 1    
    98   48  172 1    
    99   48  173 1    
   100   49   50 am   BACKBONE|DICT|INTERRES
   101   49  174 1    
   102   50   51 2    
   103   50   52 1    
   104   52   53 1    
   105   52   54 1    
   106   52  175 1    
   107   53  176 1    
   108   53  177 1    
   109   53  178 1    
   110   54   55 am   BACKBONE|DICT|INTERRES
   111   54  179 1    
   112   55   56 2    
   113   55   57 1    
   114   57   58 1    
   115   57   59 1    
   116   57  180 1    
   117   58  181 1    
   118   58  182 1    
   119   58  183 1    
   120   59   60 am   BACKBONE|DICT|INTERRES
   121   59  184 1    
   122   60   61 2    
   123   60   62 1    
   124   62   63 1    
   125   62   64 1    
   126   62  185 1    
   127   63  186 1    
   128   63  187 1    
   129   63  188 1    
   130   64   65 am   BACKBONE|DICT|INTERRES
   131   64  189 1    
   132   65   66 2    
   133   67   68 2    
   134   67   69 am   BACKBONE|DICT|INTERRES
   135   69   70 1    
   136   69  190 1    
   137   70   71 1    
   138   70   72 1    
   139   70  191 1    
   140   71  192 1    
   141   71  193 1    
   142   71  194 1    
   143   72   73 2    
   144   72   74 am   BACKBONE|DICT|INTERRES
   145   74   75 1    
   146   74  195 1    
   147   75   76 1    
   148   75   77 1    
   149   75  196 1    
   150   76  197 1    
   151   76  198 1    
   152   76  199 1    
   153   77   78 2    
   154   77   79 am   BACKBONE|DICT|INTERRES
   155   79   80 1    
   156   79  200 1    
   157   80   81 1    
   158   80   82 1    
   159   80  201 1    
   160   81  202 1    
   161   81  203 1    
   162   81  204 1    
   163   82   83 2    
   164   82   84 am   BACKBONE|DICT|INTERRES
   165   84   85 1    
   166   84  205 1    
   167   85   86 1    
   168   85   87 1    
   169   85  206 1    
   170   86  207 1    
   171   86  208 1    
   172   86  209 1    
   173   87   88 2    
   174   87   89 am   BACKBONE|DICT|INTERRES
   175   89   90 1    
   176   89  210 1    
   177   90   91 1    
   178   90   92 1    
   179   90  211 1    
   180   91  212 1    
   181   91  213 1    
   182   91  214 1    
   183   92   93 2    
   184   92   94 am   BACKBONE|DICT|INTERRES
   185   94   95 1    
   186   94  215 1    
   187   95   96 1    
   188   95   97 1    
   189   95  216 1    
   190   96  217 1    
   191   96  218 1    
   192   96  219 1    
   193   97   98 2    
   194   97   99 am   BACKBONE|DICT|INTERRES
   195   99  100 1    
   196   99  220 1    
   197  100  101 1    
   198  100  102 1    
   199  100  221 1    
   200  101  222 1    
   201  101  223 1    
   202  101  224 1    
   203  102  103 2    
   204  102  104 am   BACKBONE|DICT|INTERRES
   205  104  105 1    
   206  104  225 1    
   207  105  106 1    
   208  105  107 1    
   209  105  226 1    
   210  106  227 1    
   211  106  228 1    
   212  106  229 1    
   213  107  108 2    
   214  107  109 am   BACKBONE|DICT|INTERRES
   215  109  110 1    
   216  109  230 1    
   217  110  111 1    
   218  110  112 1    
   219  110  231 1    
   220  111  232 1    
   221  111  233 1    
   222  111  234 1    
   223  112  113 2    
   224  112  114 am   BACKBONE|DICT|INTERRES
   225  114  115 1    
   226  114  235 1    
   227  115  116 1    
   228  115  117 1    
   229  115  236 1    
   230  116  237 1    
   231  116  238 1    
   232  116  239 1    
   233  117  118 2    
   234  117  119 am   BACKBONE|DICT|INTERRES
   235  119  120 1    
   236  119  240 1    
   237  120  121 1    
   238  120  124 1    
   239  120  241 1    
   240  121  122 am   BACKBONE|DICT|INTERRES
   241  121  123 2    
   242  122  242 1    
   243  122  243 1    
   244  124  125 1    
   245  124  244 1    
   246  124  245 1    
   247  125  126 1    
   248  126  246 1    
   249  126  247 1    
@<TRIPOS>SUBSTRUCTURE
     1 UNK         1 GROUP             0       ****    0 ROOT    
