@<TRIPOS>MOLECULE
3R540
247   249    1
SMALL
USER_CHARGES


@<TRIPOS>ATOM
      1 CA          2.9021  -12.1506  -51.7372 C.3       0 UNK        -0.1800 
      2 C           1.4734  -12.5469  -51.3716 C.2       0 UNK         0.5000 
      3 O           0.5982  -12.5216  -52.2347 O.2       0 UNK        -0.5000 
      4 N           1.1809  -12.9326  -50.1218 N.am      1 UNK        -0.5000 
      5 CA          2.0989  -13.0194  -48.9783 C.3       1 UNK         0.1400 
      6 C6          1.5526  -13.9738  -47.8890 C.3       23 UNK        -0.0398 
      7 S7         -0.0900  -13.5038  -47.2368 S.3       23 UNK        -0.2404 
      8 C8         -0.5483  -14.9951  -46.3032 C.3       23 UNK        -0.0205 
      9 C9         -1.1276  -16.0786  -47.1995 C.ar      23 UNK        -0.0193 
     10 C10        -2.4976  -16.0953  -47.4759 C.ar      23 UNK        -0.1150 
     11 C11        -3.0551  -17.1057  -48.2650 C.ar      23 UNK        -0.0193 
     12 C12        -2.2253  -18.1063  -48.7792 C.ar      23 UNK        -0.1150 
     13 C13        -0.8507  -18.0875  -48.5307 C.ar      23 UNK        -0.0193 
     14 C14        -0.3081  -17.0773  -47.7324 C.ar      23 UNK        -0.1150 
     15 C15         0.0470  -19.1594  -49.1272 C.3       23 UNK        -0.0205 
     16 S16         0.5600  -20.3806  -47.8835 S.3       23 UNK        -0.2404 
     17 C17        -1.0526  -21.0460  -47.3483 C.3       23 UNK        -0.0398 
     18 CA         -0.9087  -22.4433  -46.7026 C.3       11 UNK         0.1400 
     19 N          -0.1512  -22.3710  -45.4486 N.am      11 UNK        -0.5000 
     20 C           0.4261  -23.3873  -44.7970 C.2       10 UNK         0.5000 
     21 O           0.3837  -24.5567  -45.1792 O.2       10 UNK        -0.5000 
     22 CA          1.0838  -23.0391  -43.4508 C.3       10 UNK         0.1400 
     23 CB          2.5207  -22.5352  -43.6546 C.3       10 UNK        -0.1800 
     24 N           0.3064  -22.0324  -42.7228 N.am      10 UNK        -0.5000 
     25 C          -0.8542  -22.2810  -42.0986 C.2       9 UNK         0.5000 
     26 O          -1.3557  -23.4023  -42.0180 O.2       9 UNK        -0.5000 
     27 CA         -1.5892  -21.0767  -41.4794 C.3       9 UNK         0.1400 
     28 CB         -1.0560  -20.7851  -40.0688 C.3       9 UNK        -0.1800 
     29 N          -1.4807  -19.8661  -42.2935 N.am      9 UNK        -0.5000 
     30 C          -2.1005  -19.6801  -43.4691 C.2       8 UNK         0.5000 
     31 O          -2.8753  -20.4949  -43.9698 O.2       8 UNK        -0.5000 
     32 CA         -1.7792  -18.3758  -44.2298 C.3       8 UNK         0.1400 
     33 CB         -2.7958  -17.2861  -43.8605 C.3       8 UNK        -0.1800 
     34 N          -0.4222  -17.8700  -44.0001 N.am      8 UNK        -0.5000 
     35 C           0.7086  -18.5634  -44.2119 C.2       7 UNK         0.5000 
     36 O           0.7243  -19.7169  -44.6373 O.2       7 UNK        -0.5000 
     37 CA          2.0445  -17.9003  -43.8253 C.3       7 UNK         0.1400 
     38 CB          2.7944  -17.4213  -45.0771 C.3       7 UNK        -0.1800 
     39 N           1.9000  -16.7935  -42.8760 N.am      7 UNK        -0.5000 
     40 C           1.4520  -16.9273  -41.6163 C.2       6 UNK         0.5000 
     41 O           1.1467  -18.0131  -41.1202 O.2       6 UNK        -0.5000 
     42 CA          1.2760  -15.6461  -40.7748 C.3       6 UNK         0.1400 
     43 CB          2.4470  -15.4861  -39.7937 C.3       6 UNK        -0.1800 
     44 N           1.1508  -14.4192  -41.5638 N.am      6 UNK        -0.5000 
     45 C           0.1751  -14.1487  -42.4426 C.2       5 UNK         0.5000 
     46 O          -0.7680  -14.9061  -42.6713 O.2       5 UNK        -0.5000 
     47 CA          0.3094  -12.8356  -43.2389 C.3       5 UNK         0.1400 
     48 CB         -0.4721  -11.7057  -42.5539 C.3       5 UNK        -0.1800 
     49 N           1.6924  -12.3968  -43.4534 N.am      5 UNK        -0.5000 
     50 C           2.6579  -13.0994  -44.0617 C.2       4 UNK         0.5000 
     51 O           2.5047  -14.2584  -44.4483 O.2       4 UNK        -0.5000 
     52 CA          4.0148  -12.3910  -44.2551 C.3       4 UNK         0.1400 
     53 CB          4.9739  -13.1881  -45.1579 C.3       4 UNK        -0.1800 
     54 N           3.8583  -11.0374  -44.7953 N.am      4 UNK        -0.5000 
     55 C           3.5830   -9.9453  -44.0673 C.2       3 UNK         0.5000 
     56 O           3.4025   -9.9787  -42.8494 O.2       3 UNK        -0.5000 
     57 CA          3.4651   -8.5968  -44.8045 C.3       3 UNK         0.1400 
     58 CB          4.7793   -7.8091  -44.6919 C.3       3 UNK        -0.1800 
     59 N           3.1113   -8.7272  -46.2176 N.am      3 UNK        -0.5000 
     60 C           1.9156   -9.1172  -46.6780 C.2       2 UNK         0.5000 
     61 O           0.9609   -9.3942  -45.9503 O.2       2 UNK        -0.5000 
     62 CA          1.7545   -9.2336  -48.2088 C.3       2 UNK         0.1400 
     63 CB          2.8713   -8.5371  -49.0194 C.3       2 UNK        -0.1800 
     64 N           1.6179  -10.6286  -48.6340 N.am      2 UNK        -0.5000 
     65 C           2.4697  -11.6380  -48.3940 C.2       1 UNK         0.5000 
     66 O           3.5226  -11.5134  -47.7671 O.2       1 UNK        -0.5000 
     67 C          -2.2741  -23.1635  -46.5807 C.2       11 UNK         0.5000 
     68 O          -3.0335  -23.1720  -47.5470 O.2       11 UNK        -0.5000 
     69 N          -2.5640  -23.7950  -45.4346 N.am      12 UNK        -0.5000 
     70 CA         -3.6093  -24.8097  -45.3010 C.3       12 UNK         0.1400 
     71 CB         -3.8841  -25.0510  -43.8098 C.3       12 UNK        -0.1800 
     72 C          -3.2227  -26.1299  -46.0043 C.2       12 UNK         0.5000 
     73 O          -4.1085  -26.8674  -46.4389 O.2       12 UNK        -0.5000 
     74 N          -1.9132  -26.3974  -46.1198 N.am      13 UNK        -0.5000 
     75 CA         -1.3447  -27.5223  -46.8617 C.3       13 UNK         0.1400 
     76 CB          0.0949  -27.7469  -46.3693 C.3       13 UNK        -0.1800 
     77 C          -1.3690  -27.2816  -48.3853 C.2       13 UNK         0.5000 
     78 O          -1.6867  -26.1789  -48.8370 O.2       13 UNK        -0.5000 
     79 N          -1.0118  -28.3242  -49.1504 N.am      14 UNK        -0.5000 
     80 CA         -0.8786  -28.3372  -50.6146 C.3       14 UNK         0.1400 
     81 CB          0.3013  -27.4466  -51.0598 C.3       14 UNK        -0.1800 
     82 C          -2.1974  -27.9897  -51.3347 C.2       14 UNK         0.5000 
     83 O          -2.2165  -27.1304  -52.2186 O.2       14 UNK        -0.5000 
     84 N          -3.2841  -28.6497  -50.9041 N.am      15 UNK        -0.5000 
     85 CA         -4.6688  -28.4505  -51.3517 C.3       15 UNK         0.1400 
     86 CB         -4.8414  -28.8982  -52.8192 C.3       15 UNK        -0.1800 
     87 C          -5.1514  -27.0072  -51.1016 C.2       15 UNK         0.5000 
     88 O          -5.7083  -26.3747  -52.0010 O.2       15 UNK        -0.5000 
     89 N          -4.8757  -26.5063  -49.8871 N.am      16 UNK        -0.5000 
     90 CA         -5.0906  -25.1288  -49.4331 C.3       16 UNK         0.1400 
     91 CB         -6.5976  -24.8325  -49.2828 C.3       16 UNK        -0.1800 
     92 C          -4.3593  -24.1125  -50.3326 C.2       16 UNK         0.5000 
     93 O          -4.9807  -23.1726  -50.8282 O.2       16 UNK        -0.5000 
     94 N          -3.0636  -24.3683  -50.5672 N.am      17 UNK        -0.5000 
     95 CA         -2.1627  -23.6518  -51.4714 C.3       17 UNK         0.1400 
     96 CB         -1.7603  -22.2913  -50.8723 C.3       17 UNK        -0.1800 
     97 C          -2.7365  -23.5400  -52.8957 C.2       17 UNK         0.5000 
     98 O          -2.9916  -22.4342  -53.3754 O.2       17 UNK        -0.5000 
     99 N          -2.9601  -24.7057  -53.5188 N.am      18 UNK        -0.5000 
    100 CA        -3.4873  -24.8976  -54.8727 C.3       18 UNK         0.1400 
    101 CB        -2.4360  -24.4686  -55.9175 C.3       18 UNK        -0.1800 
    102 C         -4.8588  -24.2219  -55.0842 C.2       18 UNK         0.5000 
    103 O         -5.0437  -23.4873  -56.0566 O.2       18 UNK        -0.5000 
    104 N         -5.7875  -24.4839  -54.1531 N.am      19 UNK        -0.5000 
    105 CA        -7.1419  -23.9323  -54.0759 C.3       19 UNK         0.1400 
    106 CB        -8.0091  -24.4269  -55.2531 C.3       19 UNK        -0.1800 
    107 C         -7.1434  -22.3982  -53.9115 C.2       19 UNK         0.5000 
    108 O         -7.7933  -21.6878  -54.6814 O.2       19 UNK        -0.5000 
    109 N         -6.4196  -21.9307  -52.8861 N.am      20 UNK        -0.5000 
    110 CA        -6.2984  -20.5467  -52.4308 C.3       20 UNK         0.1400 
    111 CB        -7.6517  -20.0203  -51.9073 C.3       20 UNK        -0.1800 
    112 C         -5.6393  -19.6160  -53.4652 C.2       20 UNK         0.5000 
    113 O         -6.1571  -18.5314  -53.7427 O.2       20 UNK        -0.5000 
    114 N         -4.4676  -20.0160  -53.9791 N.am      21 UNK        -0.5000 
    115 CA        -3.5786  -19.1692  -54.7817 C.3       21 UNK         0.1400 
    116 CB        -2.6964  -20.0623  -55.6730 C.3       21 UNK        -0.1800 
    117 C         -2.7577  -18.2277  -53.8692 C.2       21 UNK         0.5000 
    118 O         -1.5261  -18.2737  -53.8630 O.2       21 UNK        -0.5000 
    119 N         -3.4736  -17.4291  -53.0710 N.am      22 UNK        -0.5000 
    120 CA        -2.9528  -16.5282  -52.0358 C.3       22 UNK         0.1400 
    121 C         -2.1409  -15.3360  -52.6089 C.2       22 UNK         0.5000 
    122 N         -1.1048  -14.9019  -51.9052 N.am      22 UNK        -0.7600 
    123 O         -2.4710  -14.7730  -53.6507 O.2       22 UNK        -0.5000 
    124 C124       -4.0973  -16.0159  -51.1229 C.3       23 UNK        -0.0398 
    125 S125       -4.9861  -17.3801  -50.2907 S.3       23 UNK        -0.2404 
    126 C126       -4.5557  -17.1149  -48.5370 C.3       23 UNK        -0.0205 
    127 H127        2.9724  -11.9230  -52.8011 H         1 UNK         0.0600 
    128 H128        3.5999  -12.9608  -51.5274 H         1 UNK         0.0600 
    129 H129        3.2142  -11.2624  -51.1885 H         1 UNK         0.0600 
    130 H130        0.2246  -13.1738  -49.9032 H         1 UNK         0.3000 
    131 H131        3.0326  -13.4603  -49.3315 H         1 UNK         0.0600 
    132 H132        2.2556  -14.0509  -47.0590 H         1 UNK         0.0800 
    133 H133        1.4847  -14.9766  -48.3089 H         1 UNK         0.0800 
    134 H134        0.3128  -15.3680  -45.7491 H         1 UNK         0.0800 
    135 H135       -1.2873  -14.7161  -45.5515 H         1 UNK         0.0800 
    136 H136       -3.1316  -15.3223  -47.0646 H         1 UNK         0.1150 
    137 H137       -2.6501  -18.8943  -49.3853 H         1 UNK         0.1150 
    138 H138        0.7512  -17.0791  -47.5206 H         1 UNK         0.1150 
    139 H139       -0.4524  -19.6689  -49.9526 H         1 UNK         0.0800 
    140 H140        0.9365  -18.6917  -49.5514 H         1 UNK         0.0800 
    141 H141       -1.7141  -21.0713  -48.2140 H         1 UNK         0.0800 
    142 H142       -1.5095  -20.3499  -46.6466 H         1 UNK         0.0800 
    143 H143       -0.3286  -23.0630  -47.3899 H         1 UNK         0.0600 
    144 H144       -0.0076  -21.4341  -45.0807 H         1 UNK         0.3000 
    145 H145        1.1257  -23.9503  -42.8502 H         1 UNK         0.0600 
    146 H146        3.1283  -23.2895  -44.1560 H         1 UNK         0.0600 
    147 H147        2.5535  -21.6321  -44.2647 H         1 UNK         0.0600 
    148 H148        2.9996  -22.3133  -42.7008 H         1 UNK         0.0600 
    149 H149        0.6171  -21.0745  -42.8072 H         1 UNK         0.3000 
    150 H150       -2.6460  -21.3394  -41.3958 H         1 UNK         0.0600 
    151 H151       -1.1414  -21.6646  -39.4292 H         1 UNK         0.0600 
    152 H152       -1.6186  -19.9816  -39.5931 H         1 UNK         0.0600 
    153 H153       -0.0053  -20.4925  -40.0876 H         1 UNK         0.0600 
    154 H154       -0.8457  -19.1514  -41.9630 H         1 UNK         0.3000 
    155 H155       -1.8753  -18.5752  -45.2975 H         1 UNK         0.0600 
    156 H156       -2.6387  -16.3815  -44.4461 H         1 UNK         0.0600 
    157 H157       -2.7298  -17.0163  -42.8057 H         1 UNK         0.0600 
    158 H158       -3.8157  -17.6214  -44.0527 H         1 UNK         0.0600 
    159 H159       -0.3521  -16.9360  -43.6158 H         1 UNK         0.3000 
    160 H160        2.6540  -18.6683  -43.3448 H         1 UNK         0.0600 
    161 H161        2.2397  -16.6528  -45.6131 H         1 UNK         0.0600 
    162 H162        2.9606  -18.2462  -45.7713 H         1 UNK         0.0600 
    163 H163        3.7704  -17.0096  -44.8198 H         1 UNK         0.0600 
    164 H164        2.1111  -15.8668  -43.2324 H         1 UNK         0.3000 
    165 H165        0.3569  -15.7631  -40.1971 H         1 UNK         0.0600 
    166 H166        2.2935  -14.6348  -39.1302 H         1 UNK         0.0600 
    167 H167        2.5540  -16.3708  -39.1643 H         1 UNK         0.0600 
    168 H168        3.3925  -15.3394  -40.3174 H         1 UNK         0.0600 
    169 H169        1.8888  -13.7390  -41.4577 H         1 UNK         0.3000 
    170 H170       -0.1325  -13.0030  -44.2213 H         1 UNK         0.0600 
    171 H171       -1.5152  -11.9871  -42.4028 H         1 UNK         0.0600 
    172 H172       -0.0519  -11.4604  -41.5777 H         1 UNK         0.0600 
    173 H173       -0.4657  -10.7995  -43.1604 H         1 UNK         0.0600 
    174 H174        1.9249  -11.4597  -43.1466 H         1 UNK         0.3000 
    175 H175        4.4794  -12.3262  -43.2691 H         1 UNK         0.0600 
    176 H176        5.9264  -12.6716  -45.2759 H         1 UNK         0.0600 
    177 H177        5.1883  -14.1685  -44.7307 H         1 UNK         0.0600 
    178 H178        4.5550  -13.3503  -46.1509 H         1 UNK         0.0600 
    179 H179        3.9104  -10.9537  -45.8054 H         1 UNK         0.3000 
    180 H180        2.6800   -8.0214  -44.3095 H         1 UNK         0.0600 
    181 H181        5.6026   -8.3273  -45.1853 H         1 UNK         0.0600 
    182 H182        5.0607   -7.6652  -43.6478 H         1 UNK         0.0600 
    183 H183        4.6866   -6.8199  -45.1407 H         1 UNK         0.0600 
    184 H184        3.8454   -8.5450  -46.8864 H         1 UNK         0.3000 
    185 H185        0.8135   -8.7389  -48.4539 H         1 UNK         0.0600 
    186 H186        2.9602   -7.4853  -48.7444 H         1 UNK         0.0600 
    187 H187        3.8456   -9.0050  -48.8741 H         1 UNK         0.0600 
    188 H188        2.6509   -8.5696  -50.0865 H         1 UNK         0.0600 
    189 H189        0.7668  -10.8509  -49.1306 H         1 UNK         0.3000 
    190 H190       -1.9115  -23.7169  -44.6678 H         1 UNK         0.3000 
    191 H191       -4.5250  -24.4358  -45.7638 H         1 UNK         0.0600 
    192 H192       -3.0012  -25.4316  -43.2945 H         1 UNK         0.0600 
    193 H193       -4.1904  -24.1308  -43.3116 H         1 UNK         0.0600 
    194 H194       -4.6850  -25.7786  -43.6729 H         1 UNK         0.0600 
    195 H195       -1.2452  -25.7185  -45.7723 H         1 UNK         0.3000 
    196 H196       -1.9327  -28.4170  -46.6468 H         1 UNK         0.0600 
    197 H197        0.5363  -28.6369  -46.8188 H         1 UNK         0.0600 
    198 H198        0.1254  -27.8844  -45.2882 H         1 UNK         0.0600 
    199 H199        0.7392  -26.9017  -46.6160 H         1 UNK         0.0600 
    200 H200       -0.7774  -29.1931  -48.6905 H         1 UNK         0.3000 
    201 H201       -0.6385  -29.3632  -50.8974 H         1 UNK         0.0600 
    202 H202        1.2245  -27.7368  -50.5583 H         1 UNK         0.0600 
    203 H203        0.1209  -26.3930  -50.8447 H         1 UNK         0.0600 
    204 H204        0.4740  -27.5350  -52.1330 H         1 UNK         0.0600 
    205 H205       -3.1585  -29.3245  -50.1626 H         1 UNK         0.3000 
    206 H206       -5.2949  -29.0959  -50.7338 H         1 UNK         0.0600 
    207 H207       -4.5031  -29.9245  -52.9604 H         1 UNK         0.0600 
    208 H208       -5.8898  -28.8586  -53.1174 H         1 UNK         0.0600 
    209 H209       -4.2836  -28.2635  -53.5085 H         1 UNK         0.0600 
    210 H210       -4.3866  -27.0991  -49.2315 H         1 UNK         0.3000 
    211 H211       -4.6393  -25.0514  -48.4452 H         1 UNK         0.0600 
    212 H212       -7.1164  -24.8602  -50.2415 H         1 UNK         0.0600 
    213 H213       -6.7567  -23.8426  -48.8538 H         1 UNK         0.0600 
    214 H214       -7.0758  -25.5541  -48.6206 H         1 UNK         0.0600 
    215 H215       -2.6402  -25.1461  -50.0658 H         1 UNK         0.3000 
    216 H216       -1.2576  -24.2556  -51.5502 H         1 UNK         0.0600 
    217 H217       -1.1128  -21.7363  -51.5521 H         1 UNK         0.0600 
    218 H218       -1.2040  -22.4378  -49.9482 H         1 UNK         0.0600 
    219 H219       -2.6269  -21.6653  -50.6567 H         1 UNK         0.0600 
    220 H220       -2.7406  -25.5633  -53.0133 H         1 UNK         0.3000 
    221 H221       -3.6514  -25.9700  -54.9883 H         1 UNK         0.0600 
    222 H222       -2.2396  -23.3965  -55.8773 H         1 UNK         0.0600 
    223 H223       -1.4909  -24.9886  -55.7614 H         1 UNK         0.0600 
    224 H224       -2.7714  -24.7025  -56.9285 H         1 UNK         0.0600 
    225 H225       -5.5424  -25.1072  -53.3863 H         1 UNK         0.3000 
    226 H226       -7.5780  -24.3364  -53.1609 H         1 UNK         0.0600 
    227 H227       -8.0066  -25.5152  -55.3132 H         1 UNK         0.0600 
    228 H228       -9.0457  -24.1112  -55.1306 H         1 UNK         0.0600 
    229 H229       -7.6613  -24.0369  -56.2100 H         1 UNK         0.0600 
    230 H230       -5.8948  -22.5927  -52.3166 H         1 UNK         0.3000 
    231 H231       -5.6153  -20.5715  -51.5803 H         1 UNK         0.0600 
    232 H232       -8.3890  -19.9259  -52.7049 H         1 UNK         0.0600 
    233 H233       -7.5360  -19.0359  -51.4520 H         1 UNK         0.0600 
    234 H234       -8.0628  -20.6820  -51.1449 H         1 UNK         0.0600 
    235 H235       -4.0813  -20.9156  -53.6983 H         1 UNK         0.3000 
    236 H236       -4.1811  -18.5424  -55.4423 H         1 UNK         0.0600 
    237 H237       -3.3023  -20.7336  -56.2822 H         1 UNK         0.0600 
    238 H238       -2.0931  -19.4589  -56.3519 H         1 UNK         0.0600 
    239 H239       -2.0124  -20.6736  -55.0838 H         1 UNK         0.0600 
    240 H240       -4.4829  -17.4733  -53.1506 H         1 UNK         0.3000 
    241 H241       -2.2707  -17.1207  -51.4238 H         1 UNK         0.0600 
    242 H242       -0.5793  -14.0992  -52.2373 H         1 UNK         0.3800 
    243 H243       -0.8244  -15.3604  -51.0534 H         1 UNK         0.3800 
    244 H244       -3.7097  -15.3276  -50.3698 H         1 UNK         0.0800 
    245 H245       -4.8213  -15.4446  -51.7064 H         1 UNK         0.0800 
    246 H246       -5.0118  -17.9064  -47.9412 H         1 UNK         0.0800 
    247 H247       -5.0125  -16.1801  -48.2082 H         1 UNK         0.0800 
@<TRIPOS>BOND
     1    1    2 1    
     2    1  127 1    
     3    1  128 1    
     4    1  129 1    
     5    2    3 2    
     6    2    4 am   BACKBONE|DICT|INTERRES
     7    4    5 1    
     8    4  130 1    
     9    5    6 1    
    10    5   65 1    
    11    5  131 1    
    12    6    7 1    
    13    6  132 1    
    14    6  133 1    
    15    7    8 1    
    16    8    9 1    
    17    8  134 1    
    18    8  135 1    
    19    9   10 ar   
    20    9   14 ar   
    21   10   11 ar   
    22   10  136 1    
    23   11   12 ar   
    24   11  126 1    
    25   12   13 ar   
    26   12  137 1    
    27   13   14 ar   
    28   13   15 1    
    29   14  138 1    
    30   15   16 1    
    31   15  139 1    
    32   15  140 1    
    33   16   17 1    
    34   17   18 1    
    35   17  141 1    
    36   17  142 1    
    37   18   19 1    
    38   18   67 1    
    39   18  143 1    
    40   19   20 am   BACKBONE|DICT|INTERRES
    41   19  144 1    
    42   20   21 2    
    43   20   22 1    
    44   22   23 1    
    45   22   24 1    
    46   22  145 1    
    47   23  146 1    
    48   23  147 1    
    49   23  148 1    
    50   24   25 am   BACKBONE|DICT|INTERRES
    51   24  149 1    
    52   25   26 2    
    53   25   27 1    
    54   27   28 1    
    55   27   29 1    
    56   27  150 1    
    57   28  151 1    
    58   28  152 1    
    59   28  153 1    
    60   29   30 am   BACKBONE|DICT|INTERRES
    61   29  154 1    
    62   30   31 2    
    63   30   32 1    
    64   32   33 1    
    65   32   34 1    
    66   32  155 1    
    67   33  156 1    
    68   33  157 1    
    69   33  158 1    
    70   34   35 am   BACKBONE|DICT|INTERRES
    71   34  159 1    
    72   35   36 2    
    73   35   37 1    
    74   37   38 1    
    75   37   39 1    
    76   37  160 1    
    77   38  161 1    
    78   38  162 1    
    79   38  163 1    
    80   39   40 am   BACKBONE|DICT|INTERRES
    81   39  164 1    
    82   40   41 2    
    83   40   42 1    
    84   42   43 1    
    85   42   44 1    
    86   42  165 1    
    87   43  166 1    
    88   43  167 1    
    89   43  168 1    
    90   44   45 am   BACKBONE|DICT|INTERRES
    91   44  169 1    
    92   45   46 2    
    93   45   47 1    
    94   47   48 1    
    95   47   49 1    
    96   47  170 1    
    97   48  171 1    
    98   48  172 1    
    99   48  173 1    
   100   49   50 am   BACKBONE|DICT|INTERRES
   101   49  174 1    
   102   50   51 2    
   103   50   52 1    
   104   52   53 1    
   105   52   54 1    
   106   52  175 1    
   107   53  176 1    
   108   53  177 1    
   109   53  178 1    
   110   54   55 am   BACKBONE|DICT|INTERRES
   111   54  179 1    
   112   55   56 2    
   113   55   57 1    
   114   57   58 1    
   115   57   59 1    
   116   57  180 1    
   117   58  181 1    
   118   58  182 1    
   119   58  183 1    
   120   59   60 am   BACKBONE|DICT|INTERRES
   121   59  184 1    
   122   60   61 2    
   123   60   62 1    
   124   62   63 1    
   125   62   64 1    
   126   62  185 1    
   127   63  186 1    
   128   63  187 1    
   129   63  188 1    
   130   64   65 am   BACKBONE|DICT|INTERRES
   131   64  189 1    
   132   65   66 2    
   133   67   68 2    
   134   67   69 am   BACKBONE|DICT|INTERRES
   135   69   70 1    
   136   69  190 1    
   137   70   71 1    
   138   70   72 1    
   139   70  191 1    
   140   71  192 1    
   141   71  193 1    
   142   71  194 1    
   143   72   73 2    
   144   72   74 am   BACKBONE|DICT|INTERRES
   145   74   75 1    
   146   74  195 1    
   147   75   76 1    
   148   75   77 1    
   149   75  196 1    
   150   76  197 1    
   151   76  198 1    
   152   76  199 1    
   153   77   78 2    
   154   77   79 am   BACKBONE|DICT|INTERRES
   155   79   80 1    
   156   79  200 1    
   157   80   81 1    
   158   80   82 1    
   159   80  201 1    
   160   81  202 1    
   161   81  203 1    
   162   81  204 1    
   163   82   83 2    
   164   82   84 am   BACKBONE|DICT|INTERRES
   165   84   85 1    
   166   84  205 1    
   167   85   86 1    
   168   85   87 1    
   169   85  206 1    
   170   86  207 1    
   171   86  208 1    
   172   86  209 1    
   173   87   88 2    
   174   87   89 am   BACKBONE|DICT|INTERRES
   175   89   90 1    
   176   89  210 1    
   177   90   91 1    
   178   90   92 1    
   179   90  211 1    
   180   91  212 1    
   181   91  213 1    
   182   91  214 1    
   183   92   93 2    
   184   92   94 am   BACKBONE|DICT|INTERRES
   185   94   95 1    
   186   94  215 1    
   187   95   96 1    
   188   95   97 1    
   189   95  216 1    
   190   96  217 1    
   191   96  218 1    
   192   96  219 1    
   193   97   98 2    
   194   97   99 am   BACKBONE|DICT|INTERRES
   195   99  100 1    
   196   99  220 1    
   197  100  101 1    
   198  100  102 1    
   199  100  221 1    
   200  101  222 1    
   201  101  223 1    
   202  101  224 1    
   203  102  103 2    
   204  102  104 am   BACKBONE|DICT|INTERRES
   205  104  105 1    
   206  104  225 1    
   207  105  106 1    
   208  105  107 1    
   209  105  226 1    
   210  106  227 1    
   211  106  228 1    
   212  106  229 1    
   213  107  108 2    
   214  107  109 am   BACKBONE|DICT|INTERRES
   215  109  110 1    
   216  109  230 1    
   217  110  111 1    
   218  110  112 1    
   219  110  231 1    
   220  111  232 1    
   221  111  233 1    
   222  111  234 1    
   223  112  113 2    
   224  112  114 am   BACKBONE|DICT|INTERRES
   225  114  115 1    
   226  114  235 1    
   227  115  116 1    
   228  115  117 1    
   229  115  236 1    
   230  116  237 1    
   231  116  238 1    
   232  116  239 1    
   233  117  118 2    
   234  117  119 am   BACKBONE|DICT|INTERRES
   235  119  120 1    
   236  119  240 1    
   237  120  121 1    
   238  120  124 1    
   239  120  241 1    
   240  121  122 am   BACKBONE|DICT|INTERRES
   241  121  123 2    
   242  122  242 1    
   243  122  243 1    
   244  124  125 1    
   245  124  244 1    
   246  124  245 1    
   247  125  126 1    
   248  126  246 1    
   249  126  247 1    
@<TRIPOS>SUBSTRUCTURE
     1 UNK         1 GROUP             0       ****    0 ROOT    
