@<TRIPOS>MOLECULE
3R540
247   249    1
SMALL
USER_CHARGES


@<TRIPOS>ATOM
      1 CA          4.9031  -11.9903  -47.6561 C.3       0 UNK        -0.1800 
      2 C           3.4890  -12.4053  -47.2790 C.2       0 UNK         0.5000 
      3 O           3.1876  -12.5458  -46.0932 O.2       0 UNK        -0.5000 
      4 N           2.6127  -12.5891  -48.2762 N.am      1 UNK        -0.5000 
      5 CA          1.2182  -13.0241  -48.1189 C.3       1 UNK         0.1400 
      6 C6          0.7136  -13.8072  -49.3639 C.3       23 UNK        -0.0398 
      7 S7         -0.3000  -15.2571  -48.9161 S.3       23 UNK        -0.2404 
      8 C8         -1.9872  -14.6142  -49.1007 C.3       23 UNK        -0.0205 
      9 C9         -3.0157  -15.7323  -49.0265 C.ar      23 UNK        -0.0193 
     10 C10        -3.3022  -16.4874  -50.1655 C.ar      23 UNK        -0.1150 
     11 C11        -4.2858  -17.4796  -50.1354 C.ar      23 UNK        -0.0193 
     12 C12        -4.9840  -17.7189  -48.9485 C.ar      23 UNK        -0.1150 
     13 C13        -4.6954  -16.9830  -47.7939 C.ar      23 UNK        -0.0193 
     14 C14        -3.7055  -15.9940  -47.8387 C.ar      23 UNK        -0.1150 
     15 C15        -5.4798  -17.2239  -46.5087 C.3       23 UNK        -0.0205 
     16 S16        -5.3393  -18.9322  -45.8851 S.3       23 UNK        -0.2404 
     17 C17        -3.5446  -19.0794  -45.5954 C.3       23 UNK        -0.0398 
     18 CA         -2.8641  -20.0163  -46.6226 C.3       11 UNK         0.1400 
     19 N          -1.4428  -19.7075  -46.7888 N.am      11 UNK        -0.5000 
     20 C          -0.6627  -20.2110  -47.7542 C.2       10 UNK         0.5000 
     21 O          -1.0725  -20.9592  -48.6401 O.2       10 UNK        -0.5000 
     22 CA          0.8362  -19.8671  -47.6941 C.3       10 UNK         0.1400 
     23 CB          1.1055  -18.4883  -48.3052 C.3       10 UNK        -0.1800 
     24 N           1.3766  -19.9144  -46.3353 N.am      10 UNK        -0.5000 
     25 C           1.4533  -21.0273  -45.5930 C.2       9 UNK         0.5000 
     26 O           1.1123  -22.1387  -45.9959 O.2       9 UNK        -0.5000 
     27 CA          1.9563  -20.8702  -44.1469 C.3       9 UNK         0.1400 
     28 CB          3.4879  -20.7615  -44.1106 C.3       9 UNK        -0.1800 
     29 N           1.3651  -19.7206  -43.4617 N.am      9 UNK        -0.5000 
     30 C           0.0578  -19.5767  -43.1998 C.2       8 UNK         0.5000 
     31 O          -0.7956  -20.4180  -43.4808 O.2       8 UNK        -0.5000 
     32 CA         -0.3789  -18.2393  -42.5746 C.3       8 UNK         0.1400 
     33 CB         -0.0599  -18.1962  -41.0730 C.3       8 UNK        -0.1800 
     34 N           0.2297  -17.0893  -43.2428 N.am      8 UNK        -0.5000 
     35 C           0.0463  -16.7820  -44.5347 C.2       7 UNK         0.5000 
     36 O          -0.6894  -17.4106  -45.2917 O.2       7 UNK        -0.5000 
     37 CA          0.8583  -15.6029  -45.0843 C.3       7 UNK         0.1400 
     38 CB          0.1956  -14.2682  -44.7097 C.3       7 UNK        -0.1800 
     39 N           2.2395  -15.6291  -44.6071 N.am      7 UNK        -0.5000 
     40 C           3.1472  -16.5468  -44.9701 C.2       6 UNK         0.5000 
     41 O           2.9233  -17.4529  -45.7719 O.2       6 UNK        -0.5000 
     42 CA          4.5229  -16.4653  -44.2838 C.3       6 UNK         0.1400 
     43 CB          5.4098  -15.4192  -44.9764 C.3       6 UNK        -0.1800 
     44 N           4.4196  -16.1473  -42.8589 N.am      6 UNK        -0.5000 
     45 C           3.8333  -16.9305  -41.9412 C.2       5 UNK         0.5000 
     46 O           3.3779  -18.0471  -42.1854 O.2       5 UNK        -0.5000 
     47 CA          3.6759  -16.3387  -40.5261 C.3       5 UNK         0.1400 
     48 CB          4.9023  -16.6698  -39.6634 C.3       5 UNK        -0.1800 
     49 N           3.4581  -14.8877  -40.5275 N.am      5 UNK        -0.5000 
     50 C           2.4206  -14.2767  -41.1144 C.2       4 UNK         0.5000 
     51 O           1.5113  -14.8806  -41.6914 O.2       4 UNK        -0.5000 
     52 CA          2.4355  -12.7417  -41.1070 C.3       4 UNK         0.1400 
     53 CB          3.5915  -12.1998  -41.9718 C.3       4 UNK        -0.1800 
     54 N           1.1670  -12.2558  -41.6379 N.am      4 UNK        -0.5000 
     55 C           0.6422  -11.0465  -41.4275 C.2       3 UNK         0.5000 
     56 O           1.1676  -10.1809  -40.7248 O.2       3 UNK        -0.5000 
     57 CA         -0.6393  -10.7324  -42.2099 C.3       3 UNK         0.1400 
     58 CB         -1.5133   -9.6645  -41.5276 C.3       3 UNK        -0.1800 
     59 N          -0.2209  -10.2527  -43.5218 N.am      3 UNK        -0.5000 
     60 C          -0.7278  -10.6390  -44.6966 C.2       2 UNK         0.5000 
     61 O          -1.6761  -11.4171  -44.8070 O.2       2 UNK        -0.5000 
     62 CA         -0.0542  -10.0875  -45.9671 C.3       2 UNK         0.1400 
     63 CB          0.9239   -8.9229  -45.7087 C.3       2 UNK        -0.1800 
     64 N           0.6790  -11.1745  -46.6059 N.am      2 UNK        -0.5000 
     65 C           0.2938  -11.8569  -47.6893 C.2       1 UNK         0.5000 
     66 O          -0.7134  -11.5793  -48.3421 O.2       1 UNK        -0.5000 
     67 C          -3.0873  -21.5050  -46.2785 C.2       11 UNK         0.5000 
     68 O          -3.9668  -22.1396  -46.8605 O.2       11 UNK        -0.5000 
     69 N          -2.2565  -22.0528  -45.3790 N.am      12 UNK        -0.5000 
     70 CA         -2.2557  -23.4696  -45.0104 C.3       12 UNK         0.1400 
     71 CB         -1.3242  -23.6907  -43.8092 C.3       12 UNK        -0.1800 
     72 C          -1.8734  -24.3971  -46.1797 C.2       12 UNK         0.5000 
     73 O          -2.4339  -25.4868  -46.2885 O.2       12 UNK        -0.5000 
     74 N          -0.9504  -23.9451  -47.0406 N.am      13 UNK        -0.5000 
     75 CA         -0.5720  -24.6253  -48.2789 C.3       13 UNK         0.1400 
     76 CB          0.7338  -24.0246  -48.8230 C.3       13 UNK        -0.1800 
     77 C          -1.6841  -24.5748  -49.3435 C.2       13 UNK         0.5000 
     78 O          -1.8937  -25.5700  -50.0355 O.2       13 UNK        -0.5000 
     79 N          -2.3723  -23.4284  -49.4487 N.am      14 UNK        -0.5000 
     80 CA         -3.4923  -23.2053  -50.3640 C.3       14 UNK         0.1400 
     81 CB         -3.8500  -21.7105  -50.3846 C.3       14 UNK        -0.1800 
     82 C          -4.7360  -24.0459  -50.0177 C.2       14 UNK         0.5000 
     83 O          -5.4275  -24.5206  -50.9199 O.2       14 UNK        -0.5000 
     84 N          -5.0146  -24.1907  -48.7159 N.am      15 UNK        -0.5000 
     85 CA         -6.1468  -24.9392  -48.1778 C.3       15 UNK         0.1400 
     86 CB         -6.2503  -24.6724  -46.6679 C.3       15 UNK        -0.1800 
     87 C          -6.0420  -26.4509  -48.4578 C.2       15 UNK         0.5000 
     88 O          -5.0214  -27.0628  -48.1382 O.2       15 UNK        -0.5000 
     89 N          -7.1226  -27.0207  -49.0126 N.am      16 UNK        -0.5000 
     90 CA         -7.3405  -28.4509  -49.2760 C.3       16 UNK         0.1400 
     91 CB         -7.4948  -29.2203  -47.9467 C.3       16 UNK        -0.1800 
     92 C          -6.3025  -29.0992  -50.2214 C.2       16 UNK         0.5000 
     93 O          -6.0324  -30.2970  -50.1095 O.2       16 UNK        -0.5000 
     94 N          -5.7497  -28.3074  -51.1457 N.am      17 UNK        -0.5000 
     95 CA         -4.7561  -28.7173  -52.1345 C.3       17 UNK         0.1400 
     96 CB         -3.3595  -28.7873  -51.4789 C.3       17 UNK        -0.1800 
     97 C          -4.8215  -27.7536  -53.3330 C.2       17 UNK         0.5000 
     98 O          -5.8696  -27.1466  -53.5717 O.2       17 UNK        -0.5000 
     99 N          -3.7088  -27.6211  -54.0680 N.am      18 UNK        -0.5000 
    100 CA        -3.5071  -26.5916  -55.0897 C.3       18 UNK         0.1400 
    101 CB        -2.1913  -26.8734  -55.8315 C.3       18 UNK        -0.1800 
    102 C         -3.4822  -25.1867  -54.4569 C.2       18 UNK         0.5000 
    103 O         -3.0576  -25.0479  -53.3106 O.2       18 UNK        -0.5000 
    104 N         -3.9260  -24.1776  -55.2167 N.am      19 UNK        -0.5000 
    105 CA        -4.1945  -22.8131  -54.7458 C.3       19 UNK         0.1400 
    106 CB        -4.8724  -22.0324  -55.8814 C.3       19 UNK        -0.1800 
    107 C         -2.9833  -22.0295  -54.1965 C.2       19 UNK         0.5000 
    108 O         -3.1902  -21.0338  -53.5016 O.2       19 UNK        -0.5000 
    109 N         -1.7569  -22.4778  -54.5057 N.am      20 UNK        -0.5000 
    110 CA        -0.4769  -21.9415  -54.0309 C.3       20 UNK         0.1400 
    111 CB        -0.2834  -22.2775  -52.5329 C.3       20 UNK        -0.1800 
    112 C         -0.3349  -20.4419  -54.3666 C.2       20 UNK         0.5000 
    113 O         -0.2945  -20.0941  -55.5485 O.2       20 UNK        -0.5000 
    114 N         -0.3166  -19.5795  -53.3410 N.am      21 UNK        -0.5000 
    115 CA        -0.2758  -18.1186  -53.4554 C.3       21 UNK         0.1400 
    116 CB        -0.1132  -17.5177  -52.0507 C.3       21 UNK        -0.1800 
    117 C         -1.4936  -17.5008  -54.1764 C.2       21 UNK         0.5000 
    118 O         -1.3767  -16.3968  -54.7097 O.2       21 UNK        -0.5000 
    119 N         -2.6203  -18.2229  -54.2013 N.am      22 UNK        -0.5000 
    120 CA        -3.8332  -17.8758  -54.9568 C.3       22 UNK         0.1400 
    121 C         -3.8481  -18.4668  -56.3987 C.2       22 UNK         0.5000 
    122 N         -2.8258  -19.1863  -56.8498 N.am      22 UNK        -0.7600 
    123 O         -4.8046  -18.2532  -57.1384 O.2       22 UNK        -0.5000 
    124 C124       -5.1176  -18.2467  -54.1670 C.3       23 UNK        -0.0398 
    125 S125       -5.3277  -17.2185  -52.6759 S.3       23 UNK        -0.2404 
    126 C126       -4.5897  -18.2781  -51.3926 C.3       23 UNK        -0.0205 
    127 H127        5.1331  -11.0137  -47.2290 H         1 UNK         0.0600 
    128 H128        5.0340  -11.9304  -48.7374 H         1 UNK         0.0600 
    129 H129        5.6206  -12.7127  -47.2652 H         1 UNK         0.0600 
    130 H130        2.9093  -12.4122  -49.2256 H         1 UNK         0.3000 
    131 H131        1.2176  -13.7212  -47.2827 H         1 UNK         0.0600 
    132 H132        1.5633  -14.2125  -49.9150 H         1 UNK         0.0800 
    133 H133        0.1920  -13.1741  -50.0834 H         1 UNK         0.0800 
    134 H134       -2.1789  -13.8717  -48.3249 H         1 UNK         0.0800 
    135 H135       -2.0806  -14.0960  -50.0562 H         1 UNK         0.0800 
    136 H136       -2.7730  -16.2884  -51.0868 H         1 UNK         0.1150 
    137 H137       -5.7531  -18.4780  -48.9192 H         1 UNK         0.1150 
    138 H138       -3.4836  -15.4127  -46.9548 H         1 UNK         0.1150 
    139 H139       -5.1607  -16.5361  -45.7240 H         1 UNK         0.0800 
    140 H140       -6.5320  -17.0053  -46.6954 H         1 UNK         0.0800 
    141 H141       -3.3653  -19.4090  -44.5704 H         1 UNK         0.0800 
    142 H142       -3.1164  -18.0797  -45.6591 H         1 UNK         0.0800 
    143 H143       -3.3230  -19.8376  -47.5974 H         1 UNK         0.0600 
    144 H144       -1.0428  -19.0417  -46.1319 H         1 UNK         0.3000 
    145 H145        1.3671  -20.6102  -48.2925 H         1 UNK         0.0600 
    146 H146        2.1744  -18.3040  -48.4124 H         1 UNK         0.0600 
    147 H147        0.6554  -18.4013  -49.2937 H         1 UNK         0.0600 
    148 H148        0.6913  -17.6960  -47.6832 H         1 UNK         0.0600 
    149 H149        1.7200  -19.0388  -45.9528 H         1 UNK         0.3000 
    150 H150        1.6674  -21.7680  -43.5969 H         1 UNK         0.0600 
    151 H151        3.9526  -21.6144  -44.6067 H         1 UNK         0.0600 
    152 H152        3.8565  -20.7410  -43.0849 H         1 UNK         0.0600 
    153 H153        3.8398  -19.8579  -44.6094 H         1 UNK         0.0600 
    154 H154        2.0081  -18.9938  -43.1596 H         1 UNK         0.3000 
    155 H155       -1.4611  -18.1545  -42.6938 H         1 UNK         0.0600 
    156 H156       -0.3921  -17.2593  -40.6254 H         1 UNK         0.0600 
    157 H157       -0.5640  -19.0071  -40.5460 H         1 UNK         0.0600 
    158 H158        1.0081  -18.2976  -40.8828 H         1 UNK         0.0600 
    159 H159        0.8275  -16.4897  -42.6832 H         1 UNK         0.3000 
    160 H160        0.8815  -15.6898  -46.1711 H         1 UNK         0.0600 
    161 H161       -0.0913  -14.2304  -43.6594 H         1 UNK         0.0600 
    162 H162       -0.7119  -14.1147  -45.2951 H         1 UNK         0.0600 
    163 H163        0.8566  -13.4244  -44.8998 H         1 UNK         0.0600 
    164 H164        2.4892  -14.9495  -43.9049 H         1 UNK         0.3000 
    165 H165        5.0024  -17.4418  -44.3795 H         1 UNK         0.0600 
    166 H166        6.4147  -15.4120  -44.5539 H         1 UNK         0.0600 
    167 H167        5.5069  -15.6333  -46.0416 H         1 UNK         0.0600 
    168 H168        4.9980  -14.4135  -44.8812 H         1 UNK         0.0600 
    169 H169        4.7718  -15.2483  -42.5665 H         1 UNK         0.3000 
    170 H170        2.8012  -16.8055  -40.0692 H         1 UNK         0.0600 
    171 H171        5.0748  -17.7465  -39.6277 H         1 UNK         0.0600 
    172 H172        5.8082  -16.2049  -40.0543 H         1 UNK         0.0600 
    173 H173        4.7658  -16.3302  -38.6365 H         1 UNK         0.0600 
    174 H174        4.1646  -14.3273  -40.0728 H         1 UNK         0.3000 
    175 H175        2.5524  -12.4073  -40.0742 H         1 UNK         0.0600 
    176 H176        4.5602  -12.5358  -41.6011 H         1 UNK         0.0600 
    177 H177        3.5035  -12.5258  -43.0095 H         1 UNK         0.0600 
    178 H178        3.6114  -11.1099  -41.9686 H         1 UNK         0.0600 
    179 H179        0.6630  -12.9420  -42.1845 H         1 UNK         0.3000 
    180 H180       -1.2200  -11.6535  -42.2966 H         1 UNK         0.0600 
    181 H181       -0.9950   -8.7087  -41.4414 H         1 UNK         0.0600 
    182 H182       -1.7983   -9.9782  -40.5228 H         1 UNK         0.0600 
    183 H183       -2.4322   -9.4947  -42.0891 H         1 UNK         0.0600 
    184 H184        0.5791   -9.6349  -43.5194 H         1 UNK         0.3000 
    185 H185       -0.8491   -9.7206  -46.6195 H         1 UNK         0.0600 
    186 H186        1.3120   -8.5314  -46.6492 H         1 UNK         0.0600 
    187 H187        0.4282   -8.0950  -45.1999 H         1 UNK         0.0600 
    188 H188        1.7803   -9.2283  -45.1059 H         1 UNK         0.0600 
    189 H189        1.5254  -11.4881  -46.1401 H         1 UNK         0.3000 
    190 H190       -1.5823  -21.4600  -44.9022 H         1 UNK         0.3000 
    191 H191       -3.2704  -23.7309  -44.7030 H         1 UNK         0.0600 
    192 H192       -0.2944  -23.4208  -44.0427 H         1 UNK         0.0600 
    193 H193       -1.3278  -24.7364  -43.4996 H         1 UNK         0.0600 
    194 H194       -1.6394  -23.0963  -42.9515 H         1 UNK         0.0600 
    195 H195       -0.4736  -23.0741  -46.8318 H         1 UNK         0.3000 
    196 H196       -0.3848  -25.6751  -48.0432 H         1 UNK         0.0600 
    197 H197        1.0554  -24.5465  -49.7251 H         1 UNK         0.0600 
    198 H198        1.5397  -24.1063  -48.0936 H         1 UNK         0.0600 
    199 H199        0.6200  -22.9715  -49.0790 H         1 UNK         0.0600 
    200 H200       -2.0786  -22.6323  -48.8914 H         1 UNK         0.3000 
    201 H201       -3.1606  -23.4807  -51.3638 H         1 UNK         0.0600 
    202 H202       -2.9943  -21.0990  -50.6694 H         1 UNK         0.0600 
    203 H203       -4.2008  -21.3609  -49.4139 H         1 UNK         0.0600 
    204 H204       -4.6416  -21.5153  -51.1086 H         1 UNK         0.0600 
    205 H205       -4.4198  -23.7206  -48.0415 H         1 UNK         0.3000 
    206 H206       -7.0519  -24.5527  -48.6509 H         1 UNK         0.0600 
    207 H207       -6.4003  -23.6119  -46.4638 H         1 UNK         0.0600 
    208 H208       -7.0923  -25.2110  -46.2314 H         1 UNK         0.0600 
    209 H209       -5.3479  -24.9889  -46.1429 H         1 UNK         0.0600 
    210 H210       -7.8984  -26.4211  -49.2579 H         1 UNK         0.3000 
    211 H211       -8.2947  -28.5166  -49.8005 H         1 UNK         0.0600 
    212 H212       -6.5593  -29.2503  -47.3872 H         1 UNK         0.0600 
    213 H213       -7.8047  -30.2512  -48.1217 H         1 UNK         0.0600 
    214 H214       -8.2514  -28.7612  -47.3104 H         1 UNK         0.0600 
    215 H215       -6.0474  -27.3422  -51.2151 H         1 UNK         0.3000 
    216 H216       -5.0205  -29.7072  -52.5117 H         1 UNK         0.0600 
    217 H217       -3.0177  -27.7990  -51.1687 H         1 UNK         0.0600 
    218 H218       -2.6154  -29.2015  -52.1595 H         1 UNK         0.0600 
    219 H219       -3.3653  -29.4255  -50.5953 H         1 UNK         0.0600 
    220 H220       -2.8857  -28.1310  -53.7840 H         1 UNK         0.3000 
    221 H221       -4.3338  -26.6460  -55.8011 H         1 UNK         0.0600 
    222 H222       -2.2047  -27.8583  -56.2989 H         1 UNK         0.0600 
    223 H223       -1.3333  -26.8319  -55.1590 H         1 UNK         0.0600 
    224 H224       -2.0236  -26.1419  -56.6229 H         1 UNK         0.0600 
    225 H225       -4.2211  -24.3809  -56.1608 H         1 UNK         0.3000 
    226 H226       -4.9068  -22.8949  -53.9219 H         1 UNK         0.0600 
    227 H227       -5.7765  -22.5355  -56.2248 H         1 UNK         0.0600 
    228 H228       -5.1685  -21.0372  -55.5515 H         1 UNK         0.0600 
    229 H229       -4.2078  -21.9109  -56.7376 H         1 UNK         0.0600 
    230 H230       -1.6980  -23.2865  -55.1064 H         1 UNK         0.3000 
    231 H231        0.3054  -22.4568  -54.5896 H         1 UNK         0.0600 
    232 H232       -1.0406  -21.8139  -51.9006 H         1 UNK         0.0600 
    233 H233        0.6944  -21.9511  -52.1767 H         1 UNK         0.0600 
    234 H234       -0.3415  -23.3535  -52.3666 H         1 UNK         0.0600 
    235 H235       -0.3915  -19.9536  -52.4065 H         1 UNK         0.3000 
    236 H236        0.6072  -17.8569  -54.0417 H         1 UNK         0.0600 
    237 H237        0.8416  -17.8063  -51.6118 H         1 UNK         0.0600 
    238 H238       -0.1363  -16.4274  -52.0797 H         1 UNK         0.0600 
    239 H239       -0.9061  -17.8455  -51.3776 H         1 UNK         0.0600 
    240 H240       -2.6261  -19.1443  -53.7748 H         1 UNK         0.3000 
    241 H241       -3.8528  -16.7944  -55.1035 H         1 UNK         0.0600 
    242 H242       -2.8570  -19.5407  -57.7921 H         1 UNK         0.3800 
    243 H243       -2.0070  -19.3657  -56.2789 H         1 UNK         0.3800 
    244 H244       -5.1237  -19.3012  -53.8918 H         1 UNK         0.0800 
    245 H245       -6.0064  -18.0910  -54.7807 H         1 UNK         0.0800 
    246 H246       -5.2705  -19.1026  -51.1775 H         1 UNK         0.0800 
    247 H247       -3.6645  -18.7267  -51.7543 H         1 UNK         0.0800 
@<TRIPOS>BOND
     1    1    2 1    
     2    1  127 1    
     3    1  128 1    
     4    1  129 1    
     5    2    3 2    
     6    2    4 am   BACKBONE|DICT|INTERRES
     7    4    5 1    
     8    4  130 1    
     9    5    6 1    
    10    5   65 1    
    11    5  131 1    
    12    6    7 1    
    13    6  132 1    
    14    6  133 1    
    15    7    8 1    
    16    8    9 1    
    17    8  134 1    
    18    8  135 1    
    19    9   10 ar   
    20    9   14 ar   
    21   10   11 ar   
    22   10  136 1    
    23   11   12 ar   
    24   11  126 1    
    25   12   13 ar   
    26   12  137 1    
    27   13   14 ar   
    28   13   15 1    
    29   14  138 1    
    30   15   16 1    
    31   15  139 1    
    32   15  140 1    
    33   16   17 1    
    34   17   18 1    
    35   17  141 1    
    36   17  142 1    
    37   18   19 1    
    38   18   67 1    
    39   18  143 1    
    40   19   20 am   BACKBONE|DICT|INTERRES
    41   19  144 1    
    42   20   21 2    
    43   20   22 1    
    44   22   23 1    
    45   22   24 1    
    46   22  145 1    
    47   23  146 1    
    48   23  147 1    
    49   23  148 1    
    50   24   25 am   BACKBONE|DICT|INTERRES
    51   24  149 1    
    52   25   26 2    
    53   25   27 1    
    54   27   28 1    
    55   27   29 1    
    56   27  150 1    
    57   28  151 1    
    58   28  152 1    
    59   28  153 1    
    60   29   30 am   BACKBONE|DICT|INTERRES
    61   29  154 1    
    62   30   31 2    
    63   30   32 1    
    64   32   33 1    
    65   32   34 1    
    66   32  155 1    
    67   33  156 1    
    68   33  157 1    
    69   33  158 1    
    70   34   35 am   BACKBONE|DICT|INTERRES
    71   34  159 1    
    72   35   36 2    
    73   35   37 1    
    74   37   38 1    
    75   37   39 1    
    76   37  160 1    
    77   38  161 1    
    78   38  162 1    
    79   38  163 1    
    80   39   40 am   BACKBONE|DICT|INTERRES
    81   39  164 1    
    82   40   41 2    
    83   40   42 1    
    84   42   43 1    
    85   42   44 1    
    86   42  165 1    
    87   43  166 1    
    88   43  167 1    
    89   43  168 1    
    90   44   45 am   BACKBONE|DICT|INTERRES
    91   44  169 1    
    92   45   46 2    
    93   45   47 1    
    94   47   48 1    
    95   47   49 1    
    96   47  170 1    
    97   48  171 1    
    98   48  172 1    
    99   48  173 1    
   100   49   50 am   BACKBONE|DICT|INTERRES
   101   49  174 1    
   102   50   51 2    
   103   50   52 1    
   104   52   53 1    
   105   52   54 1    
   106   52  175 1    
   107   53  176 1    
   108   53  177 1    
   109   53  178 1    
   110   54   55 am   BACKBONE|DICT|INTERRES
   111   54  179 1    
   112   55   56 2    
   113   55   57 1    
   114   57   58 1    
   115   57   59 1    
   116   57  180 1    
   117   58  181 1    
   118   58  182 1    
   119   58  183 1    
   120   59   60 am   BACKBONE|DICT|INTERRES
   121   59  184 1    
   122   60   61 2    
   123   60   62 1    
   124   62   63 1    
   125   62   64 1    
   126   62  185 1    
   127   63  186 1    
   128   63  187 1    
   129   63  188 1    
   130   64   65 am   BACKBONE|DICT|INTERRES
   131   64  189 1    
   132   65   66 2    
   133   67   68 2    
   134   67   69 am   BACKBONE|DICT|INTERRES
   135   69   70 1    
   136   69  190 1    
   137   70   71 1    
   138   70   72 1    
   139   70  191 1    
   140   71  192 1    
   141   71  193 1    
   142   71  194 1    
   143   72   73 2    
   144   72   74 am   BACKBONE|DICT|INTERRES
   145   74   75 1    
   146   74  195 1    
   147   75   76 1    
   148   75   77 1    
   149   75  196 1    
   150   76  197 1    
   151   76  198 1    
   152   76  199 1    
   153   77   78 2    
   154   77   79 am   BACKBONE|DICT|INTERRES
   155   79   80 1    
   156   79  200 1    
   157   80   81 1    
   158   80   82 1    
   159   80  201 1    
   160   81  202 1    
   161   81  203 1    
   162   81  204 1    
   163   82   83 2    
   164   82   84 am   BACKBONE|DICT|INTERRES
   165   84   85 1    
   166   84  205 1    
   167   85   86 1    
   168   85   87 1    
   169   85  206 1    
   170   86  207 1    
   171   86  208 1    
   172   86  209 1    
   173   87   88 2    
   174   87   89 am   BACKBONE|DICT|INTERRES
   175   89   90 1    
   176   89  210 1    
   177   90   91 1    
   178   90   92 1    
   179   90  211 1    
   180   91  212 1    
   181   91  213 1    
   182   91  214 1    
   183   92   93 2    
   184   92   94 am   BACKBONE|DICT|INTERRES
   185   94   95 1    
   186   94  215 1    
   187   95   96 1    
   188   95   97 1    
   189   95  216 1    
   190   96  217 1    
   191   96  218 1    
   192   96  219 1    
   193   97   98 2    
   194   97   99 am   BACKBONE|DICT|INTERRES
   195   99  100 1    
   196   99  220 1    
   197  100  101 1    
   198  100  102 1    
   199  100  221 1    
   200  101  222 1    
   201  101  223 1    
   202  101  224 1    
   203  102  103 2    
   204  102  104 am   BACKBONE|DICT|INTERRES
   205  104  105 1    
   206  104  225 1    
   207  105  106 1    
   208  105  107 1    
   209  105  226 1    
   210  106  227 1    
   211  106  228 1    
   212  106  229 1    
   213  107  108 2    
   214  107  109 am   BACKBONE|DICT|INTERRES
   215  109  110 1    
   216  109  230 1    
   217  110  111 1    
   218  110  112 1    
   219  110  231 1    
   220  111  232 1    
   221  111  233 1    
   222  111  234 1    
   223  112  113 2    
   224  112  114 am   BACKBONE|DICT|INTERRES
   225  114  115 1    
   226  114  235 1    
   227  115  116 1    
   228  115  117 1    
   229  115  236 1    
   230  116  237 1    
   231  116  238 1    
   232  116  239 1    
   233  117  118 2    
   234  117  119 am   BACKBONE|DICT|INTERRES
   235  119  120 1    
   236  119  240 1    
   237  120  121 1    
   238  120  124 1    
   239  120  241 1    
   240  121  122 am   BACKBONE|DICT|INTERRES
   241  121  123 2    
   242  122  242 1    
   243  122  243 1    
   244  124  125 1    
   245  124  244 1    
   246  124  245 1    
   247  125  126 1    
   248  126  246 1    
   249  126  247 1    
@<TRIPOS>SUBSTRUCTURE
     1 UNK         1 GROUP             0       ****    0 ROOT    
