@<TRIPOS>MOLECULE
3R540
247   249    1
SMALL
USER_CHARGES


@<TRIPOS>ATOM
      1 CA         -4.9111   -8.4960  -45.5919 C.3       0 UNK        -0.1800 
      2 C          -4.2266   -9.3273  -46.6676 C.2       0 UNK         0.5000 
      3 O          -4.3450   -9.0145  -47.8523 O.2       0 UNK        -0.5000 
      4 N          -3.5068  -10.3807  -46.2601 N.am      1 UNK        -0.5000 
      5 CA         -2.8039  -11.3158  -47.1526 C.3       1 UNK         0.1400 
      6 C6         -2.5739  -12.6983  -46.4913 C.3       23 UNK        -0.0398 
      7 S7         -4.1119  -13.4447  -45.8500 S.3       23 UNK        -0.2404 
      8 C8         -4.6808  -14.4209  -47.2777 C.3       23 UNK        -0.0205 
      9 C9         -3.9210  -15.7312  -47.4178 C.ar      23 UNK        -0.0193 
     10 C10        -2.9604  -15.8926  -48.4220 C.ar      23 UNK        -0.1150 
     11 C11        -2.2810  -17.1065  -48.5628 C.ar      23 UNK        -0.0193 
     12 C12        -2.5659  -18.1570  -47.6882 C.ar      23 UNK        -0.1150 
     13 C13        -3.5405  -18.0175  -46.6971 C.ar      23 UNK        -0.0193 
     14 C14        -4.2096  -16.7987  -46.5613 C.ar      23 UNK        -0.1150 
     15 C15        -3.8980  -19.2040  -45.8163 C.3       23 UNK        -0.0205 
     16 S16        -2.5503  -19.6118  -44.6681 S.3       23 UNK        -0.2404 
     17 C17        -2.6685  -21.4286  -44.5714 C.3       23 UNK        -0.0398 
     18 CA         -2.0065  -22.1659  -45.7692 C.3       11 UNK         0.1400 
     19 N          -0.5984  -21.7833  -45.9603 N.am      11 UNK        -0.5000 
     20 C           0.1005  -21.9179  -47.0981 C.2       10 UNK         0.5000 
     21 O          -0.3571  -22.4631  -48.1010 O.2       10 UNK        -0.5000 
     22 CA          1.5438  -21.3838  -47.1496 C.3       10 UNK         0.1400 
     23 CB          1.6978  -20.3340  -48.2629 C.3       10 UNK        -0.1800 
     24 N           1.9849  -20.7976  -45.8850 N.am      10 UNK        -0.5000 
     25 C           2.7074  -21.4345  -44.9541 C.2       9 UNK         0.5000 
     26 O           3.0363  -22.6180  -45.0437 O.2       9 UNK        -0.5000 
     27 CA          3.1600  -20.6255  -43.7200 C.3       9 UNK         0.1400 
     28 CB          4.6446  -20.2501  -43.8484 C.3       9 UNK        -0.1800 
     29 N           2.3871  -19.4046  -43.4898 N.am      9 UNK        -0.5000 
     30 C           1.1071  -19.3726  -43.0975 C.2       8 UNK         0.5000 
     31 O           0.4485  -20.3807  -42.8395 O.2       8 UNK        -0.5000 
     32 CA          0.4435  -17.9830  -43.0275 C.3       8 UNK         0.1400 
     33 CB          0.7510  -17.3057  -41.6842 C.3       8 UNK        -0.1800 
     34 N           0.8227  -17.0848  -44.1238 N.am      8 UNK        -0.5000 
     35 C           0.6863  -17.3529  -45.4318 C.2       7 UNK         0.5000 
     36 O           0.2866  -18.4249  -45.8764 O.2       7 UNK        -0.5000 
     37 CA          1.1336  -16.2597  -46.4118 C.3       7 UNK         0.1400 
     38 CB          0.1305  -15.0932  -46.4393 C.3       7 UNK        -0.1800 
     39 N           2.4812  -15.7974  -46.0763 N.am      7 UNK        -0.5000 
     40 C           3.5915  -16.4970  -46.3607 C.2       6 UNK         0.5000 
     41 O           3.6013  -17.4892  -47.0886 O.2       6 UNK        -0.5000 
     42 CA          4.9086  -16.0550  -45.6938 C.3       6 UNK         0.1400 
     43 CB          5.7913  -15.2484  -46.6570 C.3       6 UNK        -0.1800 
     44 N           4.6981  -15.2926  -44.4629 N.am      6 UNK        -0.5000 
     45 C           4.3337  -15.8474  -43.2979 C.2       5 UNK         0.5000 
     46 O           4.1502  -17.0551  -43.1478 O.2       5 UNK        -0.5000 
     47 CA          4.0872  -14.8936  -42.1133 C.3       5 UNK         0.1400 
     48 CB          5.3913  -14.6470  -41.3410 C.3       5 UNK        -0.1800 
     49 N           3.5098  -13.6077  -42.5084 N.am      5 UNK        -0.5000 
     50 C           2.3367  -13.4514  -43.1360 C.2       4 UNK         0.5000 
     51 O           1.6027  -14.3913  -43.4423 O.2       4 UNK        -0.5000 
     52 CA          1.9219  -12.0192  -43.5263 C.3       4 UNK         0.1400 
     53 CB          2.7163  -10.9149  -42.7942 C.3       4 UNK        -0.1800 
     54 N           1.9798  -11.8015  -44.9756 N.am      4 UNK        -0.5000 
     55 C           3.0351  -11.9688  -45.7896 C.2       3 UNK         0.5000 
     56 O           4.1140  -12.4369  -45.4233 O.2       3 UNK        -0.5000 
     57 CA          2.8680  -11.5285  -47.2601 C.3       3 UNK         0.1400 
     58 CB          2.8577  -12.7342  -48.2111 C.3       3 UNK        -0.1800 
     59 N           1.6600  -10.7342  -47.4968 N.am      3 UNK        -0.5000 
     60 C           1.5141   -9.4407  -47.1882 C.2       2 UNK         0.5000 
     61 O           2.3985   -8.7656  -46.6608 O.2       2 UNK        -0.5000 
     62 CA          0.1514   -8.7891  -47.4951 C.3       2 UNK         0.1400 
     63 CB          0.0853   -8.3060  -48.9564 C.3       2 UNK        -0.1800 
     64 N          -1.0237   -9.6027  -47.1460 N.am      2 UNK        -0.5000 
     65 C          -1.4725  -10.7437  -47.6940 C.2       1 UNK         0.5000 
     66 O          -0.8739  -11.3553  -48.5796 O.2       1 UNK        -0.5000 
     67 C          -2.2203  -23.7016  -45.6903 C.2       11 UNK         0.5000 
     68 O          -2.8436  -24.1928  -44.7476 O.2       11 UNK        -0.5000 
     69 N          -1.7080  -24.4423  -46.6795 N.am      12 UNK        -0.5000 
     70 CA         -1.8654  -25.8854  -46.8356 C.3       12 UNK         0.1400 
     71 CB         -0.7050  -26.4247  -47.6882 C.3       12 UNK        -0.1800 
     72 C          -3.2278  -26.1980  -47.4762 C.2       12 UNK         0.5000 
     73 O          -3.3750  -26.0616  -48.6917 O.2       12 UNK        -0.5000 
     74 N          -4.2053  -26.5941  -46.6491 N.am      13 UNK        -0.5000 
     75 CA         -5.5988  -26.8598  -47.0316 C.3       13 UNK         0.1400 
     76 CB         -6.3918  -27.2884  -45.7885 C.3       13 UNK        -0.1800 
     77 C          -5.7683  -27.8878  -48.1645 C.2       13 UNK         0.5000 
     78 O          -6.6204  -27.6977  -49.0331 O.2       13 UNK        -0.5000 
     79 N          -4.9148  -28.9200  -48.1686 N.am      14 UNK        -0.5000 
     80 CA         -4.8653  -29.9697  -49.1897 C.3       14 UNK         0.1400 
     81 CB         -3.9124  -31.0762  -48.7115 C.3       14 UNK        -0.1800 
     82 C          -4.4486  -29.4707  -50.5897 C.2       14 UNK         0.5000 
     83 O          -4.7339  -30.1499  -51.5766 O.2       14 UNK        -0.5000 
     84 N          -3.7918  -28.3053  -50.6541 N.am      15 UNK        -0.5000 
     85 CA         -3.3295  -27.6589  -51.8811 C.3       15 UNK         0.1400 
     86 CB         -1.8359  -27.3247  -51.7153 C.3       15 UNK        -0.1800 
     87 C          -4.1582  -26.4042  -52.2257 C.2       15 UNK         0.5000 
     88 O          -3.7544  -25.6620  -53.1187 O.2       15 UNK        -0.5000 
     89 N          -5.2866  -26.1895  -51.5276 N.am      16 UNK        -0.5000 
     90 CA         -6.1567  -25.0082  -51.5684 C.3       16 UNK         0.1400 
     91 CB         -6.7041  -24.7390  -52.9853 C.3       16 UNK        -0.1800 
     92 C          -5.4402  -23.7924  -50.9495 C.2       16 UNK         0.5000 
     93 O          -4.8259  -22.9955  -51.6631 O.2       16 UNK        -0.5000 
     94 N          -5.5156  -23.7248  -49.6123 N.am      17 UNK        -0.5000 
     95 CA         -4.7541  -22.8684  -48.6967 C.3       17 UNK         0.1400 
     96 CB         -5.3988  -22.9311  -47.3000 C.3       17 UNK        -0.1800 
     97 C          -4.5667  -21.4020  -49.1163 C.2       17 UNK         0.5000 
     98 O          -3.4437  -20.9098  -49.0724 O.2       17 UNK        -0.5000 
     99 N          -5.6645  -20.7354  -49.4865 N.am      18 UNK        -0.5000 
    100 CA        -5.6838  -19.3132  -49.8393 C.3       18 UNK         0.1400 
    101 CB        -6.8756  -18.6514  -49.1257 C.3       18 UNK        -0.1800 
    102 C         -5.7290  -19.0831  -51.3634 C.2       18 UNK         0.5000 
    103 O         -6.0181  -17.9651  -51.7939 O.2       18 UNK        -0.5000 
    104 N         -5.4734  -20.1326  -52.1539 N.am      19 UNK        -0.5000 
    105 CA        -5.4801  -20.1075  -53.6106 C.3       19 UNK         0.1400 
    106 CB        -6.7172  -20.8720  -54.1218 C.3       19 UNK        -0.1800 
    107 C         -4.1375  -20.6546  -54.1202 C.2       19 UNK         0.5000 
    108 O         -3.1179  -19.9813  -53.9661 O.2       19 UNK        -0.5000 
    109 N         -4.1485  -21.8469  -54.7310 N.am      20 UNK        -0.5000 
    110 CA        -2.9978  -22.4697  -55.3887 C.3       20 UNK         0.1400 
    111 CB        -3.4598  -23.7376  -56.1222 C.3       20 UNK        -0.1800 
    112 C         -1.8057  -22.7682  -54.4587 C.2       20 UNK         0.5000 
    113 O         -0.6657  -22.7525  -54.9281 O.2       20 UNK        -0.5000 
    114 N         -2.0662  -22.9861  -53.1613 N.am      21 UNK        -0.5000 
    115 CA        -1.0390  -23.2298  -52.1453 C.3       21 UNK         0.1400 
    116 CB        -1.7050  -23.6486  -50.8312 C.3       21 UNK        -0.1800 
    117 C         -0.1021  -22.0269  -51.9105 C.2       21 UNK         0.5000 
    118 O          1.0314  -22.2303  -51.4739 O.2       21 UNK        -0.5000 
    119 N         -0.5646  -20.8114  -52.2393 N.am      22 UNK        -0.5000 
    120 CA         0.2326  -19.5744  -52.2054 C.3       22 UNK         0.1400 
    121 C          1.3459  -19.4998  -53.2947 C.2       22 UNK         0.5000 
    122 N          1.3651  -20.3684  -54.3008 N.am      22 UNK        -0.7600 
    123 O          2.2138  -18.6342  -53.2236 O.2       22 UNK        -0.5000 
    124 C124       -0.6479  -18.2972  -52.2591 C.3       23 UNK        -0.0398 
    125 S125       -1.9994  -18.2670  -51.0347 S.3       23 UNK        -0.2404 
    126 C126       -1.2659  -17.3047  -49.6769 C.3       23 UNK        -0.0205 
    127 H127       -4.7193   -8.8882  -44.5928 H         1 UNK         0.0600 
    128 H128       -4.5533   -7.4670  -45.6280 H         1 UNK         0.0600 
    129 H129       -5.9891   -8.4892  -45.7528 H         1 UNK         0.0600 
    130 H130       -3.4671  -10.6032  -45.2752 H         1 UNK         0.3000 
    131 H131       -3.4377  -11.4803  -48.0268 H         1 UNK         0.0600 
    132 H132       -2.1171  -13.3892  -47.2006 H         1 UNK         0.0800 
    133 H133       -1.8736  -12.6124  -45.6587 H         1 UNK         0.0800 
    134 H134       -5.7423  -14.6383  -47.1506 H         1 UNK         0.0800 
    135 H135       -4.6023  -13.8240  -48.1876 H         1 UNK         0.0800 
    136 H136       -2.7490  -15.0784  -49.1007 H         1 UNK         0.1150 
    137 H137       -2.0471  -19.0995  -47.7982 H         1 UNK         0.1150 
    138 H138       -4.9656  -16.6811  -45.7976 H         1 UNK         0.1150 
    139 H139       -4.8090  -19.0129  -45.2475 H         1 UNK         0.0800 
    140 H140       -4.1109  -20.0523  -46.4634 H         1 UNK         0.0800 
    141 H141       -3.7232  -21.6950  -44.4823 H         1 UNK         0.0800 
    142 H142       -2.1980  -21.7382  -43.6365 H         1 UNK         0.0800 
    143 H143       -2.5367  -21.8452  -46.6665 H         1 UNK         0.0600 
    144 H144       -0.1583  -21.3099  -45.1830 H         1 UNK         0.3000 
    145 H145        2.1857  -22.2287  -47.4068 H         1 UNK         0.0600 
    146 H146        2.7142  -19.9424  -48.3018 H         1 UNK         0.0600 
    147 H147        1.4813  -20.7696  -49.2380 H         1 UNK         0.0600 
    148 H148        1.0187  -19.4933  -48.1261 H         1 UNK         0.0600 
    149 H149        1.6841  -19.8423  -45.7191 H         1 UNK         0.3000 
    150 H150        3.0446  -21.2704  -42.8465 H         1 UNK         0.0600 
    151 H151        5.2630  -21.1349  -44.0040 H         1 UNK         0.0600 
    152 H152        5.0060  -19.7573  -42.9456 H         1 UNK         0.0600 
    153 H153        4.8152  -19.5759  -44.6890 H         1 UNK         0.0600 
    154 H154        2.8786  -18.5255  -43.6192 H         1 UNK         0.3000 
    155 H155       -0.6355  -18.1259  -43.0887 H         1 UNK         0.0600 
    156 H156        0.2606  -16.3350  -41.6075 H         1 UNK         0.0600 
    157 H157        1.8213  -17.1539  -41.5484 H         1 UNK         0.0600 
    158 H158        0.3990  -17.9159  -40.8515 H         1 UNK         0.0600 
    159 H159        1.1544  -16.1620  -43.8545 H         1 UNK         0.3000 
    160 H160        1.1438  -16.7028  -47.4103 H         1 UNK         0.0600 
    161 H161        0.2529  -14.4139  -45.5980 H         1 UNK         0.0600 
    162 H162       -0.8952  -15.4630  -46.4060 H         1 UNK         0.0600 
    163 H163        0.2219  -14.5146  -47.3563 H         1 UNK         0.0600 
    164 H164        2.5481  -15.0327  -45.4191 H         1 UNK         0.3000 
    165 H165        5.4540  -16.9673  -45.4418 H         1 UNK         0.0600 
    166 H166        5.3660  -14.2719  -46.8774 H         1 UNK         0.0600 
    167 H167        6.7832  -15.0879  -46.2343 H         1 UNK         0.0600 
    168 H168        5.9234  -15.7736  -47.6038 H         1 UNK         0.0600 
    169 H169        4.7686  -14.2832  -44.5324 H         1 UNK         0.3000 
    170 H170        3.3802  -15.3787  -41.4386 H         1 UNK         0.0600 
    171 H171        5.8347  -15.5884  -41.0134 H         1 UNK         0.0600 
    172 H172        6.1312  -14.1313  -41.9545 H         1 UNK         0.0600 
    173 H173        5.2147  -14.0450  -40.4495 H         1 UNK         0.0600 
    174 H174        4.0662  -12.7859  -42.3235 H         1 UNK         0.3000 
    175 H175        0.8748  -11.9188  -43.2370 H         1 UNK         0.0600 
    176 H176        2.3117   -9.9298  -43.0274 H         1 UNK         0.0600 
    177 H177        2.6562  -11.0363  -41.7118 H         1 UNK         0.0600 
    178 H178        3.7705  -10.9076  -43.0733 H         1 UNK         0.0600 
    179 H179        1.1372  -11.4371  -45.3938 H         1 UNK         0.3000 
    180 H180        3.7364  -10.9154  -47.5099 H         1 UNK         0.0600 
    181 H181        2.0411  -13.4170  -47.9894 H         1 UNK         0.0600 
    182 H182        3.7853  -13.2995  -48.1433 H         1 UNK         0.0600 
    183 H183        2.7537  -12.4160  -49.2486 H         1 UNK         0.0600 
    184 H184        0.8766  -11.1962  -47.9523 H         1 UNK         0.3000 
    185 H185        0.0863   -7.9031  -46.8614 H         1 UNK         0.0600 
    186 H186       -0.8499   -7.7828  -49.1560 H         1 UNK         0.0600 
    187 H187        0.8986   -7.6123  -49.1732 H         1 UNK         0.0600 
    188 H188        0.1658   -9.1311  -49.6646 H         1 UNK         0.0600 
    189 H189       -1.5930   -9.2172  -46.4055 H         1 UNK         0.3000 
    190 H190       -1.2208  -23.9487  -47.4245 H         1 UNK         0.3000 
    191 H191       -1.8132  -26.3653  -45.8561 H         1 UNK         0.0600 
    192 H192        0.2533  -26.2590  -47.1957 H         1 UNK         0.0600 
    193 H193       -0.8061  -27.4982  -47.8527 H         1 UNK         0.0600 
    194 H194       -0.6622  -25.9454  -48.6664 H         1 UNK         0.0600 
    195 H195       -3.9999  -26.6495  -45.6613 H         1 UNK         0.3000 
    196 H196       -6.0274  -25.9261  -47.3949 H         1 UNK         0.0600 
    197 H197       -7.4371  -27.4782  -46.0365 H         1 UNK         0.0600 
    198 H198       -6.3774  -26.5108  -45.0245 H         1 UNK         0.0600 
    199 H199       -5.9877  -28.2005  -45.3477 H         1 UNK         0.0600 
    200 H200       -4.2373  -28.9821  -47.4228 H         1 UNK         0.3000 
    201 H201       -5.8667  -30.3953  -49.2816 H         1 UNK         0.0600 
    202 H202       -4.2404  -31.4969  -47.7607 H         1 UNK         0.0600 
    203 H203       -2.8958  -30.7026  -48.5821 H         1 UNK         0.0600 
    204 H204       -3.8718  -31.8959  -49.4302 H         1 UNK         0.0600 
    205 H205       -3.6312  -27.7790  -49.8016 H         1 UNK         0.3000 
    206 H206       -3.4267  -28.3358  -52.7318 H         1 UNK         0.0600 
    207 H207       -1.6632  -26.6718  -50.8602 H         1 UNK         0.0600 
    208 H208       -1.2479  -28.2300  -51.5639 H         1 UNK         0.0600 
    209 H209       -1.4369  -26.8251  -52.5989 H         1 UNK         0.0600 
    210 H210       -5.5222  -26.8673  -50.8136 H         1 UNK         0.3000 
    211 H211       -7.0152  -25.2454  -50.9380 H         1 UNK         0.0600 
    212 H212       -5.9346  -24.3833  -53.6704 H         1 UNK         0.0600 
    213 H213       -7.4879  -23.9824  -52.9532 H         1 UNK         0.0600 
    214 H214       -7.1429  -25.6394  -53.4150 H         1 UNK         0.0600 
    215 H215       -6.0571  -24.4434  -49.1576 H         1 UNK         0.3000 
    216 H216       -3.7557  -23.3016  -48.6218 H         1 UNK         0.0600 
    217 H217       -5.2456  -23.9005  -46.8320 H         1 UNK         0.0600 
    218 H218       -6.4718  -22.7410  -47.3417 H         1 UNK         0.0600 
    219 H219       -4.9697  -22.1937  -46.6235 H         1 UNK         0.0600 
    220 H220       -6.5461  -21.2260  -49.5253 H         1 UNK         0.3000 
    221 H221       -4.7771  -18.8220  -49.4810 H         1 UNK         0.0600 
    222 H222       -7.8275  -19.0554  -49.4719 H         1 UNK         0.0600 
    223 H223       -6.8174  -18.7998  -48.0471 H         1 UNK         0.0600 
    224 H224       -6.8897  -17.5746  -49.2989 H         1 UNK         0.0600 
    225 H225       -5.1954  -21.0140  -51.7325 H         1 UNK         0.3000 
    226 H226       -5.5451  -19.0823  -53.9803 H         1 UNK         0.0600 
    227 H227       -7.6352  -20.3855  -53.7920 H         1 UNK         0.0600 
    228 H228       -6.7441  -20.9004  -55.2119 H         1 UNK         0.0600 
    229 H229       -6.7412  -21.8971  -53.7550 H         1 UNK         0.0600 
    230 H230       -5.0203  -22.3523  -54.7800 H         1 UNK         0.3000 
    231 H231       -2.6381  -21.7643  -56.1405 H         1 UNK         0.0600 
    232 H232       -3.9096  -24.4569  -55.4385 H         1 UNK         0.0600 
    233 H233       -2.6226  -24.2327  -56.6157 H         1 UNK         0.0600 
    234 H234       -4.1957  -23.5019  -56.8911 H         1 UNK         0.0600 
    235 H235       -3.0313  -23.0034  -52.8479 H         1 UNK         0.3000 
    236 H236       -0.4282  -24.0649  -52.4939 H         1 UNK         0.0600 
    237 H237       -0.9637  -24.0222  -50.1259 H         1 UNK         0.0600 
    238 H238       -2.2085  -22.8053  -50.3638 H         1 UNK         0.0600 
    239 H239       -2.4392  -24.4373  -50.9769 H         1 UNK         0.0600 
    240 H240       -1.5040  -20.7223  -52.6074 H         1 UNK         0.3000 
    241 H241        0.7530  -19.5617  -51.2465 H         1 UNK         0.0600 
    242 H242        2.0944  -20.3062  -54.9934 H         1 UNK         0.3800 
    243 H243        0.6656  -21.0963  -54.3753 H         1 UNK         0.3800 
    244 H244       -0.0354  -17.4036  -52.1281 H         1 UNK         0.0800 
    245 H245       -1.1052  -18.2035  -53.2456 H         1 UNK         0.0800 
    246 H246       -0.3909  -17.8284  -49.2900 H         1 UNK         0.0800 
    247 H247       -0.9179  -16.3414  -50.0525 H         1 UNK         0.0800 
@<TRIPOS>BOND
     1    1    2 1    
     2    1  127 1    
     3    1  128 1    
     4    1  129 1    
     5    2    3 2    
     6    2    4 am   BACKBONE|DICT|INTERRES
     7    4    5 1    
     8    4  130 1    
     9    5    6 1    
    10    5   65 1    
    11    5  131 1    
    12    6    7 1    
    13    6  132 1    
    14    6  133 1    
    15    7    8 1    
    16    8    9 1    
    17    8  134 1    
    18    8  135 1    
    19    9   10 ar   
    20    9   14 ar   
    21   10   11 ar   
    22   10  136 1    
    23   11   12 ar   
    24   11  126 1    
    25   12   13 ar   
    26   12  137 1    
    27   13   14 ar   
    28   13   15 1    
    29   14  138 1    
    30   15   16 1    
    31   15  139 1    
    32   15  140 1    
    33   16   17 1    
    34   17   18 1    
    35   17  141 1    
    36   17  142 1    
    37   18   19 1    
    38   18   67 1    
    39   18  143 1    
    40   19   20 am   BACKBONE|DICT|INTERRES
    41   19  144 1    
    42   20   21 2    
    43   20   22 1    
    44   22   23 1    
    45   22   24 1    
    46   22  145 1    
    47   23  146 1    
    48   23  147 1    
    49   23  148 1    
    50   24   25 am   BACKBONE|DICT|INTERRES
    51   24  149 1    
    52   25   26 2    
    53   25   27 1    
    54   27   28 1    
    55   27   29 1    
    56   27  150 1    
    57   28  151 1    
    58   28  152 1    
    59   28  153 1    
    60   29   30 am   BACKBONE|DICT|INTERRES
    61   29  154 1    
    62   30   31 2    
    63   30   32 1    
    64   32   33 1    
    65   32   34 1    
    66   32  155 1    
    67   33  156 1    
    68   33  157 1    
    69   33  158 1    
    70   34   35 am   BACKBONE|DICT|INTERRES
    71   34  159 1    
    72   35   36 2    
    73   35   37 1    
    74   37   38 1    
    75   37   39 1    
    76   37  160 1    
    77   38  161 1    
    78   38  162 1    
    79   38  163 1    
    80   39   40 am   BACKBONE|DICT|INTERRES
    81   39  164 1    
    82   40   41 2    
    83   40   42 1    
    84   42   43 1    
    85   42   44 1    
    86   42  165 1    
    87   43  166 1    
    88   43  167 1    
    89   43  168 1    
    90   44   45 am   BACKBONE|DICT|INTERRES
    91   44  169 1    
    92   45   46 2    
    93   45   47 1    
    94   47   48 1    
    95   47   49 1    
    96   47  170 1    
    97   48  171 1    
    98   48  172 1    
    99   48  173 1    
   100   49   50 am   BACKBONE|DICT|INTERRES
   101   49  174 1    
   102   50   51 2    
   103   50   52 1    
   104   52   53 1    
   105   52   54 1    
   106   52  175 1    
   107   53  176 1    
   108   53  177 1    
   109   53  178 1    
   110   54   55 am   BACKBONE|DICT|INTERRES
   111   54  179 1    
   112   55   56 2    
   113   55   57 1    
   114   57   58 1    
   115   57   59 1    
   116   57  180 1    
   117   58  181 1    
   118   58  182 1    
   119   58  183 1    
   120   59   60 am   BACKBONE|DICT|INTERRES
   121   59  184 1    
   122   60   61 2    
   123   60   62 1    
   124   62   63 1    
   125   62   64 1    
   126   62  185 1    
   127   63  186 1    
   128   63  187 1    
   129   63  188 1    
   130   64   65 am   BACKBONE|DICT|INTERRES
   131   64  189 1    
   132   65   66 2    
   133   67   68 2    
   134   67   69 am   BACKBONE|DICT|INTERRES
   135   69   70 1    
   136   69  190 1    
   137   70   71 1    
   138   70   72 1    
   139   70  191 1    
   140   71  192 1    
   141   71  193 1    
   142   71  194 1    
   143   72   73 2    
   144   72   74 am   BACKBONE|DICT|INTERRES
   145   74   75 1    
   146   74  195 1    
   147   75   76 1    
   148   75   77 1    
   149   75  196 1    
   150   76  197 1    
   151   76  198 1    
   152   76  199 1    
   153   77   78 2    
   154   77   79 am   BACKBONE|DICT|INTERRES
   155   79   80 1    
   156   79  200 1    
   157   80   81 1    
   158   80   82 1    
   159   80  201 1    
   160   81  202 1    
   161   81  203 1    
   162   81  204 1    
   163   82   83 2    
   164   82   84 am   BACKBONE|DICT|INTERRES
   165   84   85 1    
   166   84  205 1    
   167   85   86 1    
   168   85   87 1    
   169   85  206 1    
   170   86  207 1    
   171   86  208 1    
   172   86  209 1    
   173   87   88 2    
   174   87   89 am   BACKBONE|DICT|INTERRES
   175   89   90 1    
   176   89  210 1    
   177   90   91 1    
   178   90   92 1    
   179   90  211 1    
   180   91  212 1    
   181   91  213 1    
   182   91  214 1    
   183   92   93 2    
   184   92   94 am   BACKBONE|DICT|INTERRES
   185   94   95 1    
   186   94  215 1    
   187   95   96 1    
   188   95   97 1    
   189   95  216 1    
   190   96  217 1    
   191   96  218 1    
   192   96  219 1    
   193   97   98 2    
   194   97   99 am   BACKBONE|DICT|INTERRES
   195   99  100 1    
   196   99  220 1    
   197  100  101 1    
   198  100  102 1    
   199  100  221 1    
   200  101  222 1    
   201  101  223 1    
   202  101  224 1    
   203  102  103 2    
   204  102  104 am   BACKBONE|DICT|INTERRES
   205  104  105 1    
   206  104  225 1    
   207  105  106 1    
   208  105  107 1    
   209  105  226 1    
   210  106  227 1    
   211  106  228 1    
   212  106  229 1    
   213  107  108 2    
   214  107  109 am   BACKBONE|DICT|INTERRES
   215  109  110 1    
   216  109  230 1    
   217  110  111 1    
   218  110  112 1    
   219  110  231 1    
   220  111  232 1    
   221  111  233 1    
   222  111  234 1    
   223  112  113 2    
   224  112  114 am   BACKBONE|DICT|INTERRES
   225  114  115 1    
   226  114  235 1    
   227  115  116 1    
   228  115  117 1    
   229  115  236 1    
   230  116  237 1    
   231  116  238 1    
   232  116  239 1    
   233  117  118 2    
   234  117  119 am   BACKBONE|DICT|INTERRES
   235  119  120 1    
   236  119  240 1    
   237  120  121 1    
   238  120  124 1    
   239  120  241 1    
   240  121  122 am   BACKBONE|DICT|INTERRES
   241  121  123 2    
   242  122  242 1    
   243  122  243 1    
   244  124  125 1    
   245  124  244 1    
   246  124  245 1    
   247  125  126 1    
   248  126  246 1    
   249  126  247 1    
@<TRIPOS>SUBSTRUCTURE
     1 UNK         1 GROUP             0       ****    0 ROOT    
