@<TRIPOS>MOLECULE
3R540
247   249    1
SMALL
USER_CHARGES


@<TRIPOS>ATOM
      1 CA         -1.1047  -18.0562  -49.4993 C.3       0 UNK        -0.1800 
      2 C          -1.1271  -16.5924  -49.8993 C.2       0 UNK         0.5000 
      3 O          -2.1974  -15.9958  -50.0074 O.2       0 UNK        -0.5000 
      4 N           0.0592  -16.0179  -50.1301 N.am      1 UNK        -0.5000 
      5 CA          0.2680  -14.6190  -50.5257 C.3       1 UNK         0.1400 
      6 C6          1.7091  -14.3820  -51.0462 C.3       23 UNK        -0.0398 
      7 S7          3.0254  -14.9535  -49.9062 S.3       23 UNK        -0.2404 
      8 C8          4.0172  -16.0540  -50.9687 C.3       23 UNK        -0.0205 
      9 C9          3.3906  -17.4325  -51.1300 C.ar      23 UNK        -0.0193 
     10 C10         2.5474  -17.7037  -52.2113 C.ar      23 UNK        -0.1150 
     11 C11         1.9750  -18.9692  -52.3699 C.ar      23 UNK        -0.0193 
     12 C12         2.2753  -19.9763  -51.4480 C.ar      23 UNK        -0.1150 
     13 C13         3.1441  -19.7309  -50.3791 C.ar      23 UNK        -0.0193 
     14 C14         3.6897  -18.4525  -50.2208 C.ar      23 UNK        -0.1150 
     15 C15         3.5153  -20.8618  -49.4228 C.3       23 UNK        -0.0205 
     16 S16         3.0890  -20.5176  -47.6831 S.3       23 UNK        -0.2404 
     17 C17         1.2946  -20.2393  -47.7926 C.3       23 UNK        -0.0398 
     18 CA          0.4336  -21.3447  -47.1368 C.3       11 UNK         0.1400 
     19 N           0.6328  -21.4730  -45.6848 N.am      11 UNK        -0.5000 
     20 C           0.0587  -22.4216  -44.9262 C.2       10 UNK         0.5000 
     21 O          -0.6353  -23.3277  -45.3840 O.2       10 UNK        -0.5000 
     22 CA          0.2112  -22.3096  -43.3980 C.3       10 UNK         0.1400 
     23 CB          1.5509  -22.8906  -42.9230 C.3       10 UNK        -0.1800 
     24 N           0.0505  -20.9357  -42.9223 N.am      10 UNK        -0.5000 
     25 C          -1.0931  -20.2396  -43.0079 C.2       9 UNK         0.5000 
     26 O          -2.1512  -20.7226  -43.4100 O.2       9 UNK        -0.5000 
     27 CA         -1.0378  -18.7425  -42.6428 C.3       9 UNK         0.1400 
     28 CB         -1.2738  -18.5293  -41.1415 C.3       9 UNK        -0.1800 
     29 N           0.2210  -18.1082  -43.0351 N.am      9 UNK        -0.5000 
     30 C           0.6580  -18.0037  -44.2979 C.2       8 UNK         0.5000 
     31 O           0.0147  -18.3958  -45.2694 O.2       8 UNK        -0.5000 
     32 CA          2.0794  -17.4448  -44.4954 C.3       8 UNK         0.1400 
     33 CB          2.1080  -15.9099  -44.4387 C.3       8 UNK        -0.1800 
     34 N           3.0043  -17.9783  -43.4971 N.am      8 UNK        -0.5000 
     35 C           3.4407  -19.2444  -43.4781 C.2       7 UNK         0.5000 
     36 O           3.1246  -20.0861  -44.3169 O.2       7 UNK        -0.5000 
     37 CA          4.3476  -19.6431  -42.2997 C.3       7 UNK         0.1400 
     38 CB          5.8036  -19.2380  -42.5739 C.3       7 UNK        -0.1800 
     39 N           3.9092  -19.0542  -41.0328 N.am      7 UNK        -0.5000 
     40 C           2.7719  -19.3832  -40.4045 C.2       6 UNK         0.5000 
     41 O           1.9932  -20.2446  -40.8108 O.2       6 UNK        -0.5000 
     42 CA          2.4225  -18.5849  -39.1342 C.3       6 UNK         0.1400 
     43 CB          3.0859  -19.2171  -37.9017 C.3       6 UNK        -0.1800 
     44 N           2.7819  -17.1644  -39.2049 N.am      6 UNK        -0.5000 
     45 C           2.3201  -16.3017  -40.1190 C.2       5 UNK         0.5000 
     46 O           1.5830  -16.6222  -41.0554 O.2       5 UNK        -0.5000 
     47 CA          2.7865  -14.8472  -39.9893 C.3       5 UNK         0.1400 
     48 CB          4.2239  -14.6836  -40.5112 C.3       5 UNK        -0.1800 
     49 N           1.8922  -14.0092  -40.7786 N.am      5 UNK        -0.5000 
     50 C           1.4641  -12.7863  -40.4536 C.2       4 UNK         0.5000 
     51 O           1.8204  -12.1879  -39.4375 O.2       4 UNK        -0.5000 
     52 CA          0.4836  -12.1024  -41.4285 C.3       4 UNK         0.1400 
     53 CB          1.1724  -10.9285  -42.1436 C.3       4 UNK        -0.1800 
     54 N          -0.0678  -13.0015  -42.4477 N.am      4 UNK        -0.5000 
     55 C          -1.0860  -13.8549  -42.2605 C.2       3 UNK         0.5000 
     56 O          -1.6406  -14.0196  -41.1738 O.2       3 UNK        -0.5000 
     57 CA         -1.5699  -14.6253  -43.5057 C.3       3 UNK         0.1400 
     58 CB         -3.0433  -15.0648  -43.4202 C.3       3 UNK        -0.1800 
     59 N          -1.3487  -13.8286  -44.7160 N.am      3 UNK        -0.5000 
     60 C          -0.9837  -14.3258  -45.9017 C.2       2 UNK         0.5000 
     61 O          -0.9119  -15.5326  -46.1428 O.2       2 UNK        -0.5000 
     62 CA         -0.5908  -13.3083  -46.9862 C.3       2 UNK         0.1400 
     63 CB          0.5700  -12.4027  -46.5243 C.3       2 UNK        -0.1800 
     64 N          -0.1935  -14.0538  -48.1733 N.am      2 UNK        -0.5000 
     65 C          -0.1154  -13.5979  -49.4273 C.2       1 UNK         0.5000 
     66 O          -0.3408  -12.4278  -49.7404 O.2       1 UNK        -0.5000 
     67 C          -1.0455  -21.0977  -47.4994 C.2       11 UNK         0.5000 
     68 O          -1.5273  -21.6636  -48.4787 O.2       11 UNK        -0.5000 
     69 N          -1.7282  -20.2563  -46.7099 N.am      12 UNK        -0.5000 
     70 CA         -3.1398  -19.9163  -46.8856 C.3       12 UNK         0.1400 
     71 CB         -3.4888  -18.7068  -46.0048 C.3       12 UNK        -0.1800 
     72 C          -4.0872  -21.0999  -46.6101 C.2       12 UNK         0.5000 
     73 O          -5.1415  -21.1826  -47.2385 O.2       12 UNK        -0.5000 
     74 N          -3.7013  -21.9887  -45.6848 N.am      13 UNK        -0.5000 
     75 CA         -4.4143  -23.2277  -45.3757 C.3       13 UNK         0.1400 
     76 CB         -4.0230  -23.6953  -43.9655 C.3       13 UNK        -0.1800 
     77 C          -4.1395  -24.3341  -46.4121 C.2       13 UNK         0.5000 
     78 O          -5.0610  -25.0633  -46.7836 O.2       13 UNK        -0.5000 
     79 N          -2.8798  -24.4430  -46.8538 N.am      14 UNK        -0.5000 
     80 CA         -2.4066  -25.3928  -47.8613 C.3       14 UNK         0.1400 
     81 CB         -0.8683  -25.3778  -47.8632 C.3       14 UNK        -0.1800 
     82 C          -2.9542  -25.1083  -49.2745 C.2       14 UNK         0.5000 
     83 O          -3.5867  -24.0768  -49.5087 O.2       14 UNK        -0.5000 
     84 N          -2.6911  -26.0451  -50.1986 N.am      15 UNK        -0.5000 
     85 CA         -3.0381  -25.9930  -51.6251 C.3       15 UNK         0.1400 
     86 CB         -2.1922  -24.9210  -52.3461 C.3       15 UNK        -0.1800 
     87 C          -4.5520  -25.8212  -51.8632 C.2       15 UNK         0.5000 
     88 O          -4.9581  -24.9810  -52.6665 O.2       15 UNK        -0.5000 
     89 N          -5.3527  -26.6008  -51.1194 N.am      16 UNK        -0.5000 
     90 CA         -6.8207  -26.5879  -51.0966 C.3       16 UNK         0.1400 
     91 CB         -7.3885  -27.1390  -52.4215 C.3       16 UNK        -0.1800 
     92 C          -7.3910  -25.2047  -50.7139 C.2       16 UNK         0.5000 
     93 O          -8.2875  -24.6939  -51.3872 O.2       16 UNK        -0.5000 
     94 N          -6.8293  -24.6265  -49.6413 N.am      17 UNK        -0.5000 
     95 CA         -7.0844  -23.2793  -49.1234 C.3       17 UNK         0.1400 
     96 CB         -8.5293  -23.1448  -48.5981 C.3       17 UNK        -0.1800 
     97 C          -6.6902  -22.1865  -50.1390 C.2       17 UNK         0.5000 
     98 O          -7.4942  -21.3054  -50.4509 O.2       17 UNK        -0.5000 
     99 N          -5.4512  -22.2913  -50.6408 N.am      18 UNK        -0.5000 
    100 CA        -4.7993  -21.4180  -51.6169 C.3       18 UNK         0.1400 
    101 CB        -4.4761  -20.0484  -50.9884 C.3       18 UNK        -0.1800 
    102 C         -5.5716  -21.3090  -52.9467 C.2       18 UNK         0.5000 
    103 O         -5.8154  -20.2051  -53.4380 O.2       18 UNK        -0.5000 
    104 N         -5.9116  -22.4633  -53.5387 N.am      19 UNK        -0.5000 
    105 CA        -6.5804  -22.5727  -54.8418 C.3       19 UNK         0.1400 
    106 CB        -7.0154  -24.0274  -55.0698 C.3       19 UNK        -0.1800 
    107 C         -5.7210  -22.0664  -56.0204 C.2       19 UNK         0.5000 
    108 O         -6.2638  -21.7469  -57.0783 O.2       19 UNK        -0.5000 
    109 N         -4.4033  -21.9577  -55.7994 N.am      20 UNK        -0.5000 
    110 CA        -3.4323  -21.3059  -56.6797 C.3       20 UNK         0.1400 
    111 CB        -2.0215  -21.7232  -56.2319 C.3       20 UNK        -0.1800 
    112 C         -3.5525  -19.7645  -56.7072 C.2       20 UNK         0.5000 
    113 O         -2.8575  -19.1278  -57.5001 O.2       20 UNK        -0.5000 
    114 N         -4.3905  -19.1870  -55.8313 N.am      21 UNK        -0.5000 
    115 CA        -4.6918  -17.7652  -55.6197 C.3       21 UNK         0.1400 
    116 CB        -5.1838  -17.0789  -56.9084 C.3       21 UNK        -0.1800 
    117 C         -3.5508  -16.9739  -54.9552 C.2       21 UNK         0.5000 
    118 O         -3.8227  -16.1736  -54.0601 O.2       21 UNK        -0.5000 
    119 N         -2.3064  -17.2245  -55.3806 N.am      22 UNK        -0.5000 
    120 CA        -1.0579  -16.6863  -54.8111 C.3       22 UNK         0.1400 
    121 C         -0.8683  -15.1444  -54.9625 C.2       22 UNK         0.5000 
    122 N         -1.5862  -14.4753  -55.8561 N.am      22 UNK        -0.7600 
    123 O         -0.0351  -14.5460  -54.2869 O.2       22 UNK        -0.5000 
    124 C124       -0.8108  -17.1744  -53.3563 C.3       23 UNK        -0.0398 
    125 S125       -0.6886  -18.9910  -53.2134 S.3       23 UNK        -0.2404 
    126 C126        1.0782  -19.2692  -53.5646 C.3       23 UNK        -0.0205 
    127 H127       -2.0140  -18.5577  -49.8284 H         1 UNK         0.0600 
    128 H128       -1.0325  -18.1392  -48.4155 H         1 UNK         0.0600 
    129 H129       -0.2577  -18.5707  -49.9523 H         1 UNK         0.0600 
    130 H130        0.9063  -16.5581  -50.0185 H         1 UNK         0.3000 
    131 H131       -0.4087  -14.4235  -51.3605 H         1 UNK         0.0600 
    132 H132        1.8734  -13.3245  -51.2609 H         1 UNK         0.0800 
    133 H133        1.8217  -14.8810  -52.0079 H         1 UNK         0.0800 
    134 H134        4.1736  -15.5870  -51.9423 H         1 UNK         0.0800 
    135 H135        5.0091  -16.1578  -50.5264 H         1 UNK         0.0800 
    136 H136        2.3481  -16.9318  -52.9400 H         1 UNK         0.1150 
    137 H137        1.8478  -20.9605  -51.5791 H         1 UNK         0.1150 
    138 H138        4.3586  -18.2564  -49.3944 H         1 UNK         0.1150 
    139 H139        3.0339  -21.7946  -49.7205 H         1 UNK         0.0800 
    140 H140        4.5894  -21.0386  -49.4906 H         1 UNK         0.0800 
    141 H141        1.0255  -20.1511  -48.8445 H         1 UNK         0.0800 
    142 H142        1.0845  -19.2635  -47.3576 H         1 UNK         0.0800 
    143 H143        0.7191  -22.2987  -47.5846 H         1 UNK         0.0600 
    144 H144        1.2199  -20.7754  -45.2429 H         1 UNK         0.3000 
    145 H145       -0.5838  -22.9065  -42.9458 H         1 UNK         0.0600 
    146 H146        1.6313  -22.8581  -41.8364 H         1 UNK         0.0600 
    147 H147        2.4009  -22.3513  -43.3375 H         1 UNK         0.0600 
    148 H148        1.6490  -23.9339  -43.2251 H         1 UNK         0.0600 
    149 H149        0.8645  -20.4948  -42.5088 H         1 UNK         0.3000 
    150 H150       -1.8402  -18.2391  -43.1854 H         1 UNK         0.0600 
    151 H151       -2.2366  -18.9407  -40.8366 H         1 UNK         0.0600 
    152 H152       -1.2769  -17.4684  -40.8893 H         1 UNK         0.0600 
    153 H153       -0.5044  -19.0148  -40.5418 H         1 UNK         0.0600 
    154 H154        0.7965  -17.7300  -42.2860 H         1 UNK         0.3000 
    155 H155        2.4293  -17.7533  -45.4833 H         1 UNK         0.0600 
    156 H156        1.5928  -15.4866  -45.2988 H         1 UNK         0.0600 
    157 H157        3.1298  -15.5311  -44.4657 H         1 UNK         0.0600 
    158 H158        1.6307  -15.5234  -43.5390 H         1 UNK         0.0600 
    159 H159        3.2556  -17.3666  -42.7354 H         1 UNK         0.3000 
    160 H160        4.3083  -20.7303  -42.2026 H         1 UNK         0.0600 
    161 H161        5.9142  -18.1560  -42.6552 H         1 UNK         0.0600 
    162 H162        6.1602  -19.6757  -43.5074 H         1 UNK         0.0600 
    163 H163        6.4653  -19.5848  -41.7800 H         1 UNK         0.0600 
    164 H164        4.4937  -18.3365  -40.6307 H         1 UNK         0.3000 
    165 H165        1.3405  -18.6413  -39.0010 H         1 UNK         0.0600 
    166 H166        2.7648  -18.7242  -36.9839 H         1 UNK         0.0600 
    167 H167        2.8196  -20.2713  -37.8124 H         1 UNK         0.0600 
    168 H168        4.1737  -19.1566  -37.9534 H         1 UNK         0.0600 
    169 H169        3.3943  -16.8229  -38.4780 H         1 UNK         0.3000 
    170 H170        2.7390  -14.5649  -38.9355 H         1 UNK         0.0600 
    171 H171        4.3076  -14.9771  -41.5586 H         1 UNK         0.0600 
    172 H172        4.5556  -13.6484  -40.4282 H         1 UNK         0.0600 
    173 H173        4.9242  -15.2939  -39.9399 H         1 UNK         0.0600 
    174 H174        1.4844  -14.4729  -41.5780 H         1 UNK         0.3000 
    175 H175       -0.3392  -11.7017  -40.8326 H         1 UNK         0.0600 
    176 H176        2.0070  -11.2660  -42.7594 H         1 UNK         0.0600 
    177 H177        0.4740  -10.3935  -42.7874 H         1 UNK         0.0600 
    178 H178        1.5653  -10.2075  -41.4255 H         1 UNK         0.0600 
    179 H179        0.3579  -12.9499  -43.3610 H         1 UNK         0.3000 
    180 H180       -0.9550  -15.5254  -43.5498 H         1 UNK         0.0600 
    181 H181       -3.7129  -14.2073  -43.3484 H         1 UNK         0.0600 
    182 H182       -3.2159  -15.6962  -42.5477 H         1 UNK         0.0600 
    183 H183       -3.3314  -15.6447  -44.2974 H         1 UNK         0.0600 
    184 H184       -1.4295  -12.8273  -44.6021 H         1 UNK         0.3000 
    185 H185       -1.4679  -12.7019  -47.2198 H         1 UNK         0.0600 
    186 H186        1.4472  -12.9880  -46.2453 H         1 UNK         0.0600 
    187 H187        0.8714  -11.7103  -47.3104 H         1 UNK         0.0600 
    188 H188        0.2878  -11.7970  -45.6629 H         1 UNK         0.0600 
    189 H189       -0.0647  -15.0440  -48.0018 H         1 UNK         0.3000 
    190 H190       -1.2274  -19.7711  -45.9711 H         1 UNK         0.3000 
    191 H191       -3.2807  -19.6189  -47.9250 H         1 UNK         0.0600 
    192 H192       -2.8267  -17.8640  -46.2080 H         1 UNK         0.0600 
    193 H193       -3.4136  -18.9438  -44.9443 H         1 UNK         0.0600 
    194 H194       -4.5096  -18.3723  -46.1925 H         1 UNK         0.0600 
    195 H195       -2.8527  -21.8037  -45.1633 H         1 UNK         0.3000 
    196 H196       -5.4875  -23.0254  -45.3783 H         1 UNK         0.0600 
    197 H197       -4.2676  -22.9394  -43.2188 H         1 UNK         0.0600 
    198 H198       -2.9551  -23.9032  -43.8907 H         1 UNK         0.0600 
    199 H199       -4.5562  -24.6072  -43.6942 H         1 UNK         0.0600 
    200 H200       -2.1768  -23.8195  -46.4699 H         1 UNK         0.3000 
    201 H201       -2.7448  -26.3883  -47.5673 H         1 UNK         0.0600 
    202 H202       -0.4710  -25.6193  -46.8773 H         1 UNK         0.0600 
    203 H203       -0.4810  -24.3997  -48.1502 H         1 UNK         0.0600 
    204 H204       -0.4585  -26.1099  -48.5594 H         1 UNK         0.0600 
    205 H205       -2.1793  -26.8675  -49.9107 H         1 UNK         0.3000 
    206 H206       -2.7717  -26.9622  -52.0488 H         1 UNK         0.0600 
    207 H207       -1.1268  -25.0943  -52.1952 H         1 UNK         0.0600 
    208 H208       -2.4197  -23.9163  -51.9896 H         1 UNK         0.0600 
    209 H209       -2.3732  -24.9356  -53.4216 H         1 UNK         0.0600 
    210 H210       -4.9122  -27.2404  -50.4733 H         1 UNK         0.3000 
    211 H211       -7.1254  -27.2707  -50.3022 H         1 UNK         0.0600 
    212 H212       -7.1305  -26.5056  -53.2697 H         1 UNK         0.0600 
    213 H213       -8.4762  -27.2083  -52.3831 H         1 UNK         0.0600 
    214 H214       -7.0078  -28.1396  -52.6254 H         1 UNK         0.0600 
    215 H215       -6.0791  -25.1196  -49.1760 H         1 UNK         0.3000 
    216 H216       -6.4196  -23.1604  -48.2691 H         1 UNK         0.0600 
    217 H217       -9.2649  -23.2097  -49.4000 H         1 UNK         0.0600 
    218 H218       -8.6713  -22.1836  -48.1029 H         1 UNK         0.0600 
    219 H219       -8.7567  -23.9221  -47.8686 H         1 UNK         0.0600 
    220 H220       -4.8603  -23.0413  -50.2831 H         1 UNK         0.3000 
    221 H221       -3.8483  -21.8944  -51.8575 H         1 UNK         0.0600 
    222 H222       -5.3792  -19.5015  -50.7163 H         1 UNK         0.0600 
    223 H223       -3.8733  -20.1723  -50.0902 H         1 UNK         0.0600 
    224 H224       -3.9057  -19.4235  -51.6772 H         1 UNK         0.0600 
    225 H225       -5.6534  -23.3434  -53.0937 H         1 UNK         0.3000 
    226 H226       -7.4781  -21.9523  -54.8063 H         1 UNK         0.0600 
    227 H227       -7.6788  -24.3655  -54.2737 H         1 UNK         0.0600 
    228 H228       -7.5571  -24.1320  -56.0106 H         1 UNK         0.0600 
    229 H229       -6.1597  -24.7025  -55.1060 H         1 UNK         0.0600 
    230 H230       -4.0564  -22.2705  -54.9049 H         1 UNK         0.3000 
    231 H231       -3.5936  -21.6647  -57.6981 H         1 UNK         0.0600 
    232 H232       -1.2596  -21.3022  -56.8893 H         1 UNK         0.0600 
    233 H233       -1.9036  -22.8067  -56.2545 H         1 UNK         0.0600 
    234 H234       -1.8038  -21.3819  -55.2188 H         1 UNK         0.0600 
    235 H235       -4.8695  -19.7966  -55.1768 H         1 UNK         0.3000 
    236 H236       -5.5239  -17.7550  -54.9137 H         1 UNK         0.0600 
    237 H237       -4.3981  -17.0020  -57.6601 H         1 UNK         0.0600 
    238 H238       -6.0193  -17.6224  -57.3495 H         1 UNK         0.0600 
    239 H239       -5.5294  -16.0661  -56.6982 H         1 UNK         0.0600 
    240 H240       -2.2046  -17.8800  -56.1489 H         1 UNK         0.3000 
    241 H241       -0.2626  -17.1056  -55.4273 H         1 UNK         0.0600 
    242 H242       -1.4513  -13.4817  -55.9573 H         1 UNK         0.3800 
    243 H243       -2.2682  -14.9508  -56.4249 H         1 UNK         0.3800 
    244 H244       -1.6231  -16.8385  -52.7125 H         1 UNK         0.0800 
    245 H245        0.0915  -16.7323  -52.9397 H         1 UNK         0.0800 
    246 H246        1.3827  -18.6738  -54.4262 H         1 UNK         0.0800 
    247 H247        1.2085  -20.3105  -53.8631 H         1 UNK         0.0800 
@<TRIPOS>BOND
     1    1    2 1    
     2    1  127 1    
     3    1  128 1    
     4    1  129 1    
     5    2    3 2    
     6    2    4 am   BACKBONE|DICT|INTERRES
     7    4    5 1    
     8    4  130 1    
     9    5    6 1    
    10    5   65 1    
    11    5  131 1    
    12    6    7 1    
    13    6  132 1    
    14    6  133 1    
    15    7    8 1    
    16    8    9 1    
    17    8  134 1    
    18    8  135 1    
    19    9   10 ar   
    20    9   14 ar   
    21   10   11 ar   
    22   10  136 1    
    23   11   12 ar   
    24   11  126 1    
    25   12   13 ar   
    26   12  137 1    
    27   13   14 ar   
    28   13   15 1    
    29   14  138 1    
    30   15   16 1    
    31   15  139 1    
    32   15  140 1    
    33   16   17 1    
    34   17   18 1    
    35   17  141 1    
    36   17  142 1    
    37   18   19 1    
    38   18   67 1    
    39   18  143 1    
    40   19   20 am   BACKBONE|DICT|INTERRES
    41   19  144 1    
    42   20   21 2    
    43   20   22 1    
    44   22   23 1    
    45   22   24 1    
    46   22  145 1    
    47   23  146 1    
    48   23  147 1    
    49   23  148 1    
    50   24   25 am   BACKBONE|DICT|INTERRES
    51   24  149 1    
    52   25   26 2    
    53   25   27 1    
    54   27   28 1    
    55   27   29 1    
    56   27  150 1    
    57   28  151 1    
    58   28  152 1    
    59   28  153 1    
    60   29   30 am   BACKBONE|DICT|INTERRES
    61   29  154 1    
    62   30   31 2    
    63   30   32 1    
    64   32   33 1    
    65   32   34 1    
    66   32  155 1    
    67   33  156 1    
    68   33  157 1    
    69   33  158 1    
    70   34   35 am   BACKBONE|DICT|INTERRES
    71   34  159 1    
    72   35   36 2    
    73   35   37 1    
    74   37   38 1    
    75   37   39 1    
    76   37  160 1    
    77   38  161 1    
    78   38  162 1    
    79   38  163 1    
    80   39   40 am   BACKBONE|DICT|INTERRES
    81   39  164 1    
    82   40   41 2    
    83   40   42 1    
    84   42   43 1    
    85   42   44 1    
    86   42  165 1    
    87   43  166 1    
    88   43  167 1    
    89   43  168 1    
    90   44   45 am   BACKBONE|DICT|INTERRES
    91   44  169 1    
    92   45   46 2    
    93   45   47 1    
    94   47   48 1    
    95   47   49 1    
    96   47  170 1    
    97   48  171 1    
    98   48  172 1    
    99   48  173 1    
   100   49   50 am   BACKBONE|DICT|INTERRES
   101   49  174 1    
   102   50   51 2    
   103   50   52 1    
   104   52   53 1    
   105   52   54 1    
   106   52  175 1    
   107   53  176 1    
   108   53  177 1    
   109   53  178 1    
   110   54   55 am   BACKBONE|DICT|INTERRES
   111   54  179 1    
   112   55   56 2    
   113   55   57 1    
   114   57   58 1    
   115   57   59 1    
   116   57  180 1    
   117   58  181 1    
   118   58  182 1    
   119   58  183 1    
   120   59   60 am   BACKBONE|DICT|INTERRES
   121   59  184 1    
   122   60   61 2    
   123   60   62 1    
   124   62   63 1    
   125   62   64 1    
   126   62  185 1    
   127   63  186 1    
   128   63  187 1    
   129   63  188 1    
   130   64   65 am   BACKBONE|DICT|INTERRES
   131   64  189 1    
   132   65   66 2    
   133   67   68 2    
   134   67   69 am   BACKBONE|DICT|INTERRES
   135   69   70 1    
   136   69  190 1    
   137   70   71 1    
   138   70   72 1    
   139   70  191 1    
   140   71  192 1    
   141   71  193 1    
   142   71  194 1    
   143   72   73 2    
   144   72   74 am   BACKBONE|DICT|INTERRES
   145   74   75 1    
   146   74  195 1    
   147   75   76 1    
   148   75   77 1    
   149   75  196 1    
   150   76  197 1    
   151   76  198 1    
   152   76  199 1    
   153   77   78 2    
   154   77   79 am   BACKBONE|DICT|INTERRES
   155   79   80 1    
   156   79  200 1    
   157   80   81 1    
   158   80   82 1    
   159   80  201 1    
   160   81  202 1    
   161   81  203 1    
   162   81  204 1    
   163   82   83 2    
   164   82   84 am   BACKBONE|DICT|INTERRES
   165   84   85 1    
   166   84  205 1    
   167   85   86 1    
   168   85   87 1    
   169   85  206 1    
   170   86  207 1    
   171   86  208 1    
   172   86  209 1    
   173   87   88 2    
   174   87   89 am   BACKBONE|DICT|INTERRES
   175   89   90 1    
   176   89  210 1    
   177   90   91 1    
   178   90   92 1    
   179   90  211 1    
   180   91  212 1    
   181   91  213 1    
   182   91  214 1    
   183   92   93 2    
   184   92   94 am   BACKBONE|DICT|INTERRES
   185   94   95 1    
   186   94  215 1    
   187   95   96 1    
   188   95   97 1    
   189   95  216 1    
   190   96  217 1    
   191   96  218 1    
   192   96  219 1    
   193   97   98 2    
   194   97   99 am   BACKBONE|DICT|INTERRES
   195   99  100 1    
   196   99  220 1    
   197  100  101 1    
   198  100  102 1    
   199  100  221 1    
   200  101  222 1    
   201  101  223 1    
   202  101  224 1    
   203  102  103 2    
   204  102  104 am   BACKBONE|DICT|INTERRES
   205  104  105 1    
   206  104  225 1    
   207  105  106 1    
   208  105  107 1    
   209  105  226 1    
   210  106  227 1    
   211  106  228 1    
   212  106  229 1    
   213  107  108 2    
   214  107  109 am   BACKBONE|DICT|INTERRES
   215  109  110 1    
   216  109  230 1    
   217  110  111 1    
   218  110  112 1    
   219  110  231 1    
   220  111  232 1    
   221  111  233 1    
   222  111  234 1    
   223  112  113 2    
   224  112  114 am   BACKBONE|DICT|INTERRES
   225  114  115 1    
   226  114  235 1    
   227  115  116 1    
   228  115  117 1    
   229  115  236 1    
   230  116  237 1    
   231  116  238 1    
   232  116  239 1    
   233  117  118 2    
   234  117  119 am   BACKBONE|DICT|INTERRES
   235  119  120 1    
   236  119  240 1    
   237  120  121 1    
   238  120  124 1    
   239  120  241 1    
   240  121  122 am   BACKBONE|DICT|INTERRES
   241  121  123 2    
   242  122  242 1    
   243  122  243 1    
   244  124  125 1    
   245  124  244 1    
   246  124  245 1    
   247  125  126 1    
   248  126  246 1    
   249  126  247 1    
@<TRIPOS>SUBSTRUCTURE
     1 UNK         1 GROUP             0       ****    0 ROOT    
