@<TRIPOS>MOLECULE
3R540
247   249    1
SMALL
USER_CHARGES


@<TRIPOS>ATOM
      1 CA          0.4159  -10.1539  -51.3096 C.3       0 UNK        -0.1800 
      2 C           0.6226  -11.0685  -50.1114 C.2       0 UNK         0.5000 
      3 O           1.0662  -10.6094  -49.0590 O.2       0 UNK        -0.5000 
      4 N           0.2857  -12.3575  -50.2581 N.am      1 UNK        -0.5000 
      5 CA          0.4587  -13.4101  -49.2435 C.3       1 UNK         0.1400 
      6 C6          0.1269  -14.8148  -49.7986 C.3       23 UNK        -0.0398 
      7 S7          1.2003  -15.2783  -51.2000 S.3       23 UNK        -0.2404 
      8 C8          0.1634  -16.5024  -52.0612 C.3       23 UNK        -0.0205 
      9 C9         -0.1386  -17.7083  -51.1852 C.ar      23 UNK        -0.0193 
     10 C10        -1.3941  -17.8514  -50.5966 C.ar      23 UNK        -0.1150 
     11 C11        -1.6931  -18.9704  -49.8180 C.ar      23 UNK        -0.0193 
     12 C12        -0.7123  -19.9469  -49.6106 C.ar      23 UNK        -0.1150 
     13 C13         0.5666  -19.8060  -50.1749 C.ar      23 UNK        -0.0193 
     14 C14         0.8343  -18.6844  -50.9661 C.ar      23 UNK        -0.1150 
     15 C15         1.7111  -20.8010  -49.9610 C.3       23 UNK        -0.0205 
     16 S16         1.2608  -22.4372  -49.2991 S.3       23 UNK        -0.2404 
     17 C17         1.1466  -22.0558  -47.5149 C.3       23 UNK        -0.0398 
     18 CA          0.5581  -23.1937  -46.6478 C.3       11 UNK         0.1400 
     19 N           0.4429  -22.7893  -45.2468 N.am      11 UNK        -0.5000 
     20 C           0.1296  -23.6038  -44.2303 C.2       10 UNK         0.5000 
     21 O          -0.0450  -24.8158  -44.3526 O.2       10 UNK        -0.5000 
     22 CA         -0.0829  -22.9388  -42.8582 C.3       10 UNK         0.1400 
     23 CB          1.2600  -22.6264  -42.1815 C.3       10 UNK        -0.1800 
     24 N          -0.8862  -21.7185  -42.9550 N.am      10 UNK        -0.5000 
     25 C          -2.1631  -21.6916  -43.3648 C.2       9 UNK         0.5000 
     26 O          -2.8136  -22.7017  -43.6373 O.2       9 UNK        -0.5000 
     27 CA         -2.8096  -20.3053  -43.5407 C.3       9 UNK         0.1400 
     28 CB         -3.2998  -19.7614  -42.1908 C.3       9 UNK        -0.1800 
     29 N          -1.9181  -19.3301  -44.1742 N.am      9 UNK        -0.5000 
     30 C          -1.4268  -19.4441  -45.4167 C.2       8 UNK         0.5000 
     31 O          -1.6915  -20.3803  -46.1654 O.2       8 UNK        -0.5000 
     32 CA         -0.4213  -18.3770  -45.8849 C.3       8 UNK         0.1400 
     33 CB         -1.1303  -17.0757  -46.2859 C.3       8 UNK        -0.1800 
     34 N           0.5964  -18.1020  -44.8727 N.am      8 UNK        -0.5000 
     35 C           1.4693  -19.0080  -44.4091 C.2       7 UNK         0.5000 
     36 O           1.5544  -20.1598  -44.8347 O.2       7 UNK        -0.5000 
     37 CA          2.3582  -18.5693  -43.2350 C.3       7 UNK         0.1400 
     38 CB          3.5924  -17.8037  -43.7348 C.3       7 UNK        -0.1800 
     39 N           1.6161  -17.7481  -42.2788 N.am      7 UNK        -0.5000 
     40 C           0.6760  -18.2224  -41.4495 C.2       6 UNK         0.5000 
     41 O           0.3644  -19.4118  -41.3785 O.2       6 UNK        -0.5000 
     42 CA         -0.0645  -17.1869  -40.5821 C.3       6 UNK         0.1400 
     43 CB          0.7598  -16.8342  -39.3350 C.3       6 UNK        -0.1800 
     44 N          -0.3880  -15.9606  -41.3148 N.am      6 UNK        -0.5000 
     45 C          -1.2652  -15.9004  -42.3262 C.2       5 UNK         0.5000 
     46 O          -1.9086  -16.8687  -42.7261 O.2       5 UNK        -0.5000 
     47 CA         -1.4321  -14.5447  -43.0376 C.3       5 UNK         0.1400 
     48 CB         -2.4895  -13.6951  -42.3172 C.3       5 UNK        -0.1800 
     49 N          -0.2014  -13.7620  -43.1866 N.am      5 UNK        -0.5000 
     50 C           0.9474  -14.1914  -43.7298 C.2       4 UNK         0.5000 
     51 O           1.1498  -15.3579  -44.0699 O.2       4 UNK        -0.5000 
     52 CA          2.0245  -13.1174  -43.9527 C.3       4 UNK         0.1400 
     53 CB          3.2653  -13.6557  -44.6876 C.3       4 UNK        -0.1800 
     54 N           1.4359  -12.0394  -44.7403 N.am      4 UNK        -0.5000 
     55 C           1.3928  -10.7451  -44.3993 C.2       3 UNK         0.5000 
     56 O           1.9072  -10.2929  -43.3759 O.2       3 UNK        -0.5000 
     57 CA          0.6393   -9.7887  -45.3491 C.3       3 UNK         0.1400 
     58 CB          1.6347   -8.9735  -46.1883 C.3       3 UNK        -0.1800 
     59 N          -0.2918  -10.4788  -46.2463 N.am      3 UNK        -0.5000 
     60 C          -1.4387  -11.0542  -45.8516 C.2       2 UNK         0.5000 
     61 O          -1.8763  -10.9673  -44.7045 O.2       2 UNK        -0.5000 
     62 CA         -2.2146  -11.8965  -46.8880 C.3       2 UNK         0.1400 
     63 CB         -3.4218  -11.1131  -47.4250 C.3       2 UNK        -0.1800 
     64 N          -1.4058  -12.3525  -48.0216 N.am      2 UNK        -0.5000 
     65 C          -0.3303  -13.1499  -47.9417 C.2       1 UNK         0.5000 
     66 O           0.0762  -13.6305  -46.8851 O.2       1 UNK        -0.5000 
     67 C          -0.7782  -23.7392  -47.1947 C.2       11 UNK         0.5000 
     68 O          -0.7728  -24.7951  -47.8278 O.2       11 UNK        -0.5000 
     69 N          -1.8909  -23.0424  -46.9233 N.am      12 UNK        -0.5000 
     70 CA         -3.2461  -23.4248  -47.3262 C.3       12 UNK         0.1400 
     71 CB         -4.2478  -22.3424  -46.8975 C.3       12 UNK        -0.1800 
     72 C          -3.6751  -24.7951  -46.7762 C.2       12 UNK         0.5000 
     73 O          -4.2880  -25.5776  -47.5028 O.2       12 UNK        -0.5000 
     74 N          -3.3182  -25.0667  -45.5139 N.am      13 UNK        -0.5000 
     75 CA         -3.5214  -26.3579  -44.8613 C.3       13 UNK         0.1400 
     76 CB         -3.2932  -26.2019  -43.3501 C.3       13 UNK        -0.1800 
     77 C          -2.6178  -27.4638  -45.4404 C.2       13 UNK         0.5000 
     78 O          -3.0652  -28.6045  -45.5659 O.2       13 UNK        -0.5000 
     79 N          -1.3677  -27.1128  -45.7715 N.am      14 UNK        -0.5000 
     80 CA         -0.3597  -28.0308  -46.2963 C.3       14 UNK         0.1400 
     81 CB          1.0366  -27.4051  -46.1511 C.3       14 UNK        -0.1800 
     82 C          -0.6152  -28.4589  -47.7524 C.2       14 UNK         0.5000 
     83 O          -0.5800  -29.6579  -48.0352 O.2       14 UNK        -0.5000 
     84 N          -0.8369  -27.4899  -48.6521 N.am      15 UNK        -0.5000 
     85 CA         -0.9279  -27.7344  -50.0964 C.3       15 UNK         0.1400 
     86 CB          0.4805  -27.9797  -50.6755 C.3       15 UNK        -0.1800 
     87 C          -1.6255  -26.6205  -50.8965 C.2       15 UNK         0.5000 
     88 O          -2.1637  -26.9209  -51.9628 O.2       15 UNK        -0.5000 
     89 N          -1.5864  -25.3701  -50.4094 N.am      16 UNK        -0.5000 
     90 CA         -2.0603  -24.1502  -51.0788 C.3       16 UNK         0.1400 
     91 CB         -3.5968  -24.1687  -51.2336 C.3       16 UNK        -0.1800 
     92 C          -1.3207  -23.8985  -52.4124 C.2       16 UNK         0.5000 
     93 O          -1.9502  -23.7255  -53.4574 O.2       16 UNK        -0.5000 
     94 N           0.0176  -23.9264  -52.3588 N.am      17 UNK        -0.5000 
     95 CA          0.9046  -23.7108  -53.5022 C.3       17 UNK         0.1400 
     96 CB          2.3432  -24.0617  -53.0889 C.3       17 UNK        -0.1800 
     97 C           0.8049  -22.2629  -54.0201 C.2       17 UNK         0.5000 
     98 O           1.2130  -21.3441  -53.3104 O.2       17 UNK        -0.5000 
     99 N           0.2476  -22.0930  -55.2299 N.am      18 UNK        -0.5000 
    100 CA        -0.0954  -20.8110  -55.8650 C.3       18 UNK         0.1400 
    101 CB         1.1752  -20.0101  -56.2222 C.3       18 UNK        -0.1800 
    102 C         -1.1056  -20.0117  -55.0123 C.2       18 UNK         0.5000 
    103 O         -0.8559  -18.8541  -54.6743 O.2       18 UNK        -0.5000 
    104 N         -2.2039  -20.6980  -54.6595 N.am      19 UNK        -0.5000 
    105 CA        -3.2002  -20.3509  -53.6434 C.3       19 UNK         0.1400 
    106 CB        -4.4017  -21.3005  -53.7817 C.3       19 UNK        -0.1800 
    107 C         -3.6852  -18.8913  -53.6287 C.2       19 UNK         0.5000 
    108 O         -3.6745  -18.2713  -52.5680 O.2       19 UNK        -0.5000 
    109 N         -4.1123  -18.3714  -54.7902 N.am      20 UNK        -0.5000 
    110 CA        -4.6057  -17.0040  -55.0033 C.3       20 UNK         0.1400 
    111 CB        -3.4165  -16.0185  -55.0365 C.3       20 UNK        -0.1800 
    112 C         -5.7031  -16.6072  -53.9877 C.2       20 UNK         0.5000 
    113 O         -6.8591  -16.9948  -54.1636 O.2       20 UNK        -0.5000 
    114 N         -5.3074  -15.8974  -52.9213 N.am      21 UNK        -0.5000 
    115 CA        -6.1299  -15.4971  -51.7791 C.3       21 UNK         0.1400 
    116 CB        -5.2634  -14.6748  -50.8113 C.3       21 UNK        -0.1800 
    117 C         -6.8054  -16.6653  -51.0299 C.2       21 UNK         0.5000 
    118 O         -7.9238  -16.4852  -50.5459 O.2       21 UNK        -0.5000 
    119 N         -6.1436  -17.8302  -50.9601 N.am      22 UNK        -0.5000 
    120 CA        -6.7174  -19.0796  -50.4229 C.3       22 UNK         0.1400 
    121 C         -7.3133  -20.0176  -51.5149 C.2       22 UNK         0.5000 
    122 N         -7.4361  -19.5968  -52.7694 N.am      22 UNK        -0.7600 
    123 O         -7.7042  -21.1432  -51.2183 O.2       22 UNK        -0.5000 
    124 C124       -5.7731  -19.8068  -49.4225 C.3       23 UNK        -0.0398 
    125 S125       -4.1350  -20.2724  -50.0815 S.3       23 UNK        -0.2404 
    126 C126       -3.0725  -19.0957  -49.1893 C.3       23 UNK        -0.0205 
    127 H127        1.3645   -9.7072  -51.6073 H         1 UNK         0.0600 
    128 H128       -0.2748   -9.3507  -51.0531 H         1 UNK         0.0600 
    129 H129        0.0096  -10.6926  -52.1659 H         1 UNK         0.0600 
    130 H130       -0.0613  -12.6747  -51.1522 H         1 UNK         0.3000 
    131 H131        1.5141  -13.4051  -48.9623 H         1 UNK         0.0600 
    132 H132        0.2517  -15.5762  -49.0258 H         1 UNK         0.0800 
    133 H133       -0.9176  -14.8608  -50.1119 H         1 UNK         0.0800 
    134 H134        0.6775  -16.8354  -52.9642 H         1 UNK         0.0800 
    135 H135       -0.7603  -16.0288  -52.3974 H         1 UNK         0.0800 
    136 H136       -2.1503  -17.0975  -50.7621 H         1 UNK         0.1150 
    137 H137       -0.9631  -20.8046  -49.0053 H         1 UNK         0.1150 
    138 H138        1.8100  -18.5668  -51.4165 H         1 UNK         0.1150 
    139 H139        2.2127  -20.9677  -50.9147 H         1 UNK         0.0800 
    140 H140        2.4550  -20.3445  -49.3068 H         1 UNK         0.0800 
    141 H141        0.5647  -21.1451  -47.3814 H         1 UNK         0.0800 
    142 H142        2.1494  -21.8148  -47.1594 H         1 UNK         0.0800 
    143 H143        1.2701  -24.0207  -46.6782 H         1 UNK         0.0600 
    144 H144        0.6100  -21.8062  -45.0486 H         1 UNK         0.3000 
    145 H145       -0.6242  -23.6464  -42.2267 H         1 UNK         0.0600 
    146 H146        1.1110  -22.2168  -41.1823 H         1 UNK         0.0600 
    147 H147        1.8631  -23.5291  -42.0772 H         1 UNK         0.0600 
    148 H148        1.8440  -21.9055  -42.7535 H         1 UNK         0.0600 
    149 H149       -0.4309  -20.8477  -42.7049 H         1 UNK         0.3000 
    150 H150       -3.6782  -20.4276  -44.1905 H         1 UNK         0.0600 
    151 H151       -3.9647  -20.4730  -41.6997 H         1 UNK         0.0600 
    152 H152       -3.8565  -18.8331  -42.3198 H         1 UNK         0.0600 
    153 H153       -2.4702  -19.5621  -41.5117 H         1 UNK         0.0600 
    154 H154       -1.6960  -18.5007  -43.6293 H         1 UNK         0.3000 
    155 H155        0.0901  -18.7638  -46.7688 H         1 UNK         0.0600 
    156 H156       -1.8204  -17.2466  -47.1124 H         1 UNK         0.0600 
    157 H157       -0.4133  -16.3221  -46.6112 H         1 UNK         0.0600 
    158 H158       -1.7046  -16.6569  -45.4608 H         1 UNK         0.0600 
    159 H159        0.6335  -17.1582  -44.4967 H         1 UNK         0.3000 
    160 H160        2.7038  -19.4683  -42.7202 H         1 UNK         0.0600 
    161 H161        3.3170  -16.9071  -44.2901 H         1 UNK         0.0600 
    162 H162        4.1911  -18.4272  -44.3998 H         1 UNK         0.0600 
    163 H163        4.2334  -17.5027  -42.9061 H         1 UNK         0.0600 
    164 H164        1.7458  -16.7483  -42.3474 H         1 UNK         0.3000 
    165 H165       -1.0012  -17.6415  -40.2522 H         1 UNK         0.0600 
    166 H166        0.2080  -16.1654  -38.6742 H         1 UNK         0.0600 
    167 H167        1.0013  -17.7300  -38.7613 H         1 UNK         0.0600 
    168 H168        1.7006  -16.3480  -39.5963 H         1 UNK         0.0600 
    169 H169        0.1043  -15.1201  -41.0505 H         1 UNK         0.3000 
    170 H170       -1.7972  -14.7501  -44.0452 H         1 UNK         0.0600 
    171 H171       -3.4235  -14.2470  -42.2023 H         1 UNK         0.0600 
    172 H172       -2.1577  -13.3993  -41.3213 H         1 UNK         0.0600 
    173 H173       -2.7190  -12.7892  -42.8776 H         1 UNK         0.0600 
    174 H174       -0.2753  -12.7804  -42.9609 H         1 UNK         0.3000 
    175 H175        2.3326  -12.7609  -42.9680 H         1 UNK         0.0600 
    176 H176        3.0061  -14.0676  -45.6640 H         1 UNK         0.0600 
    177 H177        4.0030  -12.8682  -44.8417 H         1 UNK         0.0600 
    178 H178        3.7487  -14.4454  -44.1119 H         1 UNK         0.0600 
    179 H179        0.9429  -12.3448  -45.5739 H         1 UNK         0.3000 
    180 H180        0.0668   -9.0940  -44.7310 H         1 UNK         0.0600 
    181 H181        2.2627   -9.6183  -46.8041 H         1 UNK         0.0600 
    182 H182        2.2956   -8.3867  -45.5492 H         1 UNK         0.0600 
    183 H183        1.1185   -8.2770  -46.8493 H         1 UNK         0.0600 
    184 H184        0.0116  -10.5909  -47.2077 H         1 UNK         0.3000 
    185 H185       -2.5839  -12.7833  -46.3687 H         1 UNK         0.0600 
    186 H186       -4.0677  -10.7825  -46.6104 H         1 UNK         0.0600 
    187 H187       -3.1107  -10.2260  -47.9782 H         1 UNK         0.0600 
    188 H188       -4.0290  -11.7288  -48.0890 H         1 UNK         0.0600 
    189 H189       -1.6537  -11.9839  -48.9281 H         1 UNK         0.3000 
    190 H190       -1.8016  -22.1446  -46.4498 H         1 UNK         0.3000 
    191 H191       -3.2543  -23.4779  -48.4137 H         1 UNK         0.0600 
    192 H192       -5.2478  -22.5698  -47.2683 H         1 UNK         0.0600 
    193 H193       -4.3118  -22.2559  -45.8134 H         1 UNK         0.0600 
    194 H194       -3.9710  -21.3669  -47.2916 H         1 UNK         0.0600 
    195 H195       -2.8594  -24.3429  -44.9708 H         1 UNK         0.3000 
    196 H196       -4.5594  -26.6589  -45.0179 H         1 UNK         0.0600 
    197 H197       -3.4631  -27.1451  -42.8296 H         1 UNK         0.0600 
    198 H198       -3.9748  -25.4659  -42.9230 H         1 UNK         0.0600 
    199 H199       -2.2751  -25.8813  -43.1267 H         1 UNK         0.0600 
    200 H200       -1.0655  -26.1615  -45.5936 H         1 UNK         0.3000 
    201 H201       -0.3783  -28.9331  -45.6811 H         1 UNK         0.0600 
    202 H202        1.2646  -27.1889  -45.1073 H         1 UNK         0.0600 
    203 H203        1.1240  -26.4747  -46.7119 H         1 UNK         0.0600 
    204 H204        1.8084  -28.0826  -46.5184 H         1 UNK         0.0600 
    205 H205       -0.8753  -26.5252  -48.3305 H         1 UNK         0.3000 
    206 H206       -1.5257  -28.6351  -50.2523 H         1 UNK         0.0600 
    207 H207        0.9447  -28.8658  -50.2428 H         1 UNK         0.0600 
    208 H208        0.4417  -28.1350  -51.7546 H         1 UNK         0.0600 
    209 H209        1.1402  -27.1313  -50.4898 H         1 UNK         0.0600 
    210 H210       -1.1428  -25.2112  -49.5080 H         1 UNK         0.3000 
    211 H211       -1.8044  -23.3183  -50.4206 H         1 UNK         0.0600 
    212 H212       -3.9681  -23.1805  -51.5046 H         1 UNK         0.0600 
    213 H213       -4.0923  -24.4582  -50.3078 H         1 UNK         0.0600 
    214 H214       -3.9205  -24.8646  -52.0080 H         1 UNK         0.0600 
    215 H215        0.4639  -24.0398  -51.4604 H         1 UNK         0.3000 
    216 H216        0.6064  -24.3958  -54.2986 H         1 UNK         0.0600 
    217 H217        3.0345  -23.9119  -53.9191 H         1 UNK         0.0600 
    218 H218        2.4222  -25.1051  -52.7832 H         1 UNK         0.0600 
    219 H219        2.6870  -23.4426  -52.2590 H         1 UNK         0.0600 
    220 H220       -0.0702  -22.9166  -55.7218 H         1 UNK         0.3000 
    221 H221       -0.6025  -21.0517  -56.8006 H         1 UNK         0.0600 
    222 H222        1.7194  -19.6883  -55.3339 H         1 UNK         0.0600 
    223 H223        1.8545  -20.6017  -56.8356 H         1 UNK         0.0600 
    224 H224        0.9216  -19.1140  -56.7896 H         1 UNK         0.0600 
    225 H225       -2.2594  -21.6538  -54.9820 H         1 UNK         0.3000 
    226 H226       -2.7221  -20.5445  -52.6816 H         1 UNK         0.0600 
    227 H227       -4.0964  -22.3449  -53.7915 H         1 UNK         0.0600 
    228 H228       -5.0856  -21.1801  -52.9431 H         1 UNK         0.0600 
    229 H229       -4.9644  -21.1146  -54.6970 H         1 UNK         0.0600 
    230 H230       -4.1020  -18.9678  -55.6047 H         1 UNK         0.3000 
    231 H231       -5.0763  -16.9879  -55.9873 H         1 UNK         0.0600 
    232 H232       -2.8240  -16.0526  -54.1215 H         1 UNK         0.0600 
    233 H233       -3.7575  -14.9920  -55.1776 H         1 UNK         0.0600 
    234 H234       -2.7459  -16.2515  -55.8637 H         1 UNK         0.0600 
    235 H235       -4.3209  -15.6992  -52.8444 H         1 UNK         0.3000 
    236 H236       -6.9234  -14.8522  -52.1617 H         1 UNK         0.0600 
    237 H237       -4.4271  -15.2598  -50.4258 H         1 UNK         0.0600 
    238 H238       -4.8574  -13.7884  -51.2990 H         1 UNK         0.0600 
    239 H239       -5.8477  -14.3340  -49.9555 H         1 UNK         0.0600 
    240 H240       -5.2381  -17.9179  -51.4154 H         1 UNK         0.3000 
    241 H241       -7.5935  -18.8190  -49.8270 H         1 UNK         0.0600 
    242 H242       -7.8429  -20.2152  -53.4524 H         1 UNK         0.3800 
    243 H243       -7.1754  -18.6568  -53.0430 H         1 UNK         0.3800 
    244 H244       -6.2479  -20.7124  -49.0420 H         1 UNK         0.0800 
    245 H245       -5.6362  -19.1758  -48.5437 H         1 UNK         0.0800 
    246 H246       -3.5586  -18.1189  -49.1724 H         1 UNK         0.0800 
    247 H247       -2.9803  -19.4067  -48.1509 H         1 UNK         0.0800 
@<TRIPOS>BOND
     1    1    2 1    
     2    1  127 1    
     3    1  128 1    
     4    1  129 1    
     5    2    3 2    
     6    2    4 am   BACKBONE|DICT|INTERRES
     7    4    5 1    
     8    4  130 1    
     9    5    6 1    
    10    5   65 1    
    11    5  131 1    
    12    6    7 1    
    13    6  132 1    
    14    6  133 1    
    15    7    8 1    
    16    8    9 1    
    17    8  134 1    
    18    8  135 1    
    19    9   10 ar   
    20    9   14 ar   
    21   10   11 ar   
    22   10  136 1    
    23   11   12 ar   
    24   11  126 1    
    25   12   13 ar   
    26   12  137 1    
    27   13   14 ar   
    28   13   15 1    
    29   14  138 1    
    30   15   16 1    
    31   15  139 1    
    32   15  140 1    
    33   16   17 1    
    34   17   18 1    
    35   17  141 1    
    36   17  142 1    
    37   18   19 1    
    38   18   67 1    
    39   18  143 1    
    40   19   20 am   BACKBONE|DICT|INTERRES
    41   19  144 1    
    42   20   21 2    
    43   20   22 1    
    44   22   23 1    
    45   22   24 1    
    46   22  145 1    
    47   23  146 1    
    48   23  147 1    
    49   23  148 1    
    50   24   25 am   BACKBONE|DICT|INTERRES
    51   24  149 1    
    52   25   26 2    
    53   25   27 1    
    54   27   28 1    
    55   27   29 1    
    56   27  150 1    
    57   28  151 1    
    58   28  152 1    
    59   28  153 1    
    60   29   30 am   BACKBONE|DICT|INTERRES
    61   29  154 1    
    62   30   31 2    
    63   30   32 1    
    64   32   33 1    
    65   32   34 1    
    66   32  155 1    
    67   33  156 1    
    68   33  157 1    
    69   33  158 1    
    70   34   35 am   BACKBONE|DICT|INTERRES
    71   34  159 1    
    72   35   36 2    
    73   35   37 1    
    74   37   38 1    
    75   37   39 1    
    76   37  160 1    
    77   38  161 1    
    78   38  162 1    
    79   38  163 1    
    80   39   40 am   BACKBONE|DICT|INTERRES
    81   39  164 1    
    82   40   41 2    
    83   40   42 1    
    84   42   43 1    
    85   42   44 1    
    86   42  165 1    
    87   43  166 1    
    88   43  167 1    
    89   43  168 1    
    90   44   45 am   BACKBONE|DICT|INTERRES
    91   44  169 1    
    92   45   46 2    
    93   45   47 1    
    94   47   48 1    
    95   47   49 1    
    96   47  170 1    
    97   48  171 1    
    98   48  172 1    
    99   48  173 1    
   100   49   50 am   BACKBONE|DICT|INTERRES
   101   49  174 1    
   102   50   51 2    
   103   50   52 1    
   104   52   53 1    
   105   52   54 1    
   106   52  175 1    
   107   53  176 1    
   108   53  177 1    
   109   53  178 1    
   110   54   55 am   BACKBONE|DICT|INTERRES
   111   54  179 1    
   112   55   56 2    
   113   55   57 1    
   114   57   58 1    
   115   57   59 1    
   116   57  180 1    
   117   58  181 1    
   118   58  182 1    
   119   58  183 1    
   120   59   60 am   BACKBONE|DICT|INTERRES
   121   59  184 1    
   122   60   61 2    
   123   60   62 1    
   124   62   63 1    
   125   62   64 1    
   126   62  185 1    
   127   63  186 1    
   128   63  187 1    
   129   63  188 1    
   130   64   65 am   BACKBONE|DICT|INTERRES
   131   64  189 1    
   132   65   66 2    
   133   67   68 2    
   134   67   69 am   BACKBONE|DICT|INTERRES
   135   69   70 1    
   136   69  190 1    
   137   70   71 1    
   138   70   72 1    
   139   70  191 1    
   140   71  192 1    
   141   71  193 1    
   142   71  194 1    
   143   72   73 2    
   144   72   74 am   BACKBONE|DICT|INTERRES
   145   74   75 1    
   146   74  195 1    
   147   75   76 1    
   148   75   77 1    
   149   75  196 1    
   150   76  197 1    
   151   76  198 1    
   152   76  199 1    
   153   77   78 2    
   154   77   79 am   BACKBONE|DICT|INTERRES
   155   79   80 1    
   156   79  200 1    
   157   80   81 1    
   158   80   82 1    
   159   80  201 1    
   160   81  202 1    
   161   81  203 1    
   162   81  204 1    
   163   82   83 2    
   164   82   84 am   BACKBONE|DICT|INTERRES
   165   84   85 1    
   166   84  205 1    
   167   85   86 1    
   168   85   87 1    
   169   85  206 1    
   170   86  207 1    
   171   86  208 1    
   172   86  209 1    
   173   87   88 2    
   174   87   89 am   BACKBONE|DICT|INTERRES
   175   89   90 1    
   176   89  210 1    
   177   90   91 1    
   178   90   92 1    
   179   90  211 1    
   180   91  212 1    
   181   91  213 1    
   182   91  214 1    
   183   92   93 2    
   184   92   94 am   BACKBONE|DICT|INTERRES
   185   94   95 1    
   186   94  215 1    
   187   95   96 1    
   188   95   97 1    
   189   95  216 1    
   190   96  217 1    
   191   96  218 1    
   192   96  219 1    
   193   97   98 2    
   194   97   99 am   BACKBONE|DICT|INTERRES
   195   99  100 1    
   196   99  220 1    
   197  100  101 1    
   198  100  102 1    
   199  100  221 1    
   200  101  222 1    
   201  101  223 1    
   202  101  224 1    
   203  102  103 2    
   204  102  104 am   BACKBONE|DICT|INTERRES
   205  104  105 1    
   206  104  225 1    
   207  105  106 1    
   208  105  107 1    
   209  105  226 1    
   210  106  227 1    
   211  106  228 1    
   212  106  229 1    
   213  107  108 2    
   214  107  109 am   BACKBONE|DICT|INTERRES
   215  109  110 1    
   216  109  230 1    
   217  110  111 1    
   218  110  112 1    
   219  110  231 1    
   220  111  232 1    
   221  111  233 1    
   222  111  234 1    
   223  112  113 2    
   224  112  114 am   BACKBONE|DICT|INTERRES
   225  114  115 1    
   226  114  235 1    
   227  115  116 1    
   228  115  117 1    
   229  115  236 1    
   230  116  237 1    
   231  116  238 1    
   232  116  239 1    
   233  117  118 2    
   234  117  119 am   BACKBONE|DICT|INTERRES
   235  119  120 1    
   236  119  240 1    
   237  120  121 1    
   238  120  124 1    
   239  120  241 1    
   240  121  122 am   BACKBONE|DICT|INTERRES
   241  121  123 2    
   242  122  242 1    
   243  122  243 1    
   244  124  125 1    
   245  124  244 1    
   246  124  245 1    
   247  125  126 1    
   248  126  246 1    
   249  126  247 1    
@<TRIPOS>SUBSTRUCTURE
     1 UNK         1 GROUP             0       ****    0 ROOT    
