@<TRIPOS>MOLECULE
3R540
247   249    1
SMALL
USER_CHARGES


@<TRIPOS>ATOM
      1 CA          0.8883  -10.3757  -44.1111 C.3       0 UNK        -0.1800 
      2 C           1.7593  -10.9903  -45.1971 C.2       0 UNK         0.5000 
      3 O           2.9188  -10.6036  -45.3491 O.2       0 UNK        -0.5000 
      4 N           1.2129  -11.9552  -45.9440 N.am      1 UNK        -0.5000 
      5 CA          1.9062  -12.7103  -46.9903 C.3       1 UNK         0.1400 
      6 C6          0.9325  -13.1690  -48.1055 C.3       23 UNK        -0.0398 
      7 S7          0.2080  -11.7641  -49.0137 S.3       23 UNK        -0.2404 
      8 C8          0.2325  -12.3777  -50.7352 C.3       23 UNK        -0.0205 
      9 C9         -0.7491  -13.5142  -51.0250 C.ar      23 UNK        -0.0193 
     10 C10        -0.4112  -14.4918  -51.9665 C.ar      23 UNK        -0.1150 
     11 C11        -1.3122  -15.5096  -52.2978 C.ar      23 UNK        -0.0193 
     12 C12        -2.5534  -15.5673  -51.6574 C.ar      23 UNK        -0.1150 
     13 C13        -2.9083  -14.5964  -50.7172 C.ar      23 UNK        -0.0193 
     14 C14        -2.0086  -13.5686  -50.4176 C.ar      23 UNK        -0.1150 
     15 C15        -4.2778  -14.6190  -50.0548 C.3       23 UNK        -0.0205 
     16 S16        -4.1410  -14.8069  -48.2502 S.3       23 UNK        -0.2404 
     17 C17        -4.7500  -16.5055  -47.9813 C.3       23 UNK        -0.0398 
     18 CA         -3.7796  -17.6449  -48.3975 C.3       11 UNK         0.1400 
     19 N          -2.3671  -17.3472  -48.1354 N.am      11 UNK        -0.5000 
     20 C          -1.3443  -18.1179  -48.5323 C.2       10 UNK         0.5000 
     21 O          -1.4791  -19.1821  -49.1309 O.2       10 UNK        -0.5000 
     22 CA          0.0685  -17.6541  -48.1490 C.3       10 UNK         0.1400 
     23 CB          0.5828  -16.6260  -49.1652 C.3       10 UNK        -0.1800 
     24 N           0.1682  -17.0919  -46.8020 N.am      10 UNK        -0.5000 
     25 C          -0.2013  -17.6938  -45.6616 C.2       9 UNK         0.5000 
     26 O          -0.7709  -18.7836  -45.6061 O.2       9 UNK        -0.5000 
     27 CA          0.1077  -16.9377  -44.3598 C.3       9 UNK         0.1400 
     28 CB          1.5430  -17.2579  -43.9285 C.3       9 UNK        -0.1800 
     29 N          -0.0009  -15.4924  -44.5511 N.am      9 UNK        -0.5000 
     30 C          -1.0499  -14.6785  -44.3617 C.2       8 UNK         0.5000 
     31 O          -1.0122  -13.5173  -44.7665 O.2       8 UNK        -0.5000 
     32 CA         -2.3199  -15.1576  -43.6172 C.3       8 UNK         0.1400 
     33 CB         -3.1775  -16.1061  -44.4701 C.3       8 UNK        -0.1800 
     34 N          -2.0814  -15.7421  -42.2949 N.am      8 UNK        -0.5000 
     35 C          -1.5735  -15.0883  -41.2407 C.2       7 UNK         0.5000 
     36 O          -1.2385  -13.9037  -41.2630 O.2       7 UNK        -0.5000 
     37 CA         -1.4431  -15.8853  -39.9267 C.3       7 UNK         0.1400 
     38 CB         -2.7248  -15.7494  -39.0898 C.3       7 UNK        -0.1800 
     39 N          -1.1507  -17.3090  -40.1252 N.am      7 UNK        -0.5000 
     40 C           0.0400  -17.7790  -40.5193 C.2       6 UNK         0.5000 
     41 O           0.9968  -17.0483  -40.7782 O.2       6 UNK        -0.5000 
     42 CA          0.1662  -19.3145  -40.6466 C.3       6 UNK         0.1400 
     43 CB         -0.6890  -19.8546  -41.8069 C.3       6 UNK        -0.1800 
     44 N           1.5469  -19.7678  -40.8384 N.am      6 UNK        -0.5000 
     45 C           2.5258  -19.6882  -39.9258 C.2       5 UNK         0.5000 
     46 O           2.3499  -19.2798  -38.7764 O.2       5 UNK        -0.5000 
     47 CA          3.9337  -20.1691  -40.3434 C.3       5 UNK         0.1400 
     48 CB          4.3179  -21.4419  -39.5708 C.3       5 UNK        -0.1800 
     49 N           4.0799  -20.4371  -41.7788 N.am      5 UNK        -0.5000 
     50 C           4.2451  -19.5012  -42.7220 C.2       4 UNK         0.5000 
     51 O           4.2818  -18.2910  -42.4859 O.2       4 UNK        -0.5000 
     52 CA          4.3845  -20.0057  -44.1694 C.3       4 UNK         0.1400 
     53 CB          3.1786  -20.8626  -44.6078 C.3       4 UNK        -0.1800 
     54 N           4.5162  -18.8608  -45.0639 N.am      4 UNK        -0.5000 
     55 C           5.1094  -18.8547  -46.2625 C.2       3 UNK         0.5000 
     56 O           5.6592  -19.8428  -46.7509 O.2       3 UNK        -0.5000 
     57 CA          5.0643  -17.5403  -47.0718 C.3       3 UNK         0.1400 
     58 CB          4.1937  -17.7202  -48.3255 C.3       3 UNK        -0.1800 
     59 N           4.5380  -16.4045  -46.3117 N.am      3 UNK        -0.5000 
     60 C           5.2268  -15.6516  -45.4484 C.2       2 UNK         0.5000 
     61 O           6.4275  -15.8119  -45.2237 O.2       2 UNK        -0.5000 
     62 CA          4.4306  -14.5471  -44.7135 C.3       2 UNK         0.1400 
     63 CB          5.3116  -13.7136  -43.7660 C.3       2 UNK        -0.1800 
     64 N           3.7070  -13.6277  -45.5994 N.am      2 UNK        -0.5000 
     65 C           2.6088  -13.9017  -46.3146 C.2       1 UNK         0.5000 
     66 O           2.1055  -15.0248  -46.3815 O.2       1 UNK        -0.5000 
     67 C          -4.2153  -18.9623  -47.7228 C.2       11 UNK         0.5000 
     68 O          -4.8863  -19.7828  -48.3469 O.2       11 UNK        -0.5000 
     69 N          -3.8003  -19.1385  -46.4598 N.am      12 UNK        -0.5000 
     70 CA         -4.0830  -20.3179  -45.6451 C.3       12 UNK         0.1400 
     71 CB         -3.7830  -20.0080  -44.1707 C.3       12 UNK        -0.1800 
     72 C          -3.2876  -21.5413  -46.1223 C.2       12 UNK         0.5000 
     73 O          -3.8493  -22.6332  -46.2058 O.2       12 UNK        -0.5000 
     74 N          -2.0107  -21.3270  -46.4694 N.am      13 UNK        -0.5000 
     75 CA         -1.1282  -22.3402  -47.0467 C.3       13 UNK         0.1400 
     76 CB          0.2917  -21.7693  -47.1768 C.3       13 UNK        -0.1800 
     77 C          -1.6464  -22.8601  -48.3999 C.2       13 UNK         0.5000 
     78 O          -1.6962  -24.0723  -48.6078 O.2       13 UNK        -0.5000 
     79 N          -2.0762  -21.9390  -49.2732 N.am      14 UNK        -0.5000 
     80 CA         -2.6861  -22.2477  -50.5628 C.3       14 UNK         0.1400 
     81 CB         -2.8283  -20.9692  -51.3946 C.3       14 UNK        -0.1800 
     82 C          -4.0448  -22.9496  -50.4287 C.2       14 UNK         0.5000 
     83 O          -4.3304  -23.8431  -51.2245 O.2       14 UNK        -0.5000 
     84 N          -4.8578  -22.5542  -49.4398 N.am      15 UNK        -0.5000 
     85 CA         -6.1325  -23.2008  -49.1240 C.3       15 UNK         0.1400 
     86 CB         -6.9182  -22.3569  -48.1103 C.3       15 UNK        -0.1800 
     87 C          -5.9432  -24.6412  -48.6168 C.2       15 UNK         0.5000 
     88 O          -6.6526  -25.5377  -49.0727 O.2       15 UNK        -0.5000 
     89 N          -4.9569  -24.8486  -47.7319 N.am      16 UNK        -0.5000 
     90 CA         -4.5595  -26.1615  -47.2159 C.3       16 UNK         0.1400 
     91 CB         -3.5395  -25.9787  -46.0821 C.3       16 UNK        -0.1800 
     92 C          -4.0011  -27.0935  -48.3091 C.2       16 UNK         0.5000 
     93 O          -4.2817  -28.2922  -48.2890 O.2       16 UNK        -0.5000 
     94 N          -3.2552  -26.5199  -49.2630 N.am      17 UNK        -0.5000 
     95 CA         -2.7347  -27.2037  -50.4493 C.3       17 UNK         0.1400 
     96 CB         -1.5879  -26.3637  -51.0346 C.3       17 UNK        -0.1800 
     97 C          -3.8022  -27.4717  -51.5323 C.2       17 UNK         0.5000 
     98 O          -3.5164  -28.2033  -52.4807 O.2       17 UNK        -0.5000 
     99 N          -4.9880  -26.8576  -51.3940 N.am      18 UNK        -0.5000 
    100 CA        -6.1120  -26.8431  -52.3390 C.3       18 UNK         0.1400 
    101 CB        -6.6921  -28.2582  -52.5416 C.3       18 UNK        -0.1800 
    102 C         -5.7853  -26.1260  -53.6688 C.2       18 UNK         0.5000 
    103 O         -6.4219  -26.3937  -54.6893 O.2       18 UNK        -0.5000 
    104 N         -4.8088  -25.2119  -53.6259 N.am      19 UNK        -0.5000 
    105 CA        -4.3945  -24.3536  -54.7326 C.3       19 UNK         0.1400 
    106 CB        -2.8902  -24.0702  -54.5981 C.3       19 UNK        -0.1800 
    107 C         -5.1842  -23.0333  -54.7464 C.2       19 UNK         0.5000 
    108 O         -5.4157  -22.4799  -55.8215 O.2       19 UNK        -0.5000 
    109 N         -5.5662  -22.5527  -53.5520 N.am      20 UNK        -0.5000 
    110 CA        -6.3498  -21.3519  -53.2210 C.3       20 UNK         0.1400 
    111 CB        -7.7743  -21.4501  -53.7957 C.3       20 UNK        -0.1800 
    112 C         -5.6958  -20.0038  -53.5943 C.2       20 UNK         0.5000 
    113 O         -5.6822  -19.0919  -52.7685 O.2       20 UNK        -0.5000 
    114 N         -5.1558  -19.9055  -54.8124 N.am      21 UNK        -0.5000 
    115 CA        -4.5174  -18.7196  -55.3886 C.3       21 UNK         0.1400 
    116 CB        -5.1738  -18.4302  -56.7501 C.3       21 UNK        -0.1800 
    117 C         -2.9897  -18.8937  -55.5158 C.2       21 UNK         0.5000 
    118 O         -2.3628  -18.2097  -56.3253 O.2       21 UNK        -0.5000 
    119 N         -2.4208  -19.8116  -54.7233 N.am      22 UNK        -0.5000 
    120 CA        -0.9913  -20.1778  -54.6641 C.3       22 UNK         0.1400 
    121 C         -0.4603  -20.9583  -55.9070 C.2       22 UNK         0.5000 
    122 N         -1.2994  -21.3699  -56.8496 N.am      22 UNK        -0.7600 
    123 O          0.7335  -21.2283  -56.0054 O.2       22 UNK        -0.5000 
    124 C124       -0.0501  -18.9965  -54.2843 C.3       23 UNK        -0.0398 
    125 S125       -0.5103  -18.1354  -52.7389 S.3       23 UNK        -0.2404 
    126 C126       -0.9722  -16.5048  -53.3961 C.3       23 UNK        -0.0205 
    127 H127        1.3502  -10.5187  -43.1342 H         1 UNK         0.0600 
    128 H128       -0.1044  -10.8265  -44.0863 H         1 UNK         0.0600 
    129 H129        0.7726   -9.3057  -44.2829 H         1 UNK         0.0600 
    130 H130        0.2800  -12.2853  -45.7144 H         1 UNK         0.3000 
    131 H131        2.6758  -12.0884  -47.4527 H         1 UNK         0.0600 
    132 H132        1.4579  -13.8079  -48.8167 H         1 UNK         0.0800 
    133 H133        0.1159  -13.7652  -47.6940 H         1 UNK         0.0800 
    134 H134        1.2508  -12.6797  -50.9850 H         1 UNK         0.0800 
    135 H135       -0.0103  -11.5462  -51.3977 H         1 UNK         0.0800 
    136 H136        0.5466  -14.4446  -52.4656 H         1 UNK         0.1150 
    137 H137       -3.2496  -16.3542  -51.9128 H         1 UNK         0.1150 
    138 H138       -2.2997  -12.8073  -49.7081 H         1 UNK         0.1150 
    139 H139       -4.7871  -13.6789  -50.2709 H         1 UNK         0.0800 
    140 H140       -4.9037  -15.4081  -50.4739 H         1 UNK         0.0800 
    141 H141       -5.7036  -16.6225  -48.4990 H         1 UNK         0.0800 
    142 H142       -4.9916  -16.5685  -46.9188 H         1 UNK         0.0800 
    143 H143       -3.8737  -17.7831  -49.4771 H         1 UNK         0.0600 
    144 H144       -2.1685  -16.4709  -47.6765 H         1 UNK         0.3000 
    145 H145        0.7239  -18.5259  -48.1836 H         1 UNK         0.0600 
    146 H146       -0.0664  -15.7518  -49.2088 H         1 UNK         0.0600 
    147 H147        0.6187  -17.0536  -50.1671 H         1 UNK         0.0600 
    148 H148        1.5895  -16.2887  -48.9217 H         1 UNK         0.0600 
    149 H149        0.6800  -16.2193  -46.7268 H         1 UNK         0.3000 
    150 H150       -0.5663  -17.2894  -43.5837 H         1 UNK         0.0600 
    151 H151        1.6107  -18.2749  -43.5469 H         1 UNK         0.0600 
    152 H152        1.8836  -16.5911  -43.1373 H         1 UNK         0.0600 
    153 H153        2.2474  -17.1680  -44.7537 H         1 UNK         0.0600 
    154 H154        0.8002  -15.0967  -45.0277 H         1 UNK         0.3000 
    155 H155       -2.9228  -14.2614  -43.4546 H         1 UNK         0.0600 
    156 H156       -2.7897  -17.1224  -44.4763 H         1 UNK         0.0600 
    157 H157       -3.2280  -15.7599  -45.5017 H         1 UNK         0.0600 
    158 H158       -4.1996  -16.1501  -44.0935 H         1 UNK         0.0600 
    159 H159       -2.3440  -16.7073  -42.1687 H         1 UNK         0.3000 
    160 H160       -0.6226  -15.4437  -39.3566 H         1 UNK         0.0600 
    161 H161       -2.6161  -16.2351  -38.1199 H         1 UNK         0.0600 
    162 H162       -3.5850  -16.1919  -39.5936 H         1 UNK         0.0600 
    163 H163       -2.9588  -14.7006  -38.9015 H         1 UNK         0.0600 
    164 H164       -1.8950  -17.9580  -39.9133 H         1 UNK         0.3000 
    165 H165       -0.2035  -19.7498  -39.7159 H         1 UNK         0.0600 
    166 H166       -0.6843  -20.9447  -41.8199 H         1 UNK         0.0600 
    167 H167       -1.7299  -19.5433  -41.7160 H         1 UNK         0.0600 
    168 H168       -0.3260  -19.5146  -42.7760 H         1 UNK         0.0600 
    169 H169        1.7882  -20.1068  -41.7560 H         1 UNK         0.3000 
    170 H170        4.6361  -19.3806  -40.0650 H         1 UNK         0.0600 
    171 H171        4.2696  -21.2775  -38.4935 H         1 UNK         0.0600 
    172 H172        3.6507  -22.2720  -39.8060 H         1 UNK         0.0600 
    173 H173        5.3368  -21.7524  -39.8031 H         1 UNK         0.0600 
    174 H174        4.0652  -21.4095  -42.0512 H         1 UNK         0.3000 
    175 H175        5.2946  -20.6069  -44.2184 H         1 UNK         0.0600 
    176 H176        3.0679  -21.7511  -43.9859 H         1 UNK         0.0600 
    177 H177        3.2961  -21.2099  -45.6345 H         1 UNK         0.0600 
    178 H178        2.2441  -20.3041  -44.5555 H         1 UNK         0.0600 
    179 H179        4.1745  -17.9910  -44.6789 H         1 UNK         0.3000 
    180 H180        6.0837  -17.3129  -47.3903 H         1 UNK         0.0600 
    181 H181        3.1706  -17.9905  -48.0635 H         1 UNK         0.0600 
    182 H182        4.5869  -18.5099  -48.9669 H         1 UNK         0.0600 
    183 H183        4.1604  -16.8069  -48.9198 H         1 UNK         0.0600 
    184 H184        3.5624  -16.1632  -46.4616 H         1 UNK         0.3000 
    185 H185        3.6919  -15.0607  -44.0952 H         1 UNK         0.0600 
    186 H186        5.8193  -14.3494  -43.0394 H         1 UNK         0.0600 
    187 H187        6.0761  -13.1594  -44.3120 H         1 UNK         0.0600 
    188 H188        4.7151  -12.9957  -43.2025 H         1 UNK         0.0600 
    189 H189        4.0205  -12.6656  -45.5822 H         1 UNK         0.3000 
    190 H190       -3.1731  -18.4565  -46.0610 H         1 UNK         0.3000 
    191 H191       -5.1460  -20.5511  -45.7344 H         1 UNK         0.0600 
    192 H192       -2.7352  -19.7506  -44.0179 H         1 UNK         0.0600 
    193 H193       -4.0038  -20.8693  -43.5389 H         1 UNK         0.0600 
    194 H194       -4.3897  -19.1770  -43.8106 H         1 UNK         0.0600 
    195 H195       -1.6184  -20.3997  -46.3357 H         1 UNK         0.3000 
    196 H196       -1.0944  -23.1847  -46.3555 H         1 UNK         0.0600 
    197 H197        0.9830  -22.5240  -47.5534 H         1 UNK         0.0600 
    198 H198        0.6688  -21.4329  -46.2113 H         1 UNK         0.0600 
    199 H199        0.3251  -20.9219  -47.8613 H         1 UNK         0.0600 
    200 H200       -1.9611  -20.9512  -49.0537 H         1 UNK         0.3000 
    201 H201       -2.0139  -22.9229  -51.0957 H         1 UNK         0.0600 
    202 H202       -1.8611  -20.4900  -51.5394 H         1 UNK         0.0600 
    203 H203       -3.4916  -20.2453  -50.9186 H         1 UNK         0.0600 
    204 H204       -3.2324  -21.1945  -52.3798 H         1 UNK         0.0600 
    205 H205       -4.5941  -21.7590  -48.8681 H         1 UNK         0.3000 
    206 H206       -6.7194  -23.2493  -50.0438 H         1 UNK         0.0600 
    207 H207       -7.1347  -21.3656  -48.5083 H         1 UNK         0.0600 
    208 H208       -7.8734  -22.8251  -47.8697 H         1 UNK         0.0600 
    209 H209       -6.3701  -22.2311  -47.1769 H         1 UNK         0.0600 
    210 H210       -4.4457  -24.0468  -47.3717 H         1 UNK         0.3000 
    211 H211       -5.4491  -26.6379  -46.7988 H         1 UNK         0.0600 
    212 H212       -2.6364  -25.4762  -46.4295 H         1 UNK         0.0600 
    213 H213       -3.2413  -26.9413  -45.6648 H         1 UNK         0.0600 
    214 H214       -3.9580  -25.3865  -45.2681 H         1 UNK         0.0600 
    215 H215       -3.0039  -25.5421  -49.1580 H         1 UNK         0.3000 
    216 H216       -2.3290  -28.1699  -50.1429 H         1 UNK         0.0600 
    217 H217       -1.1335  -26.8611  -51.8924 H         1 UNK         0.0600 
    218 H218       -0.7999  -26.2034  -50.2984 H         1 UNK         0.0600 
    219 H219       -1.9371  -25.3869  -51.3698 H         1 UNK         0.0600 
    220 H220       -5.1157  -26.2764  -50.5754 H         1 UNK         0.3000 
    221 H221       -6.8869  -26.2405  -51.8634 H         1 UNK         0.0600 
    222 H222       -7.6267  -28.2205  -53.1021 H         1 UNK         0.0600 
    223 H223       -6.9080  -28.7355  -51.5857 H         1 UNK         0.0600 
    224 H224       -6.0085  -28.9036  -53.0934 H         1 UNK         0.0600 
    225 H225       -4.3968  -25.0099  -52.7198 H         1 UNK         0.3000 
    226 H226       -4.5664  -24.8657  -55.6817 H         1 UNK         0.0600 
    227 H227       -2.5324  -23.4669  -55.4321 H         1 UNK         0.0600 
    228 H228       -2.6574  -23.5336  -53.6776 H         1 UNK         0.0600 
    229 H229       -2.3147  -24.9961  -54.5985 H         1 UNK         0.0600 
    230 H230       -5.2780  -23.0968  -52.7451 H         1 UNK         0.3000 
    231 H231       -6.4393  -21.3571  -52.1333 H         1 UNK         0.0600 
    232 H232       -8.2735  -22.3575  -53.4557 H         1 UNK         0.0600 
    233 H233       -7.7748  -21.4560  -54.8860 H         1 UNK         0.0600 
    234 H234       -8.3832  -20.6042  -53.4744 H         1 UNK         0.0600 
    235 H235       -5.2123  -20.7296  -55.4085 H         1 UNK         0.3000 
    236 H236       -4.6803  -17.8530  -54.7451 H         1 UNK         0.0600 
    237 H237       -6.2512  -18.3000  -56.6466 H         1 UNK         0.0600 
    238 H238       -4.7807  -17.5143  -57.1929 H         1 UNK         0.0600 
    239 H239       -5.0014  -19.2410  -57.4588 H         1 UNK         0.0600 
    240 H240       -3.0281  -20.3162  -54.0974 H         1 UNK         0.3000 
    241 H241       -0.9252  -20.9024  -53.8522 H         1 UNK         0.0600 
    242 H242       -0.9404  -21.8799  -57.6413 H         1 UNK         0.3800 
    243 H243       -2.2799  -21.1488  -56.7982 H         1 UNK         0.3800 
    244 H244        0.0088  -18.2809  -55.1053 H         1 UNK         0.0800 
    245 H245        0.9684  -19.3616  -54.1429 H         1 UNK         0.0800 
    246 H246       -1.8297  -16.6099  -54.0606 H         1 UNK         0.0800 
    247 H247       -0.1556  -16.1212  -54.0097 H         1 UNK         0.0800 
@<TRIPOS>BOND
     1    1    2 1    
     2    1  127 1    
     3    1  128 1    
     4    1  129 1    
     5    2    3 2    
     6    2    4 am   BACKBONE|DICT|INTERRES
     7    4    5 1    
     8    4  130 1    
     9    5    6 1    
    10    5   65 1    
    11    5  131 1    
    12    6    7 1    
    13    6  132 1    
    14    6  133 1    
    15    7    8 1    
    16    8    9 1    
    17    8  134 1    
    18    8  135 1    
    19    9   10 ar   
    20    9   14 ar   
    21   10   11 ar   
    22   10  136 1    
    23   11   12 ar   
    24   11  126 1    
    25   12   13 ar   
    26   12  137 1    
    27   13   14 ar   
    28   13   15 1    
    29   14  138 1    
    30   15   16 1    
    31   15  139 1    
    32   15  140 1    
    33   16   17 1    
    34   17   18 1    
    35   17  141 1    
    36   17  142 1    
    37   18   19 1    
    38   18   67 1    
    39   18  143 1    
    40   19   20 am   BACKBONE|DICT|INTERRES
    41   19  144 1    
    42   20   21 2    
    43   20   22 1    
    44   22   23 1    
    45   22   24 1    
    46   22  145 1    
    47   23  146 1    
    48   23  147 1    
    49   23  148 1    
    50   24   25 am   BACKBONE|DICT|INTERRES
    51   24  149 1    
    52   25   26 2    
    53   25   27 1    
    54   27   28 1    
    55   27   29 1    
    56   27  150 1    
    57   28  151 1    
    58   28  152 1    
    59   28  153 1    
    60   29   30 am   BACKBONE|DICT|INTERRES
    61   29  154 1    
    62   30   31 2    
    63   30   32 1    
    64   32   33 1    
    65   32   34 1    
    66   32  155 1    
    67   33  156 1    
    68   33  157 1    
    69   33  158 1    
    70   34   35 am   BACKBONE|DICT|INTERRES
    71   34  159 1    
    72   35   36 2    
    73   35   37 1    
    74   37   38 1    
    75   37   39 1    
    76   37  160 1    
    77   38  161 1    
    78   38  162 1    
    79   38  163 1    
    80   39   40 am   BACKBONE|DICT|INTERRES
    81   39  164 1    
    82   40   41 2    
    83   40   42 1    
    84   42   43 1    
    85   42   44 1    
    86   42  165 1    
    87   43  166 1    
    88   43  167 1    
    89   43  168 1    
    90   44   45 am   BACKBONE|DICT|INTERRES
    91   44  169 1    
    92   45   46 2    
    93   45   47 1    
    94   47   48 1    
    95   47   49 1    
    96   47  170 1    
    97   48  171 1    
    98   48  172 1    
    99   48  173 1    
   100   49   50 am   BACKBONE|DICT|INTERRES
   101   49  174 1    
   102   50   51 2    
   103   50   52 1    
   104   52   53 1    
   105   52   54 1    
   106   52  175 1    
   107   53  176 1    
   108   53  177 1    
   109   53  178 1    
   110   54   55 am   BACKBONE|DICT|INTERRES
   111   54  179 1    
   112   55   56 2    
   113   55   57 1    
   114   57   58 1    
   115   57   59 1    
   116   57  180 1    
   117   58  181 1    
   118   58  182 1    
   119   58  183 1    
   120   59   60 am   BACKBONE|DICT|INTERRES
   121   59  184 1    
   122   60   61 2    
   123   60   62 1    
   124   62   63 1    
   125   62   64 1    
   126   62  185 1    
   127   63  186 1    
   128   63  187 1    
   129   63  188 1    
   130   64   65 am   BACKBONE|DICT|INTERRES
   131   64  189 1    
   132   65   66 2    
   133   67   68 2    
   134   67   69 am   BACKBONE|DICT|INTERRES
   135   69   70 1    
   136   69  190 1    
   137   70   71 1    
   138   70   72 1    
   139   70  191 1    
   140   71  192 1    
   141   71  193 1    
   142   71  194 1    
   143   72   73 2    
   144   72   74 am   BACKBONE|DICT|INTERRES
   145   74   75 1    
   146   74  195 1    
   147   75   76 1    
   148   75   77 1    
   149   75  196 1    
   150   76  197 1    
   151   76  198 1    
   152   76  199 1    
   153   77   78 2    
   154   77   79 am   BACKBONE|DICT|INTERRES
   155   79   80 1    
   156   79  200 1    
   157   80   81 1    
   158   80   82 1    
   159   80  201 1    
   160   81  202 1    
   161   81  203 1    
   162   81  204 1    
   163   82   83 2    
   164   82   84 am   BACKBONE|DICT|INTERRES
   165   84   85 1    
   166   84  205 1    
   167   85   86 1    
   168   85   87 1    
   169   85  206 1    
   170   86  207 1    
   171   86  208 1    
   172   86  209 1    
   173   87   88 2    
   174   87   89 am   BACKBONE|DICT|INTERRES
   175   89   90 1    
   176   89  210 1    
   177   90   91 1    
   178   90   92 1    
   179   90  211 1    
   180   91  212 1    
   181   91  213 1    
   182   91  214 1    
   183   92   93 2    
   184   92   94 am   BACKBONE|DICT|INTERRES
   185   94   95 1    
   186   94  215 1    
   187   95   96 1    
   188   95   97 1    
   189   95  216 1    
   190   96  217 1    
   191   96  218 1    
   192   96  219 1    
   193   97   98 2    
   194   97   99 am   BACKBONE|DICT|INTERRES
   195   99  100 1    
   196   99  220 1    
   197  100  101 1    
   198  100  102 1    
   199  100  221 1    
   200  101  222 1    
   201  101  223 1    
   202  101  224 1    
   203  102  103 2    
   204  102  104 am   BACKBONE|DICT|INTERRES
   205  104  105 1    
   206  104  225 1    
   207  105  106 1    
   208  105  107 1    
   209  105  226 1    
   210  106  227 1    
   211  106  228 1    
   212  106  229 1    
   213  107  108 2    
   214  107  109 am   BACKBONE|DICT|INTERRES
   215  109  110 1    
   216  109  230 1    
   217  110  111 1    
   218  110  112 1    
   219  110  231 1    
   220  111  232 1    
   221  111  233 1    
   222  111  234 1    
   223  112  113 2    
   224  112  114 am   BACKBONE|DICT|INTERRES
   225  114  115 1    
   226  114  235 1    
   227  115  116 1    
   228  115  117 1    
   229  115  236 1    
   230  116  237 1    
   231  116  238 1    
   232  116  239 1    
   233  117  118 2    
   234  117  119 am   BACKBONE|DICT|INTERRES
   235  119  120 1    
   236  119  240 1    
   237  120  121 1    
   238  120  124 1    
   239  120  241 1    
   240  121  122 am   BACKBONE|DICT|INTERRES
   241  121  123 2    
   242  122  242 1    
   243  122  243 1    
   244  124  125 1    
   245  124  244 1    
   246  124  245 1    
   247  125  126 1    
   248  126  246 1    
   249  126  247 1    
@<TRIPOS>SUBSTRUCTURE
     1 UNK         1 GROUP             0       ****    0 ROOT    
