@<TRIPOS>MOLECULE
3R540
247   249    1
SMALL
USER_CHARGES


@<TRIPOS>ATOM
      1 CA         -0.6801  -13.7991  -48.4466 C.3       0 UNK        -0.1800 
      2 C           0.7799  -13.3872  -48.5455 C.2       0 UNK         0.5000 
      3 O           1.2430  -12.5573  -47.7621 O.2       0 UNK        -0.5000 
      4 N           1.5135  -13.9852  -49.4946 N.am      1 UNK        -0.5000 
      5 CA          2.9222  -13.6936  -49.8140 C.3       1 UNK         0.1400 
      6 C6          3.4098  -14.4346  -51.0853 C.3       23 UNK        -0.0398 
      7 S7          2.3378  -14.1758  -52.5420 S.3       23 UNK        -0.2404 
      8 C8          1.7147  -15.8599  -52.8550 C.3       23 UNK        -0.0205 
      9 C9          0.7032  -16.2971  -51.8068 C.ar      23 UNK        -0.0193 
     10 C10        -0.6359  -15.9148  -51.9253 C.ar      23 UNK        -0.1150 
     11 C11        -1.5756  -16.3105  -50.9692 C.ar      23 UNK        -0.0193 
     12 C12        -1.1625  -17.0842  -49.8813 C.ar      23 UNK        -0.1150 
     13 C13         0.1757  -17.4639  -49.7451 C.ar      23 UNK        -0.0193 
     14 C14         1.1023  -17.0756  -50.7161 C.ar      23 UNK        -0.1150 
     15 C15         0.6238  -18.2323  -48.5131 C.3       23 UNK        -0.0205 
     16 S16         1.3487  -19.8576  -48.8909 S.3       23 UNK        -0.2404 
     17 C17         1.6786  -20.4602  -47.1880 C.3       23 UNK        -0.0398 
     18 CA          0.9655  -21.7582  -46.6915 C.3       11 UNK         0.1400 
     19 N           0.6618  -21.7011  -45.2558 N.am      11 UNK        -0.5000 
     20 C           0.2564  -22.7377  -44.5071 C.2       10 UNK         0.5000 
     21 O           0.1392  -23.8854  -44.9344 O.2       10 UNK        -0.5000 
     22 CA         -0.1317  -22.4360  -43.0474 C.3       10 UNK         0.1400 
     23 CB          1.1129  -22.3186  -42.1553 C.3       10 UNK        -0.1800 
     24 N          -0.9514  -21.2302  -42.9203 N.am      10 UNK        -0.5000 
     25 C          -2.1795  -21.0951  -43.4426 C.2       9 UNK         0.5000 
     26 O          -2.7685  -21.9916  -44.0460 O.2       9 UNK        -0.5000 
     27 CA         -2.8420  -19.7113  -43.3181 C.3       9 UNK         0.1400 
     28 CB         -3.4635  -19.5233  -41.9264 C.3       9 UNK        -0.1800 
     29 N          -1.9134  -18.6165  -43.6020 N.am      9 UNK        -0.5000 
     30 C          -1.3002  -18.4346  -44.7802 C.2       8 UNK         0.5000 
     31 O          -1.4953  -19.1410  -45.7674 O.2       8 UNK        -0.5000 
     32 CA         -0.2453  -17.3193  -44.8557 C.3       8 UNK         0.1400 
     33 CB         -0.9008  -15.9478  -45.0699 C.3       8 UNK        -0.1800 
     34 N           0.6167  -17.2875  -43.6770 N.am      8 UNK        -0.5000 
     35 C           1.4530  -18.2709  -43.3157 C.2       7 UNK         0.5000 
     36 O           1.6234  -19.2976  -43.9713 O.2       7 UNK        -0.5000 
     37 CA          2.1820  -18.1022  -41.9725 C.3       7 UNK         0.1400 
     38 CB          3.4184  -17.2048  -42.1168 C.3       7 UNK        -0.1800 
     39 N           1.2996  -17.5560  -40.9444 N.am      7 UNK        -0.5000 
     40 C           0.2806  -18.2284  -40.3928 C.2       6 UNK         0.5000 
     41 O          -0.0068  -19.3919  -40.6761 O.2       6 UNK        -0.5000 
     42 CA         -0.5810  -17.4509  -39.3823 C.3       6 UNK         0.1400 
     43 CB          0.0627  -17.4746  -37.9880 C.3       6 UNK        -0.1800 
     44 N          -0.8073  -16.0626  -39.7910 N.am      6 UNK        -0.5000 
     45 C          -1.5467  -15.7053  -40.8497 C.2       5 UNK         0.5000 
     46 O          -2.1119  -16.5079  -41.5917 O.2       5 UNK        -0.5000 
     47 CA         -1.6383  -14.1995  -41.1521 C.3       5 UNK         0.1400 
     48 CB         -2.6697  -13.5241  -40.2356 C.3       5 UNK        -0.1800 
     49 N          -0.3578  -13.4914  -41.0530 N.am      5 UNK        -0.5000 
     50 C           0.7164  -13.7569  -41.8067 C.2       4 UNK         0.5000 
     51 O           0.7943  -14.7119  -42.5816 O.2       4 UNK        -0.5000 
     52 CA          1.9052  -12.7991  -41.6934 C.3       4 UNK         0.1400 
     53 CB          2.9856  -13.3545  -40.7508 C.3       4 UNK        -0.1800 
     54 N           2.4423  -12.6253  -43.0378 N.am      4 UNK        -0.5000 
     55 C           3.0908  -11.5484  -43.4905 C.2       3 UNK         0.5000 
     56 O           3.3933  -10.5930  -42.7730 O.2       3 UNK        -0.5000 
     57 CA          3.4154  -11.5058  -45.0010 C.3       3 UNK         0.1400 
     58 CB          4.7087  -10.7223  -45.3097 C.3       3 UNK        -0.1800 
     59 N           3.4254  -12.8127  -45.6720 N.am      3 UNK        -0.5000 
     60 C           4.2825  -13.8283  -45.4722 C.2       2 UNK         0.5000 
     61 O           5.1488  -13.8328  -44.5976 O.2       2 UNK        -0.5000 
     62 CA          4.1654  -15.0486  -46.4130 C.3       2 UNK         0.1400 
     63 CB          3.4509  -16.2077  -45.7057 C.3       2 UNK        -0.1800 
     64 N           3.4576  -14.7643  -47.6610 N.am      2 UNK        -0.5000 
     65 C           3.8974  -13.9674  -48.6452 C.2       1 UNK         0.5000 
     66 O           5.0130  -13.4457  -48.6514 O.2       1 UNK        -0.5000 
     67 C          -0.2725  -22.1922  -47.5067 C.2       11 UNK         0.5000 
     68 O          -0.1660  -23.1102  -48.3203 O.2       11 UNK        -0.5000 
     69 N          -1.4296  -21.5712  -47.2367 N.am      12 UNK        -0.5000 
     70 CA         -2.7078  -21.8997  -47.8644 C.3       12 UNK         0.1400 
     71 CB         -3.7753  -20.8783  -47.4480 C.3       12 UNK        -0.1800 
     72 C          -3.1677  -23.3384  -47.5788 C.2       12 UNK         0.5000 
     73 O          -3.5946  -24.0229  -48.5081 O.2       12 UNK        -0.5000 
     74 N          -3.0337  -23.7843  -46.3225 N.am      13 UNK        -0.5000 
     75 CA         -3.3400  -25.1493  -45.8931 C.3       13 UNK         0.1400 
     76 CB         -3.2793  -25.2328  -44.3605 C.3       13 UNK        -0.1800 
     77 C          -2.4185  -26.2048  -46.5321 C.2       13 UNK         0.5000 
     78 O          -2.8982  -27.2751  -46.9066 O.2       13 UNK        -0.5000 
     79 N          -1.1226  -25.8852  -46.6549 N.am      14 UNK        -0.5000 
     80 CA         -0.1181  -26.7364  -47.2914 C.3       14 UNK         0.1400 
     81 CB          1.2878  -26.2156  -46.9553 C.3       14 UNK        -0.1800 
     82 C          -0.3112  -26.8420  -48.8145 C.2       14 UNK         0.5000 
     83 O          -0.2123  -27.9412  -49.3617 O.2       14 UNK        -0.5000 
     84 N          -0.5805  -25.7039  -49.4688 N.am      15 UNK        -0.5000 
     85 CA         -0.8161  -25.6141  -50.9095 C.3       15 UNK         0.1400 
     86 CB         -0.7337  -24.1456  -51.3473 C.3       15 UNK        -0.1800 
     87 C          -2.1543  -26.2443  -51.3362 C.2       15 UNK         0.5000 
     88 O          -2.1893  -26.9443  -52.3484 O.2       15 UNK        -0.5000 
     89 N          -3.2087  -26.0006  -50.5420 N.am      16 UNK        -0.5000 
     90 CA         -4.5741  -26.5202  -50.6728 C.3       16 UNK         0.1400 
     91 CB         -4.5958  -28.0131  -50.2837 C.3       16 UNK        -0.1800 
     92 C          -5.2054  -26.2557  -52.0634 C.2       16 UNK         0.5000 
     93 O          -5.4799  -27.2090  -52.7929 O.2       16 UNK        -0.5000 
     94 N          -5.4400  -25.0011  -52.4720 N.am      17 UNK        -0.5000 
     95 CA         -5.1809  -23.7394  -51.7771 C.3       17 UNK         0.1400 
     96 CB         -6.4744  -22.9084  -51.8022 C.3       17 UNK        -0.1800 
     97 C          -4.0552  -22.9724  -52.4892 C.2       17 UNK         0.5000 
     98 O          -3.7471  -23.2645  -53.6484 O.2       17 UNK        -0.5000 
     99 N          -3.4840  -21.9736  -51.8005 N.am      18 UNK        -0.5000 
    100 CA        -2.4941  -21.0482  -52.3615 C.3       18 UNK         0.1400 
    101 CB        -1.9727  -20.0993  -51.2742 C.3       18 UNK        -0.1800 
    102 C         -3.0792  -20.2597  -53.5453 C.2       18 UNK         0.5000 
    103 O         -4.2376  -19.8357  -53.4799 O.2       18 UNK        -0.5000 
    104 N         -2.2975  -20.1672  -54.6306 N.am      19 UNK        -0.5000 
    105 CA        -2.6525  -19.6000  -55.9406 C.3       19 UNK         0.1400 
    106 CB        -2.8562  -18.0759  -55.8240 C.3       19 UNK        -0.1800 
    107 C         -3.8592  -20.2841  -56.6280 C.2       19 UNK         0.5000 
    108 O         -4.3897  -19.7380  -57.5963 O.2       19 UNK        -0.5000 
    109 N         -4.2878  -21.4438  -56.1013 N.am      20 UNK        -0.5000 
    110 CA        -5.5238  -22.1666  -56.4095 C.3       20 UNK         0.1400 
    111 CB        -5.4703  -22.7567  -57.8342 C.3       20 UNK        -0.1800 
    112 C         -6.8005  -21.3334  -56.1487 C.2       20 UNK         0.5000 
    113 O         -7.8232  -21.5833  -56.7903 O.2       20 UNK        -0.5000 
    114 N         -6.7327  -20.3573  -55.2288 N.am      21 UNK        -0.5000 
    115 CA        -7.8184  -19.4131  -54.9733 C.3       21 UNK         0.1400 
    116 CB        -7.8435  -18.3177  -56.0584 C.3       21 UNK        -0.1800 
    117 C         -7.7359  -18.8054  -53.5676 C.2       21 UNK         0.5000 
    118 O         -8.6528  -19.0088  -52.7705 O.2       21 UNK        -0.5000 
    119 N         -6.6715  -18.0379  -53.2994 N.am      22 UNK        -0.5000 
    120 CA        -6.5100  -17.2640  -52.0571 C.3       22 UNK         0.1400 
    121 C         -6.1459  -18.1026  -50.7992 C.2       22 UNK         0.5000 
    122 N         -5.5679  -19.2863  -50.9477 N.am      22 UNK        -0.7600 
    123 O         -6.4059  -17.6768  -49.6773 O.2       22 UNK        -0.5000 
    124 C124       -5.5656  -16.0505  -52.2524 C.3       23 UNK        -0.0398 
    125 S125       -3.8257  -16.4973  -52.5891 S.3       23 UNK        -0.2404 
    126 C126       -3.0262  -15.8668  -51.0817 C.3       23 UNK        -0.0205 
    127 H127       -1.2380  -13.0981  -47.8257 H         1 UNK         0.0600 
    128 H128       -0.7637  -14.7906  -48.0031 H         1 UNK         0.0600 
    129 H129       -1.1428  -13.8189  -49.4330 H         1 UNK         0.0600 
    130 H130        1.0683  -14.6556  -50.1078 H         1 UNK         0.3000 
    131 H131        2.9777  -12.6218  -50.0153 H         1 UNK         0.0600 
    132 H132        4.4077  -14.0860  -51.3578 H         1 UNK         0.0800 
    133 H133        3.5168  -15.5022  -50.8921 H         1 UNK         0.0800 
    134 H134        1.2467  -15.8824  -53.8404 H         1 UNK         0.0800 
    135 H135        2.5494  -16.5610  -52.9025 H         1 UNK         0.0800 
    136 H136       -0.9491  -15.3067  -52.7626 H         1 UNK         0.1150 
    137 H137       -1.8819  -17.3775  -49.1294 H         1 UNK         0.1150 
    138 H138        2.1359  -17.3734  -50.6116 H         1 UNK         0.1150 
    139 H139        1.3526  -17.6297  -47.9701 H         1 UNK         0.0800 
    140 H140       -0.2243  -18.3840  -47.8475 H         1 UNK         0.0800 
    141 H141        1.4422  -19.6411  -46.5107 H         1 UNK         0.0800 
    142 H142        2.7570  -20.5896  -47.0894 H         1 UNK         0.0800 
    143 H143        1.6868  -22.5691  -46.8148 H         1 UNK         0.0600 
    144 H144        0.7764  -20.7978  -44.8041 H         1 UNK         0.3000 
    145 H145       -0.7252  -23.2777  -42.6843 H         1 UNK         0.0600 
    146 H146        0.8359  -22.1734  -41.1109 H         1 UNK         0.0600 
    147 H147        1.7173  -23.2248  -42.2091 H         1 UNK         0.0600 
    148 H148        1.7475  -21.4835  -42.4505 H         1 UNK         0.0600 
    149 H149       -0.5501  -20.4558  -42.4031 H         1 UNK         0.3000 
    150 H150       -3.6454  -19.6626  -44.0560 H         1 UNK         0.0600 
    151 H151       -4.1672  -20.3256  -41.7012 H         1 UNK         0.0600 
    152 H152       -4.0117  -18.5832  -41.8644 H         1 UNK         0.0600 
    153 H153       -2.7060  -19.5203  -41.1425 H         1 UNK         0.0600 
    154 H154       -1.7420  -17.9563  -42.8491 H         1 UNK         0.3000 
    155 H155        0.3923  -17.5225  -45.7157 H         1 UNK         0.0600 
    156 H156       -1.5044  -15.6523  -44.2116 H         1 UNK         0.0600 
    157 H157       -1.5544  -15.9595  -45.9429 H         1 UNK         0.0600 
    158 H158       -0.1510  -15.1735  -45.2338 H         1 UNK         0.0600 
    159 H159        0.5746  -16.4433  -43.1102 H         1 UNK         0.3000 
    160 H160        2.5162  -19.0888  -41.6444 H         1 UNK         0.0600 
    161 H161        3.1633  -16.2257  -42.5232 H         1 UNK         0.0600 
    162 H162        4.1491  -17.6620  -42.7844 H         1 UNK         0.0600 
    163 H163        3.9120  -17.0525  -41.1569 H         1 UNK         0.0600 
    164 H164        1.4358  -16.5892  -40.6910 H         1 UNK         0.3000 
    165 H165       -1.5502  -17.9503  -39.3187 H         1 UNK         0.0600 
    166 H166       -0.5784  -16.9923  -37.2499 H         1 UNK         0.0600 
    167 H167        0.2285  -18.4994  -37.6528 H         1 UNK         0.0600 
    168 H168        1.0275  -16.9659  -37.9789 H         1 UNK         0.0600 
    169 H169       -0.3703  -15.3404  -39.2376 H         1 UNK         0.3000 
    170 H170       -1.9877  -14.0980  -42.1818 H         1 UNK         0.0600 
    171 H171       -3.6371  -14.0241  -40.3009 H         1 UNK         0.0600 
    172 H172       -2.3583  -13.5466  -39.1906 H         1 UNK         0.0600 
    173 H173       -2.8253  -12.4825  -40.5173 H         1 UNK         0.0600 
    174 H174       -0.3341  -12.6961  -40.4310 H         1 UNK         0.3000 
    175 H175        1.5487  -11.8386  -41.3152 H         1 UNK         0.0600 
    176 H176        3.3890  -14.3003  -41.1123 H         1 UNK         0.0600 
    177 H177        3.8167  -12.6563  -40.6513 H         1 UNK         0.0600 
    178 H178        2.5837  -13.5261  -39.7517 H         1 UNK         0.0600 
    179 H179        2.1984  -13.3655  -43.6831 H         1 UNK         0.3000 
    180 H180        2.5915  -10.9554  -45.4574 H         1 UNK         0.0600 
    181 H181        5.5773  -11.1660  -44.8226 H         1 UNK         0.0600 
    182 H182        4.6345   -9.6900  -44.9661 H         1 UNK         0.0600 
    183 H183        4.9041  -10.6917  -46.3818 H         1 UNK         0.0600 
    184 H184        2.7372  -12.9101  -46.4124 H         1 UNK         0.3000 
    185 H185        5.1780  -15.3700  -46.6652 H         1 UNK         0.0600 
    186 H186        4.0156  -16.5234  -44.8302 H         1 UNK         0.0600 
    187 H187        2.4536  -15.9196  -45.3728 H         1 UNK         0.0600 
    188 H188        3.3544  -17.0777  -46.3556 H         1 UNK         0.0600 
    189 H189        2.5248  -15.1382  -47.7470 H         1 UNK         0.3000 
    190 H190       -1.4339  -20.7990  -46.5735 H         1 UNK         0.3000 
    191 H191       -2.5708  -21.8204  -48.9423 H         1 UNK         0.0600 
    192 H192       -3.4959  -19.8707  -47.7574 H         1 UNK         0.0600 
    193 H193       -4.7381  -21.1061  -47.9066 H         1 UNK         0.0600 
    194 H194       -3.9197  -20.8670  -46.3674 H         1 UNK         0.0600 
    195 H195       -2.7156  -23.1413  -45.6023 H         1 UNK         0.3000 
    196 H196       -4.3626  -25.3734  -46.2038 H         1 UNK         0.0600 
    197 H197       -3.5156  -26.2394  -44.0133 H         1 UNK         0.0600 
    198 H198       -3.9969  -24.5533  -43.9006 H         1 UNK         0.0600 
    199 H199       -2.2886  -24.9779  -43.9829 H         1 UNK         0.0600 
    200 H200       -0.7936  -25.0068  -46.2650 H         1 UNK         0.3000 
    201 H201       -0.2125  -27.7410  -46.8737 H         1 UNK         0.0600 
    202 H202        1.4630  -26.2233  -45.8794 H         1 UNK         0.0600 
    203 H203        1.4354  -25.1949  -47.3098 H         1 UNK         0.0600 
    204 H204        2.0563  -26.8385  -47.4147 H         1 UNK         0.0600 
    205 H205       -0.5868  -24.8277  -48.9512 H         1 UNK         0.3000 
    206 H206       -0.0181  -26.1593  -51.4181 H         1 UNK         0.0600 
    207 H207        0.2643  -23.7405  -51.1793 H         1 UNK         0.0600 
    208 H208       -0.9566  -24.0383  -52.4096 H         1 UNK         0.0600 
    209 H209       -1.4379  -23.5266  -50.7920 H         1 UNK         0.0600 
    210 H210       -3.0740  -25.3785  -49.7492 H         1 UNK         0.3000 
    211 H211       -5.1870  -25.9969  -49.9380 H         1 UNK         0.0600 
    212 H212       -3.9933  -28.6191  -50.9612 H         1 UNK         0.0600 
    213 H213       -5.6121  -28.4083  -50.3040 H         1 UNK         0.0600 
    214 H214       -4.2109  -28.1607  -49.2746 H         1 UNK         0.0600 
    215 H215       -5.7623  -24.8826  -53.4205 H         1 UNK         0.3000 
    216 H216       -4.8959  -23.8973  -50.7395 H         1 UNK         0.0600 
    217 H217       -6.3572  -21.9770  -51.2486 H         1 UNK         0.0600 
    218 H218       -7.3001  -23.4517  -51.3424 H         1 UNK         0.0600 
    219 H219       -6.7709  -22.6487  -52.8197 H         1 UNK         0.0600 
    220 H220       -3.8075  -21.7749  -50.8677 H         1 UNK         0.3000 
    221 H221       -1.6518  -21.6410  -52.7229 H         1 UNK         0.0600 
    222 H222       -2.7784  -19.5538  -50.7832 H         1 UNK         0.0600 
    223 H223       -1.4083  -20.6371  -50.5133 H         1 UNK         0.0600 
    224 H224       -1.2947  -19.3597  -51.7021 H         1 UNK         0.0600 
    225 H225       -1.3745  -20.5760  -54.5847 H         1 UNK         0.3000 
    226 H226       -1.7936  -19.7730  -56.5903 H         1 UNK         0.0600 
    227 H227       -2.0287  -17.6027  -55.2951 H         1 UNK         0.0600 
    228 H228       -2.9197  -17.6120  -56.8088 H         1 UNK         0.0600 
    229 H229       -3.7763  -17.8340  -55.2920 H         1 UNK         0.0600 
    230 H230       -3.7801  -21.8123  -55.3058 H         1 UNK         0.3000 
    231 H231       -5.5670  -23.0028  -55.7108 H         1 UNK         0.0600 
    232 H232       -5.5034  -21.9785  -58.5971 H         1 UNK         0.0600 
    233 H233       -6.3130  -23.4253  -58.0135 H         1 UNK         0.0600 
    234 H234       -4.5606  -23.3375  -57.9860 H         1 UNK         0.0600 
    235 H235       -5.8764  -20.2234  -54.6995 H         1 UNK         0.3000 
    236 H236       -8.7677  -19.9517  -55.0180 H         1 UNK         0.0600 
    237 H237       -8.0835  -18.7355  -57.0362 H         1 UNK         0.0600 
    238 H238       -8.5983  -17.5621  -55.8371 H         1 UNK         0.0600 
    239 H239       -6.8817  -17.8105  -56.1433 H         1 UNK         0.0600 
    240 H240       -5.9168  -17.9683  -53.9663 H         1 UNK         0.3000 
    241 H241       -7.4907  -16.8382  -51.8345 H         1 UNK         0.0600 
    242 H242       -5.3513  -19.8246  -50.1284 H         1 UNK         0.3800 
    243 H243       -5.2633  -19.5785  -51.8714 H         1 UNK         0.3800 
    244 H244       -5.9206  -15.4451  -53.0872 H         1 UNK         0.0800 
    245 H245       -5.6174  -15.3951  -51.3815 H         1 UNK         0.0800 
    246 H246       -3.0691  -14.7769  -51.0797 H         1 UNK         0.0800 
    247 H247       -3.5934  -16.2035  -50.2123 H         1 UNK         0.0800 
@<TRIPOS>BOND
     1    1    2 1    
     2    1  127 1    
     3    1  128 1    
     4    1  129 1    
     5    2    3 2    
     6    2    4 am   BACKBONE|DICT|INTERRES
     7    4    5 1    
     8    4  130 1    
     9    5    6 1    
    10    5   65 1    
    11    5  131 1    
    12    6    7 1    
    13    6  132 1    
    14    6  133 1    
    15    7    8 1    
    16    8    9 1    
    17    8  134 1    
    18    8  135 1    
    19    9   10 ar   
    20    9   14 ar   
    21   10   11 ar   
    22   10  136 1    
    23   11   12 ar   
    24   11  126 1    
    25   12   13 ar   
    26   12  137 1    
    27   13   14 ar   
    28   13   15 1    
    29   14  138 1    
    30   15   16 1    
    31   15  139 1    
    32   15  140 1    
    33   16   17 1    
    34   17   18 1    
    35   17  141 1    
    36   17  142 1    
    37   18   19 1    
    38   18   67 1    
    39   18  143 1    
    40   19   20 am   BACKBONE|DICT|INTERRES
    41   19  144 1    
    42   20   21 2    
    43   20   22 1    
    44   22   23 1    
    45   22   24 1    
    46   22  145 1    
    47   23  146 1    
    48   23  147 1    
    49   23  148 1    
    50   24   25 am   BACKBONE|DICT|INTERRES
    51   24  149 1    
    52   25   26 2    
    53   25   27 1    
    54   27   28 1    
    55   27   29 1    
    56   27  150 1    
    57   28  151 1    
    58   28  152 1    
    59   28  153 1    
    60   29   30 am   BACKBONE|DICT|INTERRES
    61   29  154 1    
    62   30   31 2    
    63   30   32 1    
    64   32   33 1    
    65   32   34 1    
    66   32  155 1    
    67   33  156 1    
    68   33  157 1    
    69   33  158 1    
    70   34   35 am   BACKBONE|DICT|INTERRES
    71   34  159 1    
    72   35   36 2    
    73   35   37 1    
    74   37   38 1    
    75   37   39 1    
    76   37  160 1    
    77   38  161 1    
    78   38  162 1    
    79   38  163 1    
    80   39   40 am   BACKBONE|DICT|INTERRES
    81   39  164 1    
    82   40   41 2    
    83   40   42 1    
    84   42   43 1    
    85   42   44 1    
    86   42  165 1    
    87   43  166 1    
    88   43  167 1    
    89   43  168 1    
    90   44   45 am   BACKBONE|DICT|INTERRES
    91   44  169 1    
    92   45   46 2    
    93   45   47 1    
    94   47   48 1    
    95   47   49 1    
    96   47  170 1    
    97   48  171 1    
    98   48  172 1    
    99   48  173 1    
   100   49   50 am   BACKBONE|DICT|INTERRES
   101   49  174 1    
   102   50   51 2    
   103   50   52 1    
   104   52   53 1    
   105   52   54 1    
   106   52  175 1    
   107   53  176 1    
   108   53  177 1    
   109   53  178 1    
   110   54   55 am   BACKBONE|DICT|INTERRES
   111   54  179 1    
   112   55   56 2    
   113   55   57 1    
   114   57   58 1    
   115   57   59 1    
   116   57  180 1    
   117   58  181 1    
   118   58  182 1    
   119   58  183 1    
   120   59   60 am   BACKBONE|DICT|INTERRES
   121   59  184 1    
   122   60   61 2    
   123   60   62 1    
   124   62   63 1    
   125   62   64 1    
   126   62  185 1    
   127   63  186 1    
   128   63  187 1    
   129   63  188 1    
   130   64   65 am   BACKBONE|DICT|INTERRES
   131   64  189 1    
   132   65   66 2    
   133   67   68 2    
   134   67   69 am   BACKBONE|DICT|INTERRES
   135   69   70 1    
   136   69  190 1    
   137   70   71 1    
   138   70   72 1    
   139   70  191 1    
   140   71  192 1    
   141   71  193 1    
   142   71  194 1    
   143   72   73 2    
   144   72   74 am   BACKBONE|DICT|INTERRES
   145   74   75 1    
   146   74  195 1    
   147   75   76 1    
   148   75   77 1    
   149   75  196 1    
   150   76  197 1    
   151   76  198 1    
   152   76  199 1    
   153   77   78 2    
   154   77   79 am   BACKBONE|DICT|INTERRES
   155   79   80 1    
   156   79  200 1    
   157   80   81 1    
   158   80   82 1    
   159   80  201 1    
   160   81  202 1    
   161   81  203 1    
   162   81  204 1    
   163   82   83 2    
   164   82   84 am   BACKBONE|DICT|INTERRES
   165   84   85 1    
   166   84  205 1    
   167   85   86 1    
   168   85   87 1    
   169   85  206 1    
   170   86  207 1    
   171   86  208 1    
   172   86  209 1    
   173   87   88 2    
   174   87   89 am   BACKBONE|DICT|INTERRES
   175   89   90 1    
   176   89  210 1    
   177   90   91 1    
   178   90   92 1    
   179   90  211 1    
   180   91  212 1    
   181   91  213 1    
   182   91  214 1    
   183   92   93 2    
   184   92   94 am   BACKBONE|DICT|INTERRES
   185   94   95 1    
   186   94  215 1    
   187   95   96 1    
   188   95   97 1    
   189   95  216 1    
   190   96  217 1    
   191   96  218 1    
   192   96  219 1    
   193   97   98 2    
   194   97   99 am   BACKBONE|DICT|INTERRES
   195   99  100 1    
   196   99  220 1    
   197  100  101 1    
   198  100  102 1    
   199  100  221 1    
   200  101  222 1    
   201  101  223 1    
   202  101  224 1    
   203  102  103 2    
   204  102  104 am   BACKBONE|DICT|INTERRES
   205  104  105 1    
   206  104  225 1    
   207  105  106 1    
   208  105  107 1    
   209  105  226 1    
   210  106  227 1    
   211  106  228 1    
   212  106  229 1    
   213  107  108 2    
   214  107  109 am   BACKBONE|DICT|INTERRES
   215  109  110 1    
   216  109  230 1    
   217  110  111 1    
   218  110  112 1    
   219  110  231 1    
   220  111  232 1    
   221  111  233 1    
   222  111  234 1    
   223  112  113 2    
   224  112  114 am   BACKBONE|DICT|INTERRES
   225  114  115 1    
   226  114  235 1    
   227  115  116 1    
   228  115  117 1    
   229  115  236 1    
   230  116  237 1    
   231  116  238 1    
   232  116  239 1    
   233  117  118 2    
   234  117  119 am   BACKBONE|DICT|INTERRES
   235  119  120 1    
   236  119  240 1    
   237  120  121 1    
   238  120  124 1    
   239  120  241 1    
   240  121  122 am   BACKBONE|DICT|INTERRES
   241  121  123 2    
   242  122  242 1    
   243  122  243 1    
   244  124  125 1    
   245  124  244 1    
   246  124  245 1    
   247  125  126 1    
   248  126  246 1    
   249  126  247 1    
@<TRIPOS>SUBSTRUCTURE
     1 UNK         1 GROUP             0       ****    0 ROOT    
