@<TRIPOS>MOLECULE
3R540
247   249    1
SMALL
USER_CHARGES


@<TRIPOS>ATOM
      1 CA         -0.9642  -11.3628  -46.6122 C.3       0 UNK        -0.1800 
      2 C           0.3548  -11.9107  -47.1374 C.2       0 UNK         0.5000 
      3 O           0.7882  -12.9780  -46.7045 O.2       0 UNK        -0.5000 
      4 N           0.9956  -11.1798  -48.0610 N.am      1 UNK        -0.5000 
      5 CA          2.2873  -11.4645  -48.7076 C.3       1 UNK         0.1400 
      6 C6          2.2921  -12.7925  -49.5421 C.3       23 UNK        -0.0398 
      7 S7          3.7715  -13.8743  -49.4649 S.3       23 UNK        -0.2404 
      8 C8          3.2091  -15.1781  -48.3242 C.3       23 UNK        -0.0205 
      9 C9          2.7611  -16.4299  -49.0645 C.ar      23 UNK        -0.0193 
     10 C10         1.6025  -16.4220  -49.8496 C.ar      23 UNK        -0.1150 
     11 C11         1.1683  -17.5808  -50.5005 C.ar      23 UNK        -0.0193 
     12 C12         1.9209  -18.7521  -50.3669 C.ar      23 UNK        -0.1150 
     13 C13         3.0684  -18.7814  -49.5717 C.ar      23 UNK        -0.0193 
     14 C14         3.4892  -17.6152  -48.9297 C.ar      23 UNK        -0.1150 
     15 C15         3.8281  -20.0853  -49.3799 C.3       23 UNK        -0.0205 
     16 S16         3.1867  -21.0331  -47.9613 S.3       23 UNK        -0.2404 
     17 C17         1.4914  -21.3990  -48.5263 C.3       23 UNK        -0.0398 
     18 CA          0.7922  -22.4766  -47.6745 C.3       11 UNK         0.1400 
     19 N           0.5142  -22.0248  -46.3091 N.am      11 UNK        -0.5000 
     20 C           0.0737  -22.8253  -45.3289 C.2       10 UNK         0.5000 
     21 O          -0.0890  -24.0396  -45.4582 O.2       10 UNK        -0.5000 
     22 CA         -0.2992  -22.1478  -43.9991 C.3       10 UNK         0.1400 
     23 CB          0.9560  -21.8455  -43.1673 C.3       10 UNK        -0.1800 
     24 N          -1.0769  -20.9224  -44.1950 N.am      10 UNK        -0.5000 
     25 C          -2.3011  -20.8860  -44.7417 C.2       9 UNK         0.5000 
     26 O          -2.9175  -21.8907  -45.0952 O.2       9 UNK        -0.5000 
     27 CA         -2.9336  -19.5004  -44.9691 C.3       9 UNK         0.1400 
     28 CB         -3.5668  -18.9716  -43.6746 C.3       9 UNK        -0.1800 
     29 N          -1.9884  -18.5146  -45.4921 N.am      9 UNK        -0.5000 
     30 C          -1.3547  -18.6113  -46.6697 C.2       8 UNK         0.5000 
     31 O          -1.5051  -19.5438  -47.4563 O.2       8 UNK        -0.5000 
     32 CA         -0.3327  -17.5113  -46.9949 C.3       8 UNK         0.1400 
     33 CB         -1.0269  -16.2432  -47.5168 C.3       8 UNK        -0.1800 
     34 N           0.5016  -17.1770  -45.8434 N.am      8 UNK        -0.5000 
     35 C           1.3553  -18.0262  -45.2544 C.2       7 UNK         0.5000 
     36 O           1.5407  -19.1857  -45.6234 O.2       7 UNK        -0.5000 
     37 CA          2.0775  -17.4961  -44.0041 C.3       7 UNK         0.1400 
     38 CB          3.1517  -16.4705  -44.3967 C.3       7 UNK        -0.1800 
     39 N           1.1467  -16.8885  -43.0511 N.am      7 UNK        -0.5000 
     40 C           0.1748  -17.5566  -42.4099 C.2       6 UNK         0.5000 
     41 O           0.0007  -18.7703  -42.5071 O.2       6 UNK        -0.5000 
     42 CA         -0.7991  -16.7270  -41.5503 C.3       6 UNK         0.1400 
     43 CB         -0.2730  -16.6002  -40.1130 C.3       6 UNK        -0.1800 
     44 N          -1.0548  -15.3892  -42.0844 N.am      6 UNK        -0.5000 
     45 C          -1.5336  -15.1099  -43.3052 C.2       5 UNK         0.5000 
     46 O          -1.8873  -15.9737  -44.1074 O.2       5 UNK        -0.5000 
     47 CA         -1.6044  -13.6253  -43.7163 C.3       5 UNK         0.1400 
     48 CB         -3.0633  -13.1836  -43.9075 C.3       5 UNK        -0.1800 
     49 N          -0.9463  -12.7050  -42.7809 N.am      5 UNK        -0.5000 
     50 C           0.3746  -12.6299  -42.5750 C.2       4 UNK         0.5000 
     51 O           1.2009  -13.3568  -43.1336 O.2       4 UNK        -0.5000 
     52 CA          0.8397  -11.6132  -41.5250 C.3       4 UNK         0.1400 
     53 CB          0.7836  -12.2169  -40.1114 C.3       4 UNK        -0.1800 
     54 N           2.2071  -11.2279  -41.8405 N.am      4 UNK        -0.5000 
     55 C           2.7541  -10.0268  -41.6241 C.2       3 UNK         0.5000 
     56 O           2.1882   -9.1188  -41.0135 O.2       3 UNK        -0.5000 
     57 CA          4.1672   -9.7878  -42.1991 C.3       3 UNK         0.1400 
     58 CB          5.2260   -9.9219  -41.0936 C.3       3 UNK        -0.1800 
     59 N           4.5194  -10.6863  -43.3048 N.am      3 UNK        -0.5000 
     60 C           3.9115  -10.7116  -44.4991 C.2       2 UNK         0.5000 
     61 O           3.0075   -9.9319  -44.8121 O.2       2 UNK        -0.5000 
     62 CA          4.3874  -11.7977  -45.4863 C.3       2 UNK         0.1400 
     63 CB          4.5400  -13.1723  -44.8100 C.3       2 UNK        -0.1800 
     64 N           3.4420  -11.9363  -46.5889 N.am      2 UNK        -0.5000 
     65 C           3.4761  -11.2543  -47.7378 C.2       1 UNK         0.5000 
     66 O           4.3766  -10.4683  -48.0401 O.2       1 UNK        -0.5000 
     67 C          -0.4842  -22.9741  -48.3818 C.2       11 UNK         0.5000 
     68 O          -0.4391  -24.0227  -49.0218 O.2       11 UNK        -0.5000 
     69 N          -1.6024  -22.2491  -48.2303 N.am      12 UNK        -0.5000 
     70 CA         -2.9108  -22.6231  -48.7691 C.3       12 UNK         0.1400 
     71 CB         -3.9226  -21.4946  -48.5301 C.3       12 UNK        -0.1800 
     72 C          -3.4357  -23.9447  -48.1886 C.2       12 UNK         0.5000 
     73 O          -3.9568  -24.7642  -48.9426 O.2       12 UNK        -0.5000 
     74 N          -3.2570  -24.1487  -46.8763 N.am      13 UNK        -0.5000 
     75 CA         -3.5892  -25.3909  -46.1800 C.3       13 UNK         0.1400 
     76 CB         -3.4413  -25.1927  -44.6640 C.3       13 UNK        -0.1800 
     77 C          -2.7446  -26.5821  -46.6673 C.2       13 UNK         0.5000 
     78 O          -3.2976  -27.6570  -46.9005 O.2       13 UNK        -0.5000 
     79 N          -1.4354  -26.3605  -46.8559 N.am      14 UNK        -0.5000 
     80 CA         -0.4967  -27.3456  -47.3991 C.3       14 UNK         0.1400 
     81 CB          0.9406  -26.8292  -47.2331 C.3       14 UNK        -0.1800 
     82 C          -0.7860  -27.7031  -48.8707 C.2       14 UNK         0.5000 
     83 O          -0.7021  -28.8746  -49.2408 O.2       14 UNK        -0.5000 
     84 N          -1.1474  -26.6936  -49.6736 N.am      15 UNK        -0.5000 
     85 CA         -1.5344  -26.8264  -51.0801 C.3       15 UNK         0.1400 
     86 CB         -1.4291  -25.4467  -51.7504 C.3       15 UNK        -0.1800 
     87 C          -2.9488  -27.4077  -51.2829 C.2       15 UNK         0.5000 
     88 O          -3.2846  -27.7784  -52.4078 O.2       15 UNK        -0.5000 
     89 N          -3.7502  -27.4531  -50.2085 N.am      16 UNK        -0.5000 
     90 CA         -5.1621  -27.8432  -50.1564 C.3       16 UNK         0.1400 
     91 CB         -5.3391  -29.3356  -50.5062 C.3       16 UNK        -0.1800 
     92 C          -6.0599  -26.9031  -50.9897 C.2       16 UNK         0.5000 
     93 O          -6.9475  -27.3682  -51.7072 O.2       16 UNK        -0.5000 
     94 N          -5.7989  -25.5923  -50.8649 N.am      17 UNK        -0.5000 
     95 CA         -6.4595  -24.4707  -51.5391 C.3       17 UNK         0.1400 
     96 CB         -7.8973  -24.2918  -51.0109 C.3       17 UNK        -0.1800 
     97 C          -6.3844  -24.5859  -53.0745 C.2       17 UNK         0.5000 
     98 O          -7.4127  -24.6019  -53.7549 O.2       17 UNK        -0.5000 
     99 N          -5.1509  -24.6858  -53.5884 N.am      18 UNK        -0.5000 
    100 CA        -4.8433  -24.7759  -55.0185 C.3       18 UNK         0.1400 
    101 CB        -3.3574  -25.1227  -55.1915 C.3       18 UNK        -0.1800 
    102 C         -5.1910  -23.4940  -55.8015 C.2       18 UNK         0.5000 
    103 O         -5.4618  -23.5687  -57.0010 O.2       18 UNK        -0.5000 
    104 N         -5.1933  -22.3528  -55.1077 N.am      19 UNK        -0.5000 
    105 CA        -5.6318  -21.0522  -55.5936 C.3       19 UNK         0.1400 
    106 CB        -4.4111  -20.2672  -56.1012 C.3       19 UNK        -0.1800 
    107 C         -6.3542  -20.3205  -54.4514 C.2       19 UNK         0.5000 
    108 O         -6.3563  -20.8016  -53.3141 O.2       19 UNK        -0.5000 
    109 N         -6.9572  -19.1679  -54.7700 N.am      20 UNK        -0.5000 
    110 CA        -7.6650  -18.2928  -53.8330 C.3       20 UNK         0.1400 
    111 CB        -8.3126  -17.1388  -54.6170 C.3       20 UNK        -0.1800 
    112 C         -6.7294  -17.7736  -52.7230 C.2       20 UNK         0.5000 
    113 O         -5.9618  -16.8382  -52.9575 O.2       20 UNK        -0.5000 
    114 N         -6.7872  -18.4364  -51.5589 N.am      21 UNK        -0.5000 
    115 CA        -5.9297  -18.2491  -50.3842 C.3       21 UNK         0.1400 
    116 CB        -6.1949  -16.8797  -49.7236 C.3       21 UNK        -0.1800 
    117 C         -4.4339  -18.5007  -50.6775 C.2       21 UNK         0.5000 
    118 O         -3.5776  -17.8164  -50.1160 O.2       21 UNK        -0.5000 
    119 N         -4.1417  -19.4814  -51.5426 N.am      22 UNK        -0.5000 
    120 CA        -2.7828  -19.8874  -51.9222 C.3       22 UNK         0.1400 
    121 C         -2.7443  -21.3428  -52.4740 C.2       22 UNK         0.5000 
    122 N         -1.6032  -21.7986  -52.9691 N.am      22 UNK        -0.7600 
    123 O         -3.7284  -22.0788  -52.4418 O.2       22 UNK        -0.5000 
    124 C124       -2.0934  -18.8348  -52.8439 C.3       23 UNK        -0.0398 
    125 S125       -0.2847  -18.7696  -52.6174 S.3       23 UNK        -0.2404 
    126 C126       -0.1604  -17.5609  -51.2540 C.3       23 UNK        -0.0205 
    127 H127       -1.2630  -10.4535  -47.1340 H         1 UNK         0.0600 
    128 H128       -0.8758  -11.1326  -45.5505 H         1 UNK         0.0600 
    129 H129       -1.7547  -12.1025  -46.7392 H         1 UNK         0.0600 
    130 H130        0.5817  -10.3003  -48.3377 H         1 UNK         0.3000 
    131 H131        2.3929  -10.6590  -49.4366 H         1 UNK         0.0600 
    132 H132        2.1457  -12.5411  -50.5932 H         1 UNK         0.0800 
    133 H133        1.4206  -13.3964  -49.2947 H         1 UNK         0.0800 
    134 H134        2.3989  -14.8188  -47.6897 H         1 UNK         0.0800 
    135 H135        4.0316  -15.4122  -47.6469 H         1 UNK         0.0800 
    136 H136        1.0186  -15.5180  -49.9336 H         1 UNK         0.1150 
    137 H137        1.5939  -19.6631  -50.8450 H         1 UNK         0.1150 
    138 H138        4.3727  -17.6390  -48.3074 H         1 UNK         0.1150 
    139 H139        3.7728  -20.6939  -50.2838 H         1 UNK         0.0800 
    140 H140        4.8867  -19.8781  -49.2170 H         1 UNK         0.0800 
    141 H141        1.5519  -21.7189  -49.5684 H         1 UNK         0.0800 
    142 H142        0.9070  -20.4778  -48.5104 H         1 UNK         0.0800 
    143 H143        1.4656  -23.3335  -47.6023 H         1 UNK         0.0600 
    144 H144        0.6607  -21.0392  -46.1160 H         1 UNK         0.3000 
    145 H145       -0.9176  -22.8483  -43.4341 H         1 UNK         0.0600 
    146 H146        0.6912  -21.4623  -42.1818 H         1 UNK         0.0600 
    147 H147        1.5940  -21.1063  -43.6526 H         1 UNK         0.0600 
    148 H148        1.5516  -22.7466  -43.0162 H         1 UNK         0.0600 
    149 H149       -0.6468  -20.0572  -43.8829 H         1 UNK         0.3000 
    150 H150       -3.7267  -19.6155  -45.7105 H         1 UNK         0.0600 
    151 H151       -4.3318  -19.6569  -43.3076 H         1 UNK         0.0600 
    152 H152       -4.0434  -18.0039  -43.8328 H         1 UNK         0.0600 
    153 H153       -2.8253  -18.8558  -42.8848 H         1 UNK         0.0600 
    154 H154       -1.8273  -17.6868  -44.9238 H         1 UNK         0.3000 
    155 H155        0.3235  -17.8954  -47.7770 H         1 UNK         0.0600 
    156 H156       -1.7153  -15.8245  -46.7826 H         1 UNK         0.0600 
    157 H157       -1.6024  -16.4597  -48.4176 H         1 UNK         0.0600 
    158 H158       -0.3017  -15.4700  -47.7698 H         1 UNK         0.0600 
    159 H159        0.3707  -16.2610  -45.4410 H         1 UNK         0.3000 
    160 H160        2.5674  -18.3394  -43.5126 H         1 UNK         0.0600 
    161 H161        2.7134  -15.5990  -44.8844 H         1 UNK         0.0600 
    162 H162        3.8724  -16.9057  -45.0902 H         1 UNK         0.0600 
    163 H163        3.7062  -16.1237  -43.5245 H         1 UNK         0.0600 
    164 H164        1.2070  -15.8863  -42.9292 H         1 UNK         0.3000 
    165 H165       -1.7521  -17.2572  -41.5200 H         1 UNK         0.0600 
    166 H166       -0.9928  -16.0907  -39.4722 H         1 UNK         0.0600 
    167 H167       -0.0897  -17.5829  -39.6764 H         1 UNK         0.0600 
    168 H168        0.6644  -16.0435  -40.0749 H         1 UNK         0.0600 
    169 H169       -0.7959  -14.6129  -41.4954 H         1 UNK         0.3000 
    170 H170       -1.0953  -13.5484  -44.6784 H         1 UNK         0.0600 
    171 H171       -3.5729  -13.8181  -44.6340 H         1 UNK         0.0600 
    172 H172       -3.6248  -13.2365  -42.9740 H         1 UNK         0.0600 
    173 H173       -3.1209  -12.1601  -44.2782 H         1 UNK         0.0600 
    174 H174       -1.5567  -12.0885  -42.2633 H         1 UNK         0.3000 
    175 H175        0.1884  -10.7382  -41.5788 H         1 UNK         0.0600 
    176 H176        1.4154  -13.1022  -40.0272 H         1 UNK         0.0600 
    177 H177        1.1160  -11.4976  -39.3627 H         1 UNK         0.0600 
    178 H178       -0.2333  -12.5106  -39.8486 H         1 UNK         0.0600 
    179 H179        2.7120  -11.9091  -42.3923 H         1 UNK         0.3000 
    180 H180        4.1951   -8.7638  -42.5773 H         1 UNK         0.0600 
    181 H181        6.2204   -9.6755  -41.4665 H         1 UNK         0.0600 
    182 H182        5.2586  -10.9342  -40.6888 H         1 UNK         0.0600 
    183 H183        5.0146   -9.2442  -40.2654 H         1 UNK         0.0600 
    184 H184        5.2556  -11.3522  -43.1203 H         1 UNK         0.3000 
    185 H185        5.3618  -11.4942  -45.8742 H         1 UNK         0.0600 
    186 H186        3.6264  -13.4655  -44.2932 H         1 UNK         0.0600 
    187 H187        4.7727  -13.9467  -45.5412 H         1 UNK         0.0600 
    188 H188        5.3493  -13.1742  -44.0796 H         1 UNK         0.0600 
    189 H189        2.6112  -12.4937  -46.4103 H         1 UNK         0.3000 
    190 H190       -1.5534  -21.3594  -47.7378 H         1 UNK         0.3000 
    191 H191       -2.7949  -22.7559  -49.8457 H         1 UNK         0.0600 
    192 H192       -3.5393  -20.5433  -48.8927 H         1 UNK         0.0600 
    193 H193       -4.1543  -21.3742  -47.4720 H         1 UNK         0.0600 
    194 H194       -4.8584  -21.6938  -49.0537 H         1 UNK         0.0600 
    195 H195       -2.8779  -23.3944  -46.3102 H         1 UNK         0.3000 
    196 H196       -4.6363  -25.6191  -46.3900 H         1 UNK         0.0600 
    197 H197       -4.0992  -24.4010  -44.3053 H         1 UNK         0.0600 
    198 H198       -2.4206  -24.9277  -44.3882 H         1 UNK         0.0600 
    199 H199       -3.7025  -26.1033  -44.1236 H         1 UNK         0.0600 
    200 H200       -1.0522  -25.4547  -46.6049 H         1 UNK         0.3000 
    201 H201       -0.5964  -28.2603  -46.8110 H         1 UNK         0.0600 
    202 H202        1.1714  -26.6370  -46.1851 H         1 UNK         0.0600 
    203 H203        1.1037  -25.9036  -47.7853 H         1 UNK         0.0600 
    204 H204        1.6628  -27.5608  -47.5973 H         1 UNK         0.0600 
    205 H205       -1.1104  -25.7450  -49.3070 H         1 UNK         0.3000 
    206 H206       -0.8285  -27.4999  -51.5701 H         1 UNK         0.0600 
    207 H207       -2.1363  -24.7356  -51.3214 H         1 UNK         0.0600 
    208 H208       -0.4278  -25.0297  -51.6418 H         1 UNK         0.0600 
    209 H209       -1.6343  -25.5149  -52.8181 H         1 UNK         0.0600 
    210 H210       -3.3766  -27.0823  -49.3447 H         1 UNK         0.3000 
    211 H211       -5.4703  -27.7129  -49.1180 H         1 UNK         0.0600 
    212 H212       -5.1072  -29.5399  -51.5518 H         1 UNK         0.0600 
    213 H213       -6.3665  -29.6569  -50.3318 H         1 UNK         0.0600 
    214 H214       -4.6945  -29.9628  -49.8904 H         1 UNK         0.0600 
    215 H215       -5.0518  -25.3281  -50.2228 H         1 UNK         0.3000 
    216 H216       -5.8986  -23.5740  -51.2696 H         1 UNK         0.0600 
    217 H217       -8.3627  -23.4062  -51.4455 H         1 UNK         0.0600 
    218 H218       -7.9050  -24.1644  -49.9285 H         1 UNK         0.0600 
    219 H219       -8.5292  -25.1468  -51.2529 H         1 UNK         0.0600 
    220 H220       -4.3638  -24.6390  -52.9581 H         1 UNK         0.3000 
    221 H221       -5.4365  -25.5903  -55.4392 H         1 UNK         0.0600 
    222 H222       -2.7140  -24.3527  -54.7646 H         1 UNK         0.0600 
    223 H223       -3.1167  -26.0721  -54.7130 H         1 UNK         0.0600 
    224 H224       -3.0988  -25.2183  -56.2468 H         1 UNK         0.0600 
    225 H225       -4.9877  -22.3811  -54.1125 H         1 UNK         0.3000 
    226 H226       -6.3488  -21.1797  -56.4073 H         1 UNK         0.0600 
    227 H227       -3.9438  -20.7750  -56.9450 H         1 UNK         0.0600 
    228 H228       -4.6863  -19.2673  -56.4380 H         1 UNK         0.0600 
    229 H229       -3.6579  -20.1607  -55.3225 H         1 UNK         0.0600 
    230 H230       -6.8927  -18.8343  -55.7206 H         1 UNK         0.3000 
    231 H231       -8.4673  -18.8717  -53.3706 H         1 UNK         0.0600 
    232 H232       -8.8424  -16.4614  -53.9460 H         1 UNK         0.0600 
    233 H233       -9.0381  -17.5116  -55.3402 H         1 UNK         0.0600 
    234 H234       -7.5710  -16.5504  -55.1590 H         1 UNK         0.0600 
    235 H235       -7.4101  -19.2312  -51.5103 H         1 UNK         0.3000 
    236 H236       -6.2240  -19.0182  -49.6687 H         1 UNK         0.0600 
    237 H237       -5.8655  -16.0544  -50.3554 H         1 UNK         0.0600 
    238 H238       -7.2556  -16.7408  -49.5152 H         1 UNK         0.0600 
    239 H239       -5.6652  -16.7947  -48.7739 H         1 UNK         0.0600 
    240 H240       -4.8867  -20.0321  -51.9591 H         1 UNK         0.3000 
    241 H241       -2.2248  -19.9439  -50.9853 H         1 UNK         0.0600 
    242 H242       -1.5576  -22.7399  -53.3203 H         1 UNK         0.3800 
    243 H243       -0.7850  -21.2092  -53.0086 H         1 UNK         0.3800 
    244 H244       -2.4833  -17.8334  -52.6572 H         1 UNK         0.0800 
    245 H245       -2.3080  -19.0304  -53.8939 H         1 UNK         0.0800 
    246 H246       -0.3525  -16.5648  -51.6556 H         1 UNK         0.0800 
    247 H247       -0.9480  -17.7628  -50.5276 H         1 UNK         0.0800 
@<TRIPOS>BOND
     1    1    2 1    
     2    1  127 1    
     3    1  128 1    
     4    1  129 1    
     5    2    3 2    
     6    2    4 am   BACKBONE|DICT|INTERRES
     7    4    5 1    
     8    4  130 1    
     9    5    6 1    
    10    5   65 1    
    11    5  131 1    
    12    6    7 1    
    13    6  132 1    
    14    6  133 1    
    15    7    8 1    
    16    8    9 1    
    17    8  134 1    
    18    8  135 1    
    19    9   10 ar   
    20    9   14 ar   
    21   10   11 ar   
    22   10  136 1    
    23   11   12 ar   
    24   11  126 1    
    25   12   13 ar   
    26   12  137 1    
    27   13   14 ar   
    28   13   15 1    
    29   14  138 1    
    30   15   16 1    
    31   15  139 1    
    32   15  140 1    
    33   16   17 1    
    34   17   18 1    
    35   17  141 1    
    36   17  142 1    
    37   18   19 1    
    38   18   67 1    
    39   18  143 1    
    40   19   20 am   BACKBONE|DICT|INTERRES
    41   19  144 1    
    42   20   21 2    
    43   20   22 1    
    44   22   23 1    
    45   22   24 1    
    46   22  145 1    
    47   23  146 1    
    48   23  147 1    
    49   23  148 1    
    50   24   25 am   BACKBONE|DICT|INTERRES
    51   24  149 1    
    52   25   26 2    
    53   25   27 1    
    54   27   28 1    
    55   27   29 1    
    56   27  150 1    
    57   28  151 1    
    58   28  152 1    
    59   28  153 1    
    60   29   30 am   BACKBONE|DICT|INTERRES
    61   29  154 1    
    62   30   31 2    
    63   30   32 1    
    64   32   33 1    
    65   32   34 1    
    66   32  155 1    
    67   33  156 1    
    68   33  157 1    
    69   33  158 1    
    70   34   35 am   BACKBONE|DICT|INTERRES
    71   34  159 1    
    72   35   36 2    
    73   35   37 1    
    74   37   38 1    
    75   37   39 1    
    76   37  160 1    
    77   38  161 1    
    78   38  162 1    
    79   38  163 1    
    80   39   40 am   BACKBONE|DICT|INTERRES
    81   39  164 1    
    82   40   41 2    
    83   40   42 1    
    84   42   43 1    
    85   42   44 1    
    86   42  165 1    
    87   43  166 1    
    88   43  167 1    
    89   43  168 1    
    90   44   45 am   BACKBONE|DICT|INTERRES
    91   44  169 1    
    92   45   46 2    
    93   45   47 1    
    94   47   48 1    
    95   47   49 1    
    96   47  170 1    
    97   48  171 1    
    98   48  172 1    
    99   48  173 1    
   100   49   50 am   BACKBONE|DICT|INTERRES
   101   49  174 1    
   102   50   51 2    
   103   50   52 1    
   104   52   53 1    
   105   52   54 1    
   106   52  175 1    
   107   53  176 1    
   108   53  177 1    
   109   53  178 1    
   110   54   55 am   BACKBONE|DICT|INTERRES
   111   54  179 1    
   112   55   56 2    
   113   55   57 1    
   114   57   58 1    
   115   57   59 1    
   116   57  180 1    
   117   58  181 1    
   118   58  182 1    
   119   58  183 1    
   120   59   60 am   BACKBONE|DICT|INTERRES
   121   59  184 1    
   122   60   61 2    
   123   60   62 1    
   124   62   63 1    
   125   62   64 1    
   126   62  185 1    
   127   63  186 1    
   128   63  187 1    
   129   63  188 1    
   130   64   65 am   BACKBONE|DICT|INTERRES
   131   64  189 1    
   132   65   66 2    
   133   67   68 2    
   134   67   69 am   BACKBONE|DICT|INTERRES
   135   69   70 1    
   136   69  190 1    
   137   70   71 1    
   138   70   72 1    
   139   70  191 1    
   140   71  192 1    
   141   71  193 1    
   142   71  194 1    
   143   72   73 2    
   144   72   74 am   BACKBONE|DICT|INTERRES
   145   74   75 1    
   146   74  195 1    
   147   75   76 1    
   148   75   77 1    
   149   75  196 1    
   150   76  197 1    
   151   76  198 1    
   152   76  199 1    
   153   77   78 2    
   154   77   79 am   BACKBONE|DICT|INTERRES
   155   79   80 1    
   156   79  200 1    
   157   80   81 1    
   158   80   82 1    
   159   80  201 1    
   160   81  202 1    
   161   81  203 1    
   162   81  204 1    
   163   82   83 2    
   164   82   84 am   BACKBONE|DICT|INTERRES
   165   84   85 1    
   166   84  205 1    
   167   85   86 1    
   168   85   87 1    
   169   85  206 1    
   170   86  207 1    
   171   86  208 1    
   172   86  209 1    
   173   87   88 2    
   174   87   89 am   BACKBONE|DICT|INTERRES
   175   89   90 1    
   176   89  210 1    
   177   90   91 1    
   178   90   92 1    
   179   90  211 1    
   180   91  212 1    
   181   91  213 1    
   182   91  214 1    
   183   92   93 2    
   184   92   94 am   BACKBONE|DICT|INTERRES
   185   94   95 1    
   186   94  215 1    
   187   95   96 1    
   188   95   97 1    
   189   95  216 1    
   190   96  217 1    
   191   96  218 1    
   192   96  219 1    
   193   97   98 2    
   194   97   99 am   BACKBONE|DICT|INTERRES
   195   99  100 1    
   196   99  220 1    
   197  100  101 1    
   198  100  102 1    
   199  100  221 1    
   200  101  222 1    
   201  101  223 1    
   202  101  224 1    
   203  102  103 2    
   204  102  104 am   BACKBONE|DICT|INTERRES
   205  104  105 1    
   206  104  225 1    
   207  105  106 1    
   208  105  107 1    
   209  105  226 1    
   210  106  227 1    
   211  106  228 1    
   212  106  229 1    
   213  107  108 2    
   214  107  109 am   BACKBONE|DICT|INTERRES
   215  109  110 1    
   216  109  230 1    
   217  110  111 1    
   218  110  112 1    
   219  110  231 1    
   220  111  232 1    
   221  111  233 1    
   222  111  234 1    
   223  112  113 2    
   224  112  114 am   BACKBONE|DICT|INTERRES
   225  114  115 1    
   226  114  235 1    
   227  115  116 1    
   228  115  117 1    
   229  115  236 1    
   230  116  237 1    
   231  116  238 1    
   232  116  239 1    
   233  117  118 2    
   234  117  119 am   BACKBONE|DICT|INTERRES
   235  119  120 1    
   236  119  240 1    
   237  120  121 1    
   238  120  124 1    
   239  120  241 1    
   240  121  122 am   BACKBONE|DICT|INTERRES
   241  121  123 2    
   242  122  242 1    
   243  122  243 1    
   244  124  125 1    
   245  124  244 1    
   246  124  245 1    
   247  125  126 1    
   248  126  246 1    
   249  126  247 1    
@<TRIPOS>SUBSTRUCTURE
     1 UNK         1 GROUP             0       ****    0 ROOT    
