@<TRIPOS>MOLECULE
3R540
247   249    1
SMALL
USER_CHARGES


@<TRIPOS>ATOM
      1 CA         -1.9384  -14.2218  -43.4384 C.3       0 UNK        -0.1800 
      2 C          -1.9802  -13.1556  -44.5253 C.2       0 UNK         0.5000 
      3 O          -2.9781  -12.4466  -44.6487 O.2       0 UNK        -0.5000 
      4 N          -0.8950  -13.0373  -45.2962 N.am      1 UNK        -0.5000 
      5 CA         -0.6851  -12.0466  -46.3541 C.3       1 UNK         0.1400 
      6 C6         -0.8325  -12.6592  -47.7707 C.3       23 UNK        -0.0398 
      7 S7         -2.5581  -13.1051  -48.1456 S.3       23 UNK        -0.2404 
      8 C8         -2.5066  -14.9196  -47.9987 C.3       23 UNK        -0.0205 
      9 C9         -1.9589  -15.5974  -49.2479 C.ar      23 UNK        -0.0193 
     10 C10        -2.5708  -15.3883  -50.4863 C.ar      23 UNK        -0.1150 
     11 C11        -2.1200  -16.0571  -51.6262 C.ar      23 UNK        -0.0193 
     12 C12        -1.0666  -16.9702  -51.5157 C.ar      23 UNK        -0.1150 
     13 C13        -0.4514  -17.2028  -50.2809 C.ar      23 UNK        -0.0193 
     14 C14        -0.8801  -16.4813  -49.1607 C.ar      23 UNK        -0.1150 
     15 C15         0.6668  -18.2400  -50.1753 C.3       23 UNK        -0.0205 
     16 S16         0.5469  -19.3399  -48.7173 S.3       23 UNK        -0.2404 
     17 C17        -1.1966  -19.8724  -48.7859 C.3       23 UNK        -0.0398 
     18 CA         -1.4884  -21.1536  -47.9692 C.3       11 UNK         0.1400 
     19 N          -1.1512  -21.0318  -46.5418 N.am      11 UNK        -0.5000 
     20 C          -1.2207  -22.0481  -45.6657 C.2       10 UNK         0.5000 
     21 O          -1.5552  -23.1868  -45.9887 O.2       10 UNK        -0.5000 
     22 CA         -0.9131  -21.7817  -44.1798 C.3       10 UNK         0.1400 
     23 CB          0.4559  -22.3691  -43.8057 C.3       10 UNK        -0.1800 
     24 N          -0.9649  -20.3771  -43.7810 N.am      10 UNK        -0.5000 
     25 C          -2.0522  -19.5940  -43.8045 C.2       9 UNK         0.5000 
     26 O          -3.1645  -19.9783  -44.1688 O.2       9 UNK        -0.5000 
     27 CA         -1.8376  -18.1174  -43.4097 C.3       9 UNK         0.1400 
     28 CB         -1.9730  -17.9267  -41.8925 C.3       9 UNK        -0.1800 
     29 N          -0.5388  -17.6005  -43.8547 N.am      9 UNK        -0.5000 
     30 C          -0.1813  -17.5057  -45.1435 C.2       8 UNK         0.5000 
     31 O          -0.9429  -17.7733  -46.0701 O.2       8 UNK        -0.5000 
     32 CA          1.2703  -17.0990  -45.4467 C.3       8 UNK         0.1400 
     33 CB          1.4306  -15.5720  -45.4632 C.3       8 UNK        -0.1800 
     34 N           2.1967  -17.6849  -44.4785 N.am      8 UNK        -0.5000 
     35 C           2.6807  -18.9327  -44.5673 C.2       7 UNK         0.5000 
     36 O           2.4524  -19.6877  -45.5113 O.2       7 UNK        -0.5000 
     37 CA          3.5553  -19.4366  -43.4016 C.3       7 UNK         0.1400 
     38 CB          5.0392  -19.1590  -43.6853 C.3       7 UNK        -0.1800 
     39 N           3.2000  -18.8490  -42.1095 N.am      7 UNK        -0.5000 
     40 C           2.0377  -19.0448  -41.4711 C.2       6 UNK         0.5000 
     41 O           1.1473  -19.7827  -41.8872 O.2       6 UNK        -0.5000 
     42 CA          1.8069  -18.2285  -40.1846 C.3       6 UNK         0.1400 
     43 CB          2.2938  -19.0106  -38.9561 C.3       6 UNK        -0.1800 
     44 N           2.4508  -16.9114  -40.2094 N.am      6 UNK        -0.5000 
     45 C           2.1981  -15.9547  -41.1120 C.2       5 UNK         0.5000 
     46 O           1.3864  -16.0812  -42.0343 O.2       5 UNK        -0.5000 
     47 CA          3.0645  -14.6880  -41.0102 C.3       5 UNK         0.1400 
     48 CB          4.4250  -14.9232  -41.6860 C.3       5 UNK        -0.1800 
     49 N           2.4278  -13.5416  -41.6492 N.am      5 UNK        -0.5000 
     50 C           1.3705  -12.8759  -41.1683 C.2       4 UNK         0.5000 
     51 O           0.8359  -13.1261  -40.0865 O.2       4 UNK        -0.5000 
     52 CA          0.8371  -11.7400  -42.0635 C.3       4 UNK         0.1400 
     53 CB         -0.0785  -10.7436  -41.3234 C.3       4 UNK        -0.1800 
     54 N           1.9061  -11.0530  -42.7967 N.am      4 UNK        -0.5000 
     55 C           2.8925  -10.2951  -42.2907 C.2       3 UNK         0.5000 
     56 O           3.0128  -10.0330  -41.0936 O.2       3 UNK        -0.5000 
     57 CA          3.9420   -9.7504  -43.2842 C.3       3 UNK         0.1400 
     58 CB          5.2792  -10.4868  -43.1035 C.3       3 UNK        -0.1800 
     59 N           3.5354   -9.8635  -44.6869 N.am      3 UNK        -0.5000 
     60 C           2.5921   -9.1211  -45.2809 C.2       2 UNK         0.5000 
     61 O           2.0014   -8.1932  -44.7268 O.2       2 UNK        -0.5000 
     62 CA          2.2077   -9.5038  -46.7245 C.3       2 UNK         0.1400 
     63 CB          3.3290  -10.2339  -47.4987 C.3       2 UNK        -0.1800 
     64 N           0.9616  -10.2787  -46.7607 N.am      2 UNK        -0.5000 
     65 C           0.7227  -11.4563  -46.1645 C.2       1 UNK         0.5000 
     66 O           1.5570  -12.0718  -45.4920 O.2       1 UNK        -0.5000 
     67 C          -2.9568  -21.5763  -48.1846 C.2       11 UNK         0.5000 
     68 O          -3.2353  -22.3643  -49.0893 O.2       11 UNK        -0.5000 
     69 N          -3.8598  -21.0788  -47.3272 N.am      12 UNK        -0.5000 
     70 CA         -5.2817  -21.4164  -47.3470 C.3       12 UNK         0.1400 
     71 CB         -6.0576  -20.3646  -46.5405 C.3       12 UNK        -0.1800 
     72 C          -5.5599  -22.8306  -46.8045 C.2       12 UNK         0.5000 
     73 O          -6.4970  -23.4812  -47.2669 O.2       12 UNK        -0.5000 
     74 N          -4.7418  -23.2820  -45.8428 N.am      13 UNK        -0.5000 
     75 CA         -4.8123  -24.6201  -45.2540 C.3       13 UNK         0.1400 
     76 CB         -4.0690  -24.6298  -43.9088 C.3       13 UNK        -0.1800 
     77 C          -4.2474  -25.6905  -46.2039 C.2       13 UNK         0.5000 
     78 O          -4.8486  -26.7551  -46.3507 O.2       13 UNK        -0.5000 
     79 N          -3.1144  -25.3755  -46.8463 N.am      14 UNK        -0.5000 
     80 CA         -2.4753  -26.1888  -47.8806 C.3       14 UNK         0.1400 
     81 CB         -1.0778  -25.6180  -48.1613 C.3       14 UNK        -0.1800 
     82 C          -3.2994  -26.2480  -49.1792 C.2       14 UNK         0.5000 
     83 O          -3.2776  -27.2711  -49.8657 O.2       14 UNK        -0.5000 
     84 N          -4.0091  -25.1512  -49.4829 N.am      15 UNK        -0.5000 
     85 CA         -4.8588  -24.9385  -50.6520 C.3       15 UNK         0.1400 
     86 CB         -6.1289  -25.8137  -50.5644 C.3       15 UNK        -0.1800 
     87 C          -4.0462  -25.1082  -51.9486 C.2       15 UNK         0.5000 
     88 O          -3.0324  -24.4255  -52.1100 O.2       15 UNK        -0.5000 
     89 N          -4.4638  -26.0331  -52.8229 N.am      16 UNK        -0.5000 
     90 CA         -3.8486  -26.3232  -54.1195 C.3       16 UNK         0.1400 
     91 CB         -4.6847  -27.3879  -54.8444 C.3       16 UNK        -0.1800 
     92 C          -2.3640  -26.7359  -54.0666 C.2       16 UNK         0.5000 
     93 O          -1.6660  -26.5770  -55.0685 O.2       16 UNK        -0.5000 
     94 N          -1.8973  -27.2283  -52.9095 N.am      17 UNK        -0.5000 
     95 CA         -0.4875  -27.5281  -52.6565 C.3       17 UNK         0.1400 
     96 CB         -0.3707  -28.4154  -51.4084 C.3       17 UNK        -0.1800 
     97 C           0.3860  -26.2634  -52.5167 C.2       17 UNK         0.5000 
     98 O           1.5877  -26.3409  -52.7755 O.2       17 UNK        -0.5000 
     99 N          -0.2183  -25.1308  -52.1285 N.am      18 UNK        -0.5000 
    100 CA         0.4313  -23.8220  -52.0870 C.3       18 UNK         0.1400 
    101 CB        -0.0563  -23.0303  -50.8641 C.3       18 UNK        -0.1800 
    102 C          0.1624  -23.0469  -53.3847 C.2       18 UNK         0.5000 
    103 O          1.1109  -22.5807  -54.0175 O.2       18 UNK        -0.5000 
    104 N         -1.1154  -22.9370  -53.7679 N.am      19 UNK        -0.5000 
    105 CA        -1.5717  -22.2386  -54.9649 C.3       19 UNK         0.1400 
    106 CB        -1.4857  -20.7163  -54.7619 C.3       19 UNK        -0.1800 
    107 C         -3.0120  -22.6640  -55.2638 C.2       19 UNK         0.5000 
    108 O         -3.8350  -22.6832  -54.3451 O.2       19 UNK        -0.5000 
    109 N         -3.2937  -22.9616  -56.5399 N.am      20 UNK        -0.5000 
    110 CA        -4.5296  -23.5632  -57.0631 C.3       20 UNK         0.1400 
    111 CB        -4.4437  -23.6064  -58.5966 C.3       20 UNK        -0.1800 
    112 C         -5.8540  -22.9053  -56.6267 C.2       20 UNK         0.5000 
    113 O         -6.8681  -23.5992  -56.5402 O.2       20 UNK        -0.5000 
    114 N         -5.8215  -21.5970  -56.3543 N.am      21 UNK        -0.5000 
    115 CA        -6.9506  -20.8197  -55.8502 C.3       21 UNK         0.1400 
    116 CB        -7.6590  -20.1267  -57.0303 C.3       21 UNK        -0.1800 
    117 C         -6.4962  -19.8353  -54.7563 C.2       21 UNK         0.5000 
    118 O         -7.0752  -18.7537  -54.6406 O.2       21 UNK        -0.5000 
    119 N         -5.4675  -20.2061  -53.9793 N.am      22 UNK        -0.5000 
    120 CA        -4.9022  -19.3549  -52.9178 C.3       22 UNK         0.1400 
    121 C         -4.3166  -20.1253  -51.7010 C.2       22 UNK         0.5000 
    122 N         -4.0386  -21.4208  -51.7813 N.am      22 UNK        -0.7600 
    123 O         -4.1318  -19.5331  -50.6429 O.2       22 UNK        -0.5000 
    124 C124       -3.9051  -18.3022  -53.4879 C.3       23 UNK        -0.0398 
    125 S125       -4.3960  -16.5847  -53.1275 S.3       23 UNK        -0.2404 
    126 C126       -2.7724  -15.7771  -52.9716 C.3       23 UNK        -0.0205 
    127 H127       -2.6812  -14.9927  -43.6422 H         1 UNK         0.0600 
    128 H128       -2.1625  -13.7791  -42.4678 H         1 UNK         0.0600 
    129 H129       -0.9611  -14.7000  -43.3709 H         1 UNK         0.0600 
    130 H130       -0.0704  -13.5860  -45.0956 H         1 UNK         0.3000 
    131 H131       -1.3949  -11.2243  -46.2404 H         1 UNK         0.0600 
    132 H132       -0.1856  -13.5296  -47.8928 H         1 UNK         0.0800 
    133 H133       -0.5213  -11.9456  -48.5356 H         1 UNK         0.0800 
    134 H134       -1.9340  -15.2005  -47.1132 H         1 UNK         0.0800 
    135 H135       -3.5212  -15.2825  -47.8298 H         1 UNK         0.0800 
    136 H136       -3.4047  -14.7046  -50.5633 H         1 UNK         0.1150 
    137 H137       -0.7278  -17.5037  -52.3926 H         1 UNK         0.1150 
    138 H138       -0.3983  -16.6449  -48.2098 H         1 UNK         0.1150 
    139 H139        0.6855  -18.8672  -51.0680 H         1 UNK         0.0800 
    140 H140        1.6247  -17.7199  -50.1439 H         1 UNK         0.0800 
    141 H141       -1.8229  -19.0505  -48.4346 H         1 UNK         0.0800 
    142 H142       -1.4579  -20.0283  -49.8348 H         1 UNK         0.0800 
    143 H143       -0.8655  -21.9542  -48.3700 H         1 UNK         0.0600 
    144 H144       -0.8727  -20.1131  -46.2214 H         1 UNK         0.3000 
    145 H145       -1.6731  -22.3093  -43.6004 H         1 UNK         0.0600 
    146 H146        0.6328  -22.3063  -42.7321 H         1 UNK         0.0600 
    147 H147        0.5201  -23.4228  -44.0805 H         1 UNK         0.0600 
    148 H148        1.2680  -21.8480  -44.3125 H         1 UNK         0.0600 
    149 H149       -0.1101  -19.9941  -43.3893 H         1 UNK         0.3000 
    150 H150       -2.6163  -17.5280  -43.8981 H         1 UNK         0.0600 
    151 H151       -2.9687  -18.2143  -41.5533 H         1 UNK         0.0600 
    152 H152       -1.8189  -16.8855  -41.6081 H         1 UNK         0.0600 
    153 H153       -1.2540  -18.5353  -41.3449 H         1 UNK         0.0600 
    154 H154        0.1242  -17.3253  -43.1390 H         1 UNK         0.3000 
    155 H155        1.5172  -17.4658  -46.4454 H         1 UNK         0.0600 
    156 H156        2.4526  -15.2863  -45.7126 H         1 UNK         0.0600 
    157 H157        1.1870  -15.1237  -44.5005 H         1 UNK         0.0600 
    158 H158        0.7803  -15.1281  -46.2169 H         1 UNK         0.0600 
    159 H159        2.3760  -17.1448  -43.6424 H         1 UNK         0.3000 
    160 H160        3.4162  -20.5174  -43.3288 H         1 UNK         0.0600 
    161 H161        5.2448  -18.0893  -43.7432 H         1 UNK         0.0600 
    162 H162        5.3454  -19.6041  -44.6330 H         1 UNK         0.0600 
    163 H163        5.6758  -19.5827  -42.9084 H         1 UNK         0.0600 
    164 H164        3.8757  -18.2266  -41.6925 H         1 UNK         0.3000 
    165 H165        0.7322  -18.0683  -40.0831 H         1 UNK         0.0600 
    166 H166        3.3716  -19.1759  -38.9841 H         1 UNK         0.0600 
    167 H167        2.0582  -18.4816  -38.0324 H         1 UNK         0.0600 
    168 H168        1.8130  -19.9882  -38.9004 H         1 UNK         0.0600 
    169 H169        3.1407  -16.7377  -39.4924 H         1 UNK         0.3000 
    170 H170        3.2257  -14.4542  -39.9557 H         1 UNK         0.0600 
    171 H171        4.9650  -15.7441  -41.2126 H         1 UNK         0.0600 
    172 H172        4.3133  -15.1699  -42.7430 H         1 UNK         0.0600 
    173 H173        5.0584  -14.0385  -41.6145 H         1 UNK         0.0600 
    174 H174        2.7808  -13.2799  -42.5572 H         1 UNK         0.3000 
    175 H175        0.2295  -12.2289  -42.8223 H         1 UNK         0.0600 
    176 H176       -0.4340   -9.9624  -41.9954 H         1 UNK         0.0600 
    177 H177       -0.9573  -11.2486  -40.9208 H         1 UNK         0.0600 
    178 H178        0.4315  -10.2632  -40.4882 H         1 UNK         0.0600 
    179 H179        1.9250  -11.2386  -43.7957 H         1 UNK         0.3000 
    180 H180        4.0959   -8.6945  -43.0525 H         1 UNK         0.0600 
    181 H181        6.0490  -10.0734  -43.7555 H         1 UNK         0.0600 
    182 H182        5.6415  -10.3960  -42.0786 H         1 UNK         0.0600 
    183 H183        5.1860  -11.5509  -43.3249 H         1 UNK         0.0600 
    184 H184        3.9379  -10.6263  -45.2125 H         1 UNK         0.3000 
    185 H185        2.0089   -8.5666  -47.2467 H         1 UNK         0.0600 
    186 H186        3.0515  -10.3679  -48.5442 H         1 UNK         0.0600 
    187 H187        4.2541   -9.6562  -47.4846 H         1 UNK         0.0600 
    188 H188        3.5485  -11.2210  -47.0913 H         1 UNK         0.0600 
    189 H189        0.2032   -9.8339  -47.2593 H         1 UNK         0.3000 
    190 H190       -3.5477  -20.4592  -46.5913 H         1 UNK         0.3000 
    191 H191       -5.6311  -21.3794  -48.3815 H         1 UNK         0.0600 
    192 H192       -7.1278  -20.5752  -46.5514 H         1 UNK         0.0600 
    193 H193       -5.9184  -19.3674  -46.9585 H         1 UNK         0.0600 
    194 H194       -5.7373  -20.3394  -45.4980 H         1 UNK         0.0600 
    195 H195       -3.9810  -22.6908  -45.5426 H         1 UNK         0.3000 
    196 H196       -5.8605  -24.8592  -45.0616 H         1 UNK         0.0600 
    197 H197       -4.1586  -25.6027  -43.4240 H         1 UNK         0.0600 
    198 H198       -4.4800  -23.8869  -43.2250 H         1 UNK         0.0600 
    199 H199       -3.0055  -24.4232  -44.0296 H         1 UNK         0.0600 
    200 H200       -2.6477  -24.5016  -46.6116 H         1 UNK         0.3000 
    201 H201       -2.3671  -27.2076  -47.5035 H         1 UNK         0.0600 
    202 H202       -0.4493  -25.6597  -47.2717 H         1 UNK         0.0600 
    203 H203       -1.1375  -24.5767  -48.4770 H         1 UNK         0.0600 
    204 H204       -0.5680  -26.1730  -48.9485 H         1 UNK         0.0600 
    205 H205       -3.8605  -24.3243  -48.9165 H         1 UNK         0.3000 
    206 H206       -5.1723  -23.8943  -50.6210 H         1 UNK         0.0600 
    207 H207       -6.6692  -25.6135  -49.6387 H         1 UNK         0.0600 
    208 H208       -6.8141  -25.5988  -51.3853 H         1 UNK         0.0600 
    209 H209       -5.9008  -26.8799  -50.5853 H         1 UNK         0.0600 
    210 H210       -5.2827  -26.5734  -52.5861 H         1 UNK         0.3000 
    211 H211       -3.8949  -25.4038  -54.6997 H         1 UNK         0.0600 
    212 H212       -4.7134  -28.3241  -54.2855 H         1 UNK         0.0600 
    213 H213       -4.2722  -27.6059  -55.8305 H         1 UNK         0.0600 
    214 H214       -5.7110  -27.0508  -54.9920 H         1 UNK         0.0600 
    215 H215       -2.5308  -27.3154  -52.1246 H         1 UNK         0.3000 
    216 H216       -0.1033  -28.0963  -53.5063 H         1 UNK         0.0600 
    217 H217        0.6680  -28.6897  -51.2199 H         1 UNK         0.0600 
    218 H218       -0.9345  -29.3407  -51.5281 H         1 UNK         0.0600 
    219 H219       -0.7424  -27.9108  -50.5179 H         1 UNK         0.0600 
    220 H220       -1.2246  -25.1302  -51.9936 H         1 UNK         0.3000 
    221 H221        1.5125  -23.9400  -51.9886 H         1 UNK         0.0600 
    222 H222       -1.1438  -22.9636  -50.8259 H         1 UNK         0.0600 
    223 H223        0.2882  -23.4974  -49.9427 H         1 UNK         0.0600 
    224 H224        0.3350  -22.0121  -50.8729 H         1 UNK         0.0600 
    225 H225       -1.8510  -23.3642  -53.2076 H         1 UNK         0.3000 
    226 H226       -0.9384  -22.5274  -55.8064 H         1 UNK         0.0600 
    227 H227       -0.4504  -20.3792  -54.7122 H         1 UNK         0.0600 
    228 H228       -1.9636  -20.1759  -55.5799 H         1 UNK         0.0600 
    229 H229       -1.9733  -20.4225  -53.8340 H         1 UNK         0.0600 
    230 H230       -2.5496  -22.8680  -57.2163 H         1 UNK         0.3000 
    231 H231       -4.5602  -24.5939  -56.7087 H         1 UNK         0.0600 
    232 H232       -5.3321  -24.0709  -59.0272 H         1 UNK         0.0600 
    233 H233       -3.5839  -24.1884  -58.9290 H         1 UNK         0.0600 
    234 H234       -4.3582  -22.6056  -59.0217 H         1 UNK         0.0600 
    235 H235       -4.9439  -21.1055  -56.4455 H         1 UNK         0.3000 
    236 H236       -7.6694  -21.4833  -55.3652 H         1 UNK         0.0600 
    237 H237       -7.0007  -19.4142  -57.5286 H         1 UNK         0.0600 
    238 H238       -7.9895  -20.8533  -57.7727 H         1 UNK         0.0600 
    239 H239       -8.5439  -19.5834  -56.6967 H         1 UNK         0.0600 
    240 H240       -5.0506  -21.1225  -54.1017 H         1 UNK         0.3000 
    241 H241       -5.7487  -18.8259  -52.4747 H         1 UNK         0.0600 
    242 H242       -3.6850  -21.8758  -50.9467 H         1 UNK         0.3800 
    243 H243       -4.0919  -21.9462  -52.6478 H         1 UNK         0.3800 
    244 H244       -3.8174  -18.3903  -54.5716 H         1 UNK         0.0800 
    245 H245       -2.8962  -18.4646  -53.1095 H         1 UNK         0.0800 
    246 H246       -2.1247  -16.0892  -53.7924 H         1 UNK         0.0800 
    247 H247       -2.9059  -14.7003  -53.0850 H         1 UNK         0.0800 
@<TRIPOS>BOND
     1    1    2 1    
     2    1  127 1    
     3    1  128 1    
     4    1  129 1    
     5    2    3 2    
     6    2    4 am   BACKBONE|DICT|INTERRES
     7    4    5 1    
     8    4  130 1    
     9    5    6 1    
    10    5   65 1    
    11    5  131 1    
    12    6    7 1    
    13    6  132 1    
    14    6  133 1    
    15    7    8 1    
    16    8    9 1    
    17    8  134 1    
    18    8  135 1    
    19    9   10 ar   
    20    9   14 ar   
    21   10   11 ar   
    22   10  136 1    
    23   11   12 ar   
    24   11  126 1    
    25   12   13 ar   
    26   12  137 1    
    27   13   14 ar   
    28   13   15 1    
    29   14  138 1    
    30   15   16 1    
    31   15  139 1    
    32   15  140 1    
    33   16   17 1    
    34   17   18 1    
    35   17  141 1    
    36   17  142 1    
    37   18   19 1    
    38   18   67 1    
    39   18  143 1    
    40   19   20 am   BACKBONE|DICT|INTERRES
    41   19  144 1    
    42   20   21 2    
    43   20   22 1    
    44   22   23 1    
    45   22   24 1    
    46   22  145 1    
    47   23  146 1    
    48   23  147 1    
    49   23  148 1    
    50   24   25 am   BACKBONE|DICT|INTERRES
    51   24  149 1    
    52   25   26 2    
    53   25   27 1    
    54   27   28 1    
    55   27   29 1    
    56   27  150 1    
    57   28  151 1    
    58   28  152 1    
    59   28  153 1    
    60   29   30 am   BACKBONE|DICT|INTERRES
    61   29  154 1    
    62   30   31 2    
    63   30   32 1    
    64   32   33 1    
    65   32   34 1    
    66   32  155 1    
    67   33  156 1    
    68   33  157 1    
    69   33  158 1    
    70   34   35 am   BACKBONE|DICT|INTERRES
    71   34  159 1    
    72   35   36 2    
    73   35   37 1    
    74   37   38 1    
    75   37   39 1    
    76   37  160 1    
    77   38  161 1    
    78   38  162 1    
    79   38  163 1    
    80   39   40 am   BACKBONE|DICT|INTERRES
    81   39  164 1    
    82   40   41 2    
    83   40   42 1    
    84   42   43 1    
    85   42   44 1    
    86   42  165 1    
    87   43  166 1    
    88   43  167 1    
    89   43  168 1    
    90   44   45 am   BACKBONE|DICT|INTERRES
    91   44  169 1    
    92   45   46 2    
    93   45   47 1    
    94   47   48 1    
    95   47   49 1    
    96   47  170 1    
    97   48  171 1    
    98   48  172 1    
    99   48  173 1    
   100   49   50 am   BACKBONE|DICT|INTERRES
   101   49  174 1    
   102   50   51 2    
   103   50   52 1    
   104   52   53 1    
   105   52   54 1    
   106   52  175 1    
   107   53  176 1    
   108   53  177 1    
   109   53  178 1    
   110   54   55 am   BACKBONE|DICT|INTERRES
   111   54  179 1    
   112   55   56 2    
   113   55   57 1    
   114   57   58 1    
   115   57   59 1    
   116   57  180 1    
   117   58  181 1    
   118   58  182 1    
   119   58  183 1    
   120   59   60 am   BACKBONE|DICT|INTERRES
   121   59  184 1    
   122   60   61 2    
   123   60   62 1    
   124   62   63 1    
   125   62   64 1    
   126   62  185 1    
   127   63  186 1    
   128   63  187 1    
   129   63  188 1    
   130   64   65 am   BACKBONE|DICT|INTERRES
   131   64  189 1    
   132   65   66 2    
   133   67   68 2    
   134   67   69 am   BACKBONE|DICT|INTERRES
   135   69   70 1    
   136   69  190 1    
   137   70   71 1    
   138   70   72 1    
   139   70  191 1    
   140   71  192 1    
   141   71  193 1    
   142   71  194 1    
   143   72   73 2    
   144   72   74 am   BACKBONE|DICT|INTERRES
   145   74   75 1    
   146   74  195 1    
   147   75   76 1    
   148   75   77 1    
   149   75  196 1    
   150   76  197 1    
   151   76  198 1    
   152   76  199 1    
   153   77   78 2    
   154   77   79 am   BACKBONE|DICT|INTERRES
   155   79   80 1    
   156   79  200 1    
   157   80   81 1    
   158   80   82 1    
   159   80  201 1    
   160   81  202 1    
   161   81  203 1    
   162   81  204 1    
   163   82   83 2    
   164   82   84 am   BACKBONE|DICT|INTERRES
   165   84   85 1    
   166   84  205 1    
   167   85   86 1    
   168   85   87 1    
   169   85  206 1    
   170   86  207 1    
   171   86  208 1    
   172   86  209 1    
   173   87   88 2    
   174   87   89 am   BACKBONE|DICT|INTERRES
   175   89   90 1    
   176   89  210 1    
   177   90   91 1    
   178   90   92 1    
   179   90  211 1    
   180   91  212 1    
   181   91  213 1    
   182   91  214 1    
   183   92   93 2    
   184   92   94 am   BACKBONE|DICT|INTERRES
   185   94   95 1    
   186   94  215 1    
   187   95   96 1    
   188   95   97 1    
   189   95  216 1    
   190   96  217 1    
   191   96  218 1    
   192   96  219 1    
   193   97   98 2    
   194   97   99 am   BACKBONE|DICT|INTERRES
   195   99  100 1    
   196   99  220 1    
   197  100  101 1    
   198  100  102 1    
   199  100  221 1    
   200  101  222 1    
   201  101  223 1    
   202  101  224 1    
   203  102  103 2    
   204  102  104 am   BACKBONE|DICT|INTERRES
   205  104  105 1    
   206  104  225 1    
   207  105  106 1    
   208  105  107 1    
   209  105  226 1    
   210  106  227 1    
   211  106  228 1    
   212  106  229 1    
   213  107  108 2    
   214  107  109 am   BACKBONE|DICT|INTERRES
   215  109  110 1    
   216  109  230 1    
   217  110  111 1    
   218  110  112 1    
   219  110  231 1    
   220  111  232 1    
   221  111  233 1    
   222  111  234 1    
   223  112  113 2    
   224  112  114 am   BACKBONE|DICT|INTERRES
   225  114  115 1    
   226  114  235 1    
   227  115  116 1    
   228  115  117 1    
   229  115  236 1    
   230  116  237 1    
   231  116  238 1    
   232  116  239 1    
   233  117  118 2    
   234  117  119 am   BACKBONE|DICT|INTERRES
   235  119  120 1    
   236  119  240 1    
   237  120  121 1    
   238  120  124 1    
   239  120  241 1    
   240  121  122 am   BACKBONE|DICT|INTERRES
   241  121  123 2    
   242  122  242 1    
   243  122  243 1    
   244  124  125 1    
   245  124  244 1    
   246  124  245 1    
   247  125  126 1    
   248  126  246 1    
   249  126  247 1    
@<TRIPOS>SUBSTRUCTURE
     1 UNK         1 GROUP             0       ****    0 ROOT    
