@<TRIPOS>MOLECULE
3R540
247   249    1
SMALL
USER_CHARGES


@<TRIPOS>ATOM
      1 CA          2.9235  -16.8697  -52.0027 C.3       0 UNK        -0.1800 
      2 C           3.1795  -17.0495  -50.5138 C.2       0 UNK         0.5000 
      3 O           3.8413  -18.0085  -50.1153 O.2       0 UNK        -0.5000 
      4 N           2.6555  -16.1362  -49.6868 N.am      1 UNK        -0.5000 
      5 CA          2.7647  -16.1490  -48.2236 C.3       1 UNK         0.1400 
      6 C6          1.6071  -15.3709  -47.5469 C.3       23 UNK        -0.0398 
      7 S7          0.0013  -16.1806  -47.8349 S.3       23 UNK        -0.2404 
      8 C8         -0.9248  -14.8954  -48.7354 C.3       23 UNK        -0.0205 
      9 C9         -2.2799  -15.4052  -49.2124 C.ar      23 UNK        -0.0193 
     10 C10        -2.6567  -15.2831  -50.5535 C.ar      23 UNK        -0.1150 
     11 C11        -3.9025  -15.7489  -50.9905 C.ar      23 UNK        -0.0193 
     12 C12        -4.7624  -16.3696  -50.0766 C.ar      23 UNK        -0.1150 
     13 C13        -4.3862  -16.5201  -48.7387 C.ar      23 UNK        -0.0193 
     14 C14        -3.1647  -15.9986  -48.3095 C.ar      23 UNK        -0.1150 
     15 C15        -5.2771  -17.2636  -47.7529 C.3       23 UNK        -0.0205 
     16 S16        -5.0431  -19.0723  -47.8452 S.3       23 UNK        -0.2404 
     17 C17        -3.2398  -19.2417  -47.5813 C.3       23 UNK        -0.0398 
     18 CA         -2.7934  -20.5807  -46.9514 C.3       11 UNK         0.1400 
     19 N          -3.3947  -20.7908  -45.6286 N.am      11 UNK        -0.5000 
     20 C          -3.0707  -21.7684  -44.7719 C.2       10 UNK         0.5000 
     21 O          -2.3453  -22.7190  -45.0641 O.2       10 UNK        -0.5000 
     22 CA         -3.6247  -21.6278  -43.3478 C.3       10 UNK         0.1400 
     23 CB         -3.1376  -22.7340  -42.3920 C.3       10 UNK        -0.1800 
     24 N          -3.2468  -20.3179  -42.8252 N.am      10 UNK        -0.5000 
     25 C          -3.9580  -19.6136  -41.9363 C.2       9 UNK         0.5000 
     26 O          -5.0195  -20.0091  -41.4519 O.2       9 UNK        -0.5000 
     27 CA         -3.4071  -18.2383  -41.5030 C.3       9 UNK         0.1400 
     28 CB         -2.7560  -18.3416  -40.1149 C.3       9 UNK        -0.1800 
     29 N          -2.4465  -17.6430  -42.4356 N.am      9 UNK        -0.5000 
     30 C          -2.7255  -17.2651  -43.6909 C.2       8 UNK         0.5000 
     31 O          -3.8417  -17.3597  -44.2017 O.2       8 UNK        -0.5000 
     32 CA         -1.5604  -16.7196  -44.5356 C.3       8 UNK         0.1400 
     33 CB         -1.5101  -15.1871  -44.4685 C.3       8 UNK        -0.1800 
     34 N          -0.2460  -17.2704  -44.2003 N.am      8 UNK        -0.5000 
     35 C           0.0891  -18.5649  -44.3027 C.2       7 UNK         0.5000 
     36 O          -0.7107  -19.4605  -44.5657 O.2       7 UNK        -0.5000 
     37 CA          1.5620  -18.9177  -44.0555 C.3       7 UNK         0.1400 
     38 CB          2.4290  -18.5113  -45.2580 C.3       7 UNK        -0.1800 
     39 N           2.0475  -18.2687  -42.8402 N.am      7 UNK        -0.5000 
     40 C           1.9214  -18.7959  -41.6141 C.2       6 UNK         0.5000 
     41 O           1.5094  -19.9360  -41.3982 O.2       6 UNK        -0.5000 
     42 CA          2.2926  -17.8959  -40.4198 C.3       6 UNK         0.1400 
     43 CB          3.7405  -18.1486  -39.9759 C.3       6 UNK        -0.1800 
     44 N           2.1092  -16.4689  -40.6904 N.am      6 UNK        -0.5000 
     45 C           0.9167  -15.8823  -40.8707 C.2       5 UNK         0.5000 
     46 O          -0.1548  -16.4863  -40.8323 O.2       5 UNK        -0.5000 
     47 CA          0.9202  -14.3761  -41.1924 C.3       5 UNK         0.1400 
     48 CB          0.8661  -13.5526  -39.8972 C.3       5 UNK        -0.1800 
     49 N           2.0633  -13.9341  -41.9950 N.am      5 UNK        -0.5000 
     50 C           2.4189  -14.4243  -43.1903 C.2       4 UNK         0.5000 
     51 O           1.8297  -15.3518  -43.7500 O.2       4 UNK        -0.5000 
     52 CA          3.6527  -13.8046  -43.8750 C.3       4 UNK         0.1400 
     53 CB          4.3160  -12.6518  -43.0876 C.3       4 UNK        -0.1800 
     54 N           4.6391  -14.8314  -44.2155 N.am      4 UNK        -0.5000 
     55 C           5.2649  -15.6697  -43.3736 C.2       3 UNK         0.5000 
     56 O           5.0891  -15.6606  -42.1541 O.2       3 UNK        -0.5000 
     57 CA          6.2345  -16.7054  -43.9849 C.3       3 UNK         0.1400 
     58 CB          5.9728  -18.1143  -43.4259 C.3       3 UNK        -0.1800 
     59 N           6.1628  -16.7529  -45.4485 N.am      3 UNK        -0.5000 
     60 C           6.9162  -16.0180  -46.2784 C.2       2 UNK         0.5000 
     61 O           7.8040  -15.2530  -45.9009 O.2       2 UNK        -0.5000 
     62 CA          6.6023  -16.1306  -47.7840 C.3       2 UNK         0.1400 
     63 CB          7.4867  -17.2015  -48.4399 C.3       2 UNK        -0.1800 
     64 N           5.1967  -16.4256  -48.0819 N.am      2 UNK        -0.5000 
     65 C           4.1524  -15.6458  -47.7728 C.2       1 UNK         0.5000 
     66 O           4.2610  -14.5795  -47.1661 O.2       1 UNK        -0.5000 
     67 C          -2.9294  -21.7627  -47.9354 C.2       11 UNK         0.5000 
     68 O          -2.0715  -21.9226  -48.8086 O.2       11 UNK        -0.5000 
     69 N          -3.9803  -22.5777  -47.7790 N.am      12 UNK        -0.5000 
     70 CA         -4.1825  -23.8069  -48.5421 C.3       12 UNK         0.1400 
     71 CB         -5.6459  -24.2557  -48.4221 C.3       12 UNK        -0.1800 
     72 C          -3.2206  -24.9264  -48.1072 C.2       12 UNK         0.5000 
     73 O          -2.6174  -25.5715  -48.9640 O.2       12 UNK        -0.5000 
     74 N          -3.0724  -25.1120  -46.7883 N.am      13 UNK        -0.5000 
     75 CA         -2.2034  -26.1214  -46.1778 C.3       13 UNK         0.1400 
     76 CB         -2.6085  -26.3199  -44.7097 C.3       13 UNK        -0.1800 
     77 C          -0.7132  -25.7538  -46.2823 C.2       13 UNK         0.5000 
     78 O           0.1207  -26.6366  -46.4851 O.2       13 UNK        -0.5000 
     79 N          -0.4125  -24.4522  -46.1778 N.am      14 UNK        -0.5000 
     80 CA          0.9201  -23.8722  -46.3573 C.3       14 UNK         0.1400 
     81 CB          0.9071  -22.4332  -45.8141 C.3       14 UNK        -0.1800 
     82 C           1.4008  -23.8839  -47.8233 C.2       14 UNK         0.5000 
     83 O           2.5826  -23.6406  -48.0674 O.2       14 UNK        -0.5000 
     84 N           0.4769  -24.1381  -48.7643 N.am      15 UNK        -0.5000 
     85 CA          0.6544  -24.1448  -50.2206 C.3       15 UNK         0.1400 
     86 CB          1.6452  -25.2414  -50.6613 C.3       15 UNK        -0.1800 
     87 C           0.9919  -22.7554  -50.8024 C.2       15 UNK         0.5000 
     88 O           1.5446  -22.6632  -51.8990 O.2       15 UNK        -0.5000 
     89 N           0.6263  -21.6986  -50.0658 N.am      16 UNK        -0.5000 
     90 CA          0.7432  -20.3045  -50.4817 C.3       16 UNK         0.1400 
     91 CB          0.6894  -19.4056  -49.2399 C.3       16 UNK        -0.1800 
     92 C          -0.3697  -19.9397  -51.4766 C.2       16 UNK         0.5000 
     93 O          -0.0899  -19.3560  -52.5236 O.2       16 UNK        -0.5000 
     94 N          -1.6019  -20.3398  -51.1389 N.am      17 UNK        -0.5000 
     95 CA         -2.7633  -20.2927  -52.0235 C.3       17 UNK         0.1400 
     96 CB         -4.0109  -19.9321  -51.2065 C.3       17 UNK        -0.1800 
     97 C          -2.9765  -21.6480  -52.7114 C.2       17 UNK         0.5000 
     98 O          -3.4815  -21.6819  -53.8314 O.2       17 UNK        -0.5000 
     99 N          -2.6232  -22.7442  -52.0169 N.am      18 UNK        -0.5000 
    100 CA        -2.7525  -24.1423  -52.4575 C.3       18 UNK         0.1400 
    101 CB        -1.7411  -24.4435  -53.5823 C.3       18 UNK        -0.1800 
    102 C         -4.2002  -24.5424  -52.8273 C.2       18 UNK         0.5000 
    103 O         -4.4067  -25.3817  -53.7044 O.2       18 UNK        -0.5000 
    104 N         -5.1698  -23.9082  -52.1499 N.am      19 UNK        -0.5000 
    105 CA        -6.6217  -24.0174  -52.3270 C.3       19 UNK         0.1400 
    106 CB        -7.1108  -25.4643  -52.1041 C.3       19 UNK        -0.1800 
    107 C         -7.1536  -23.4069  -53.6434 C.2       19 UNK         0.5000 
    108 O         -8.3209  -23.6256  -53.9735 O.2       19 UNK        -0.5000 
    109 N         -6.3287  -22.6282  -54.3597 N.am      20 UNK        -0.5000 
    110 CA        -6.7549  -21.8358  -55.5129 C.3       20 UNK         0.1400 
    111 CB        -5.5316  -21.4765  -56.3702 C.3       20 UNK        -0.1800 
    112 C         -7.4793  -20.5583  -55.0532 C.2       20 UNK         0.5000 
    113 O         -7.1884  -20.0326  -53.9750 O.2       20 UNK        -0.5000 
    114 N         -8.3865  -20.0555  -55.8971 N.am      21 UNK        -0.5000 
    115 CA        -9.1639  -18.8365  -55.6690 C.3       21 UNK         0.1400 
    116 CB       -10.4789  -18.9357  -56.4641 C.3       21 UNK        -0.1800 
    117 C         -8.3502  -17.5712  -56.0155 C.2       21 UNK         0.5000 
    118 O         -8.7342  -16.8117  -56.9072 O.2       21 UNK        -0.5000 
    119 N         -7.2233  -17.3788  -55.3195 N.am      22 UNK        -0.5000 
    120 CA        -6.3206  -16.2264  -55.4795 C.3       22 UNK         0.1400 
    121 C         -6.8411  -14.8846  -54.8824 C.2       22 UNK         0.5000 
    122 N         -7.9153  -14.8715  -54.1023 N.am      22 UNK        -0.7600 
    123 O         -6.2632  -13.8325  -55.1413 O.2       22 UNK        -0.5000 
    124 C124       -4.8738  -16.5506  -55.0212 C.3       23 UNK        -0.0398 
    125 S125       -4.7177  -17.1122  -53.2883 S.3       23 UNK        -0.2404 
    126 C126       -4.3252  -15.5474  -52.4405 C.3       23 UNK        -0.0205 
    127 H127        3.8683  -16.7694  -52.5367 H         1 UNK         0.0600 
    128 H128        2.3966  -17.7382  -52.3983 H         1 UNK         0.0600 
    129 H129        2.3199  -15.9850  -52.2066 H         1 UNK         0.0600 
    130 H130        2.1406  -15.3600  -50.0759 H         1 UNK         0.3000 
    131 H131        2.6927  -17.1857  -47.8892 H         1 UNK         0.0600 
    132 H132        1.5775  -14.3359  -47.8913 H         1 UNK         0.0800 
    133 H133        1.7514  -15.3271  -46.4663 H         1 UNK         0.0800 
    134 H134       -0.3265  -14.5523  -49.5805 H         1 UNK         0.0800 
    135 H135       -1.0764  -14.0348  -48.0826 H         1 UNK         0.0800 
    136 H136       -1.9842  -14.8114  -51.2561 H         1 UNK         0.1150 
    137 H137       -5.7157  -16.7533  -50.4123 H         1 UNK         0.1150 
    138 H138       -2.8840  -16.0852  -47.2715 H         1 UNK         0.1150 
    139 H139       -5.0808  -16.9285  -46.7330 H         1 UNK         0.0800 
    140 H140       -6.3234  -17.0302  -47.9545 H         1 UNK         0.0800 
    141 H141       -2.9176  -18.4380  -46.9220 H         1 UNK         0.0800 
    142 H142       -2.7265  -19.0659  -48.5282 H         1 UNK         0.0800 
    143 H143       -1.7211  -20.4905  -46.7738 H         1 UNK         0.0600 
    144 H144       -4.0017  -20.0512  -45.3036 H         1 UNK         0.3000 
    145 H145       -4.7118  -21.6921  -43.4280 H         1 UNK         0.0600 
    146 H146       -2.0503  -22.7383  -42.3050 H         1 UNK         0.0600 
    147 H147       -3.4469  -23.7179  -42.7448 H         1 UNK         0.0600 
    148 H148       -3.5529  -22.6061  -41.3924 H         1 UNK         0.0600 
    149 H149       -2.3986  -19.9180  -43.2137 H         1 UNK         0.3000 
    150 H150       -4.2599  -17.5606  -41.4289 H         1 UNK         0.0600 
    151 H151       -3.4344  -18.7982  -39.3930 H         1 UNK         0.0600 
    152 H152       -2.4931  -17.3564  -39.7296 H         1 UNK         0.0600 
    153 H153       -1.8477  -18.9451  -40.1423 H         1 UNK         0.0600 
    154 H154       -1.5116  -17.4799  -42.0768 H         1 UNK         0.3000 
    155 H155       -1.7565  -17.0040  -45.5676 H         1 UNK         0.0600 
    156 H156       -1.3520  -14.8383  -43.4494 H         1 UNK         0.0600 
    157 H157       -2.4451  -14.7515  -44.8231 H         1 UNK         0.0600 
    158 H158       -0.7093  -14.7874  -45.0909 H         1 UNK         0.0600 
    159 H159        0.4824  -16.5934  -43.9872 H         1 UNK         0.3000 
    160 H160        1.6299  -20.0027  -43.9511 H         1 UNK         0.0600 
    161 H161        3.4254  -18.9449  -45.1891 H         1 UNK         0.0600 
    162 H162        2.5349  -17.4297  -45.3361 H         1 UNK         0.0600 
    163 H163        1.9912  -18.8696  -46.1906 H         1 UNK         0.0600 
    164 H164        2.3321  -17.3011  -42.9237 H         1 UNK         0.3000 
    165 H165        1.6340  -18.1665  -39.5917 H         1 UNK         0.0600 
    166 H166        3.9875  -17.5700  -39.0857 H         1 UNK         0.0600 
    167 H167        3.8975  -19.2005  -39.7340 H         1 UNK         0.0600 
    168 H168        4.4517  -17.8823  -40.7567 H         1 UNK         0.0600 
    169 H169        2.9474  -15.9106  -40.7846 H         1 UNK         0.3000 
    170 H170        0.0175  -14.1603  -41.7642 H         1 UNK         0.0600 
    171 H171        0.0106  -13.8424  -39.2854 H         1 UNK         0.0600 
    172 H172        1.7639  -13.6923  -39.2937 H         1 UNK         0.0600 
    173 H173        0.7654  -12.4881  -40.1095 H         1 UNK         0.0600 
    174 H174        2.6229  -13.1911  -41.6027 H         1 UNK         0.3000 
    175 H175        3.2958  -13.3947  -44.8207 H         1 UNK         0.0600 
    176 H176        5.1597  -12.2413  -43.6426 H         1 UNK         0.0600 
    177 H177        3.6165  -11.8314  -42.9227 H         1 UNK         0.0600 
    178 H178        4.6905  -12.9745  -42.1155 H         1 UNK         0.0600 
    179 H179        4.8186  -14.9252  -45.2083 H         1 UNK         0.3000 
    180 H180        7.2426  -16.4144  -43.6827 H         1 UNK         0.0600 
    181 H181        4.9302  -18.4092  -43.5354 H         1 UNK         0.0600 
    182 H182        6.2133  -18.1591  -42.3634 H         1 UNK         0.0600 
    183 H183        6.5905  -18.8617  -43.9242 H         1 UNK         0.0600 
    184 H184        5.4593  -17.3552  -45.8493 H         1 UNK         0.3000 
    185 H185        6.8395  -15.1666  -48.2388 H         1 UNK         0.0600 
    186 H186        7.2724  -18.1959  -48.0463 H         1 UNK         0.0600 
    187 H187        7.3379  -17.2288  -49.5196 H         1 UNK         0.0600 
    188 H188        8.5439  -16.9984  -48.2634 H         1 UNK         0.0600 
    189 H189        5.0106  -17.2523  -48.6415 H         1 UNK         0.3000 
    190 H190       -4.6482  -22.3659  -47.0522 H         1 UNK         0.3000 
    191 H191       -3.9838  -23.5936  -49.5923 H         1 UNK         0.0600 
    192 H192       -6.3231  -23.5001  -48.8208 H         1 UNK         0.0600 
    193 H193       -5.9279  -24.4456  -47.3859 H         1 UNK         0.0600 
    194 H194       -5.8190  -25.1750  -48.9826 H         1 UNK         0.0600 
    195 H195       -3.5380  -24.4797  -46.1534 H         1 UNK         0.3000 
    196 H196       -2.3530  -27.0670  -46.7034 H         1 UNK         0.0600 
    197 H197       -2.0127  -27.1062  -44.2445 H         1 UNK         0.0600 
    198 H198       -3.6554  -26.6109  -44.6234 H         1 UNK         0.0600 
    199 H199       -2.4617  -25.4106  -44.1267 H         1 UNK         0.0600 
    200 H200       -1.1577  -23.8051  -45.9256 H         1 UNK         0.3000 
    201 H201        1.6317  -24.4569  -45.7710 H         1 UNK         0.0600 
    202 H202        0.2263  -21.7968  -46.3794 H         1 UNK         0.0600 
    203 H203        1.8985  -21.9820  -45.8697 H         1 UNK         0.0600 
    204 H204        0.5959  -22.4059  -44.7695 H         1 UNK         0.0600 
    205 H205       -0.4627  -24.3289  -48.4442 H         1 UNK         0.3000 
    206 H206       -0.3197  -24.4092  -50.6310 H         1 UNK         0.0600 
    207 H207        1.3794  -26.2075  -50.2321 H         1 UNK         0.0600 
    208 H208        1.6417  -25.3577  -51.7457 H         1 UNK         0.0600 
    209 H209        2.6677  -25.0099  -50.3624 H         1 UNK         0.0600 
    210 H210        0.1287  -21.8758  -49.2040 H         1 UNK         0.3000 
    211 H211        1.7072  -20.1547  -50.9731 H         1 UNK         0.0600 
    212 H212       -0.2169  -19.5615  -48.6549 H         1 UNK         0.0600 
    213 H213        0.7123  -18.3578  -49.5343 H         1 UNK         0.0600 
    214 H214        1.5459  -19.5814  -48.5893 H         1 UNK         0.0600 
    215 H215       -1.7233  -20.8255  -50.2556 H         1 UNK         0.3000 
    216 H216       -2.6256  -19.5324  -52.7954 H         1 UNK         0.0600 
    217 H217       -4.8935  -19.8741  -51.8454 H         1 UNK         0.0600 
    218 H218       -3.8930  -18.9597  -50.7312 H         1 UNK         0.0600 
    219 H219       -4.2193  -20.6659  -50.4282 H         1 UNK         0.0600 
    220 H220       -2.2399  -22.6074  -51.0923 H         1 UNK         0.3000 
    221 H221       -2.4861  -24.7628  -51.6017 H         1 UNK         0.0600 
    222 H222       -1.9857  -23.9061  -54.4990 H         1 UNK         0.0600 
    223 H223       -0.7293  -24.1626  -53.2901 H         1 UNK         0.0600 
    224 H224       -1.7244  -25.5075  -53.8209 H         1 UNK         0.0600 
    225 H225       -4.8770  -23.2070  -51.4869 H         1 UNK         0.3000 
    226 H226       -7.0549  -23.4088  -51.5320 H         1 UNK         0.0600 
    227 H227       -6.7154  -25.8793  -51.1775 H         1 UNK         0.0600 
    228 H228       -8.1985  -25.5023  -52.0356 H         1 UNK         0.0600 
    229 H229       -6.8160  -26.1238  -52.9204 H         1 UNK         0.0600 
    230 H230       -5.3872  -22.4543  -54.0258 H         1 UNK         0.3000 
    231 H231       -7.4366  -22.4346  -56.1207 H         1 UNK         0.0600 
    232 H232       -4.9513  -22.3632  -56.6263 H         1 UNK         0.0600 
    233 H233       -4.8698  -20.7775  -55.8577 H         1 UNK         0.0600 
    234 H234       -5.8370  -21.0052  -57.3050 H         1 UNK         0.0600 
    235 H235       -8.5395  -20.5186  -56.7815 H         1 UNK         0.3000 
    236 H236       -9.4253  -18.7721  -54.6106 H         1 UNK         0.0600 
    237 H237      -11.1046  -18.0580  -56.2971 H         1 UNK         0.0600 
    238 H238      -10.2981  -19.0124  -57.5370 H         1 UNK         0.0600 
    239 H239      -11.0585  -19.8072  -56.1590 H         1 UNK         0.0600 
    240 H240       -6.9676  -18.0599  -54.6121 H         1 UNK         0.3000 
    241 H241       -6.2542  -16.0357  -56.5525 H         1 UNK         0.0600 
    242 H242       -8.2471  -13.9963  -53.7283 H         1 UNK         0.3800 
    243 H243       -8.3943  -15.7276  -53.8756 H         1 UNK         0.3800 
    244 H244       -4.4786  -17.3496  -55.6498 H         1 UNK         0.0800 
    245 H245       -4.2122  -15.7005  -55.1954 H         1 UNK         0.0800 
    246 H246       -5.1992  -14.8960  -52.4594 H         1 UNK         0.0800 
    247 H247       -3.5409  -15.0297  -52.9946 H         1 UNK         0.0800 
@<TRIPOS>BOND
     1    1    2 1    
     2    1  127 1    
     3    1  128 1    
     4    1  129 1    
     5    2    3 2    
     6    2    4 am   BACKBONE|DICT|INTERRES
     7    4    5 1    
     8    4  130 1    
     9    5    6 1    
    10    5   65 1    
    11    5  131 1    
    12    6    7 1    
    13    6  132 1    
    14    6  133 1    
    15    7    8 1    
    16    8    9 1    
    17    8  134 1    
    18    8  135 1    
    19    9   10 ar   
    20    9   14 ar   
    21   10   11 ar   
    22   10  136 1    
    23   11   12 ar   
    24   11  126 1    
    25   12   13 ar   
    26   12  137 1    
    27   13   14 ar   
    28   13   15 1    
    29   14  138 1    
    30   15   16 1    
    31   15  139 1    
    32   15  140 1    
    33   16   17 1    
    34   17   18 1    
    35   17  141 1    
    36   17  142 1    
    37   18   19 1    
    38   18   67 1    
    39   18  143 1    
    40   19   20 am   BACKBONE|DICT|INTERRES
    41   19  144 1    
    42   20   21 2    
    43   20   22 1    
    44   22   23 1    
    45   22   24 1    
    46   22  145 1    
    47   23  146 1    
    48   23  147 1    
    49   23  148 1    
    50   24   25 am   BACKBONE|DICT|INTERRES
    51   24  149 1    
    52   25   26 2    
    53   25   27 1    
    54   27   28 1    
    55   27   29 1    
    56   27  150 1    
    57   28  151 1    
    58   28  152 1    
    59   28  153 1    
    60   29   30 am   BACKBONE|DICT|INTERRES
    61   29  154 1    
    62   30   31 2    
    63   30   32 1    
    64   32   33 1    
    65   32   34 1    
    66   32  155 1    
    67   33  156 1    
    68   33  157 1    
    69   33  158 1    
    70   34   35 am   BACKBONE|DICT|INTERRES
    71   34  159 1    
    72   35   36 2    
    73   35   37 1    
    74   37   38 1    
    75   37   39 1    
    76   37  160 1    
    77   38  161 1    
    78   38  162 1    
    79   38  163 1    
    80   39   40 am   BACKBONE|DICT|INTERRES
    81   39  164 1    
    82   40   41 2    
    83   40   42 1    
    84   42   43 1    
    85   42   44 1    
    86   42  165 1    
    87   43  166 1    
    88   43  167 1    
    89   43  168 1    
    90   44   45 am   BACKBONE|DICT|INTERRES
    91   44  169 1    
    92   45   46 2    
    93   45   47 1    
    94   47   48 1    
    95   47   49 1    
    96   47  170 1    
    97   48  171 1    
    98   48  172 1    
    99   48  173 1    
   100   49   50 am   BACKBONE|DICT|INTERRES
   101   49  174 1    
   102   50   51 2    
   103   50   52 1    
   104   52   53 1    
   105   52   54 1    
   106   52  175 1    
   107   53  176 1    
   108   53  177 1    
   109   53  178 1    
   110   54   55 am   BACKBONE|DICT|INTERRES
   111   54  179 1    
   112   55   56 2    
   113   55   57 1    
   114   57   58 1    
   115   57   59 1    
   116   57  180 1    
   117   58  181 1    
   118   58  182 1    
   119   58  183 1    
   120   59   60 am   BACKBONE|DICT|INTERRES
   121   59  184 1    
   122   60   61 2    
   123   60   62 1    
   124   62   63 1    
   125   62   64 1    
   126   62  185 1    
   127   63  186 1    
   128   63  187 1    
   129   63  188 1    
   130   64   65 am   BACKBONE|DICT|INTERRES
   131   64  189 1    
   132   65   66 2    
   133   67   68 2    
   134   67   69 am   BACKBONE|DICT|INTERRES
   135   69   70 1    
   136   69  190 1    
   137   70   71 1    
   138   70   72 1    
   139   70  191 1    
   140   71  192 1    
   141   71  193 1    
   142   71  194 1    
   143   72   73 2    
   144   72   74 am   BACKBONE|DICT|INTERRES
   145   74   75 1    
   146   74  195 1    
   147   75   76 1    
   148   75   77 1    
   149   75  196 1    
   150   76  197 1    
   151   76  198 1    
   152   76  199 1    
   153   77   78 2    
   154   77   79 am   BACKBONE|DICT|INTERRES
   155   79   80 1    
   156   79  200 1    
   157   80   81 1    
   158   80   82 1    
   159   80  201 1    
   160   81  202 1    
   161   81  203 1    
   162   81  204 1    
   163   82   83 2    
   164   82   84 am   BACKBONE|DICT|INTERRES
   165   84   85 1    
   166   84  205 1    
   167   85   86 1    
   168   85   87 1    
   169   85  206 1    
   170   86  207 1    
   171   86  208 1    
   172   86  209 1    
   173   87   88 2    
   174   87   89 am   BACKBONE|DICT|INTERRES
   175   89   90 1    
   176   89  210 1    
   177   90   91 1    
   178   90   92 1    
   179   90  211 1    
   180   91  212 1    
   181   91  213 1    
   182   91  214 1    
   183   92   93 2    
   184   92   94 am   BACKBONE|DICT|INTERRES
   185   94   95 1    
   186   94  215 1    
   187   95   96 1    
   188   95   97 1    
   189   95  216 1    
   190   96  217 1    
   191   96  218 1    
   192   96  219 1    
   193   97   98 2    
   194   97   99 am   BACKBONE|DICT|INTERRES
   195   99  100 1    
   196   99  220 1    
   197  100  101 1    
   198  100  102 1    
   199  100  221 1    
   200  101  222 1    
   201  101  223 1    
   202  101  224 1    
   203  102  103 2    
   204  102  104 am   BACKBONE|DICT|INTERRES
   205  104  105 1    
   206  104  225 1    
   207  105  106 1    
   208  105  107 1    
   209  105  226 1    
   210  106  227 1    
   211  106  228 1    
   212  106  229 1    
   213  107  108 2    
   214  107  109 am   BACKBONE|DICT|INTERRES
   215  109  110 1    
   216  109  230 1    
   217  110  111 1    
   218  110  112 1    
   219  110  231 1    
   220  111  232 1    
   221  111  233 1    
   222  111  234 1    
   223  112  113 2    
   224  112  114 am   BACKBONE|DICT|INTERRES
   225  114  115 1    
   226  114  235 1    
   227  115  116 1    
   228  115  117 1    
   229  115  236 1    
   230  116  237 1    
   231  116  238 1    
   232  116  239 1    
   233  117  118 2    
   234  117  119 am   BACKBONE|DICT|INTERRES
   235  119  120 1    
   236  119  240 1    
   237  120  121 1    
   238  120  124 1    
   239  120  241 1    
   240  121  122 am   BACKBONE|DICT|INTERRES
   241  121  123 2    
   242  122  242 1    
   243  122  243 1    
   244  124  125 1    
   245  124  244 1    
   246  124  245 1    
   247  125  126 1    
   248  126  246 1    
   249  126  247 1    
@<TRIPOS>SUBSTRUCTURE
     1 UNK         1 GROUP             0       ****    0 ROOT    
