@<TRIPOS>MOLECULE
3R540
247   249    1
SMALL
USER_CHARGES


@<TRIPOS>ATOM
      1 CA         -0.1557  -11.6386  -49.3211 C.3       0 UNK        -0.1800 
      2 C          -0.1263  -12.1122  -47.8757 C.2       0 UNK         0.5000 
      3 O           0.8677  -12.6945  -47.4427 O.2       0 UNK        -0.5000 
      4 N          -1.2097  -11.8726  -47.1286 N.am      1 UNK        -0.5000 
      5 CA         -1.3632  -12.2349  -45.7156 C.3       1 UNK         0.1400 
      6 C6         -2.8523  -12.4460  -45.3297 C.3       23 UNK        -0.0398 
      7 S7         -3.6860  -13.7179  -46.3419 S.3       23 UNK        -0.2404 
      8 C8         -3.1043  -15.2179  -45.5004 C.3       23 UNK        -0.0205 
      9 C9         -3.5258  -16.4910  -46.2153 C.ar      23 UNK        -0.0193 
     10 C10        -2.9614  -16.8150  -47.4515 C.ar      23 UNK        -0.1150 
     11 C11        -3.2755  -18.0207  -48.0825 C.ar      23 UNK        -0.0193 
     12 C12        -4.1549  -18.9123  -47.4650 C.ar      23 UNK        -0.1150 
     13 C13        -4.7278  -18.5997  -46.2286 C.ar      23 UNK        -0.0193 
     14 C14        -4.4226  -17.3798  -45.6156 C.ar      23 UNK        -0.1150 
     15 C15        -5.6476  -19.6005  -45.5432 C.3       23 UNK        -0.0205 
     16 S16        -4.9894  -20.2236  -43.9555 S.3       23 UNK        -0.2404 
     17 C17        -3.2099  -20.4820  -44.2862 C.3       23 UNK        -0.0398 
     18 CA         -2.9005  -21.6299  -45.2768 C.3       11 UNK         0.1400 
     19 N          -1.5992  -21.4420  -45.9313 N.am      11 UNK        -0.5000 
     20 C          -1.1505  -22.1590  -46.9733 C.2       10 UNK         0.5000 
     21 O          -1.8091  -23.0558  -47.5017 O.2       10 UNK        -0.5000 
     22 CA          0.2624  -21.8576  -47.5099 C.3       10 UNK         0.1400 
     23 CB          0.1897  -21.2375  -48.9130 C.3       10 UNK        -0.1800 
     24 N           1.0319  -20.9739  -46.6332 N.am      10 UNK        -0.5000 
     25 C           1.6977  -21.3803  -45.5408 C.2       9 UNK         0.5000 
     26 O           1.7490  -22.5554  -45.1770 O.2       9 UNK        -0.5000 
     27 CA          2.3879  -20.2940  -44.6870 C.3       9 UNK         0.1400 
     28 CB          3.8578  -20.1350  -45.1016 C.3       9 UNK        -0.1800 
     29 N           1.7296  -18.9887  -44.7653 N.am      9 UNK        -0.5000 
     30 C           0.4673  -18.7479  -44.3832 C.2       8 UNK         0.5000 
     31 O          -0.2393  -19.5871  -43.8268 O.2       8 UNK        -0.5000 
     32 CA         -0.1354  -17.3736  -44.7343 C.3       8 UNK         0.1400 
     33 CB         -0.2150  -16.4898  -43.4805 C.3       8 UNK        -0.1800 
     34 N           0.5704  -16.6640  -45.8096 N.am      8 UNK        -0.5000 
     35 C           0.6933  -17.1180  -47.0690 C.2       7 UNK         0.5000 
     36 O           0.2300  -18.1948  -47.4440 O.2       7 UNK        -0.5000 
     37 CA          1.4948  -16.2690  -48.0741 C.3       7 UNK         0.1400 
     38 CB          0.5466  -15.5352  -49.0324 C.3       7 UNK        -0.1800 
     39 N           2.4022  -15.3104  -47.4390 N.am      7 UNK        -0.5000 
     40 C           3.5145  -15.6625  -46.7764 C.2       6 UNK         0.5000 
     41 O           3.8767  -16.8323  -46.6376 O.2       6 UNK        -0.5000 
     42 CA          4.3505  -14.5451  -46.1176 C.3       6 UNK         0.1400 
     43 CB          4.1594  -13.1513  -46.7472 C.3       6 UNK        -0.1800 
     44 N           4.1379  -14.4887  -44.6692 N.am      6 UNK        -0.5000 
     45 C           2.9690  -14.4007  -44.0201 C.2       5 UNK         0.5000 
     46 O           1.8753  -14.2901  -44.5760 O.2       5 UNK        -0.5000 
     47 CA          3.0326  -14.4384  -42.4851 C.3       5 UNK         0.1400 
     48 CB          3.5400  -15.7963  -41.9541 C.3       5 UNK        -0.1800 
     49 N           3.7740  -13.3061  -41.9233 N.am      5 UNK        -0.5000 
     50 C           5.0912  -13.0526  -41.9471 C.2       4 UNK         0.5000 
     51 O           5.9193  -13.8158  -42.4475 O.2       4 UNK        -0.5000 
     52 CA          5.5615  -11.7092  -41.3411 C.3       4 UNK         0.1400 
     53 CB          6.7207  -11.0991  -42.1491 C.3       4 UNK        -0.1800 
     54 N           4.4814  -10.7227  -41.2705 N.am      4 UNK        -0.5000 
     55 C           3.6237  -10.5561  -40.2539 C.2       3 UNK         0.5000 
     56 O           3.6997  -11.1643  -39.1868 O.2       3 UNK        -0.5000 
     57 CA          2.4497   -9.5840  -40.5017 C.3       3 UNK         0.1400 
     58 CB          2.7770   -8.1898  -39.9462 C.3       3 UNK        -0.1800 
     59 N           2.0984   -9.4667  -41.9229 N.am      3 UNK        -0.5000 
     60 C           1.5955  -10.4625  -42.6662 C.2       2 UNK         0.5000 
     61 O           1.2892  -11.5653  -42.2070 O.2       2 UNK        -0.5000 
     62 CA          1.5219  -10.1981  -44.1811 C.3       2 UNK         0.1400 
     63 CB          2.9301  -10.2765  -44.7942 C.3       2 UNK        -0.1800 
     64 N           0.6644  -11.1516  -44.8816 N.am      2 UNK        -0.5000 
     65 C          -0.6718  -11.1738  -44.8323 C.2       1 UNK         0.5000 
     66 O          -1.3432  -10.3692  -44.1826 O.2       1 UNK        -0.5000 
     67 C          -3.0175  -23.0118  -44.6008 C.2       11 UNK         0.5000 
     68 O          -4.0972  -23.6024  -44.6071 O.2       11 UNK        -0.5000 
     69 N          -1.8875  -23.5413  -44.1079 N.am      12 UNK        -0.5000 
     70 CA         -1.7620  -24.8885  -43.5439 C.3       12 UNK         0.1400 
     71 CB         -0.3587  -25.0407  -42.9381 C.3       12 UNK        -0.1800 
     72 C          -2.0339  -26.0147  -44.5641 C.2       12 UNK         0.5000 
     73 O          -2.4314  -27.1094  -44.1648 O.2       12 UNK        -0.5000 
     74 N          -1.8363  -25.7182  -45.8553 N.am      13 UNK        -0.5000 
     75 CA         -2.1331  -26.5973  -46.9855 C.3       13 UNK         0.1400 
     76 CB         -0.9418  -26.5463  -47.9579 C.3       13 UNK        -0.1800 
     77 C          -3.4366  -26.1922  -47.7036 C.2       13 UNK         0.5000 
     78 O          -3.7456  -26.7695  -48.7464 O.2       13 UNK        -0.5000 
     79 N          -4.1542  -25.1855  -47.1784 N.am      14 UNK        -0.5000 
     80 CA         -5.3507  -24.5556  -47.7481 C.3       14 UNK         0.1400 
     81 CB         -6.5514  -25.5221  -47.6827 C.3       14 UNK        -0.1800 
     82 C          -5.1061  -23.9944  -49.1653 C.2       14 UNK         0.5000 
     83 O          -5.9203  -24.2110  -50.0635 O.2       14 UNK        -0.5000 
     84 N          -3.9539  -23.3305  -49.3519 N.am      15 UNK        -0.5000 
     85 CA         -3.4337  -22.8200  -50.6268 C.3       15 UNK         0.1400 
     86 CB         -4.3213  -21.6824  -51.1713 C.3       15 UNK        -0.1800 
     87 C          -3.1873  -23.9505  -51.6497 C.2       15 UNK         0.5000 
     88 O          -3.4982  -23.7997  -52.8341 O.2       15 UNK        -0.5000 
     89 N          -2.6587  -25.0752  -51.1418 N.am      16 UNK        -0.5000 
     90 CA         -2.4537  -26.3611  -51.8170 C.3       16 UNK         0.1400 
     91 CB         -1.3821  -26.2403  -52.9191 C.3       16 UNK        -0.1800 
     92 C          -3.7850  -26.9452  -52.3271 C.2       16 UNK         0.5000 
     93 O          -3.9063  -27.2688  -53.5075 O.2       16 UNK        -0.5000 
     94 N          -4.7843  -27.0009  -51.4340 N.am      17 UNK        -0.5000 
     95 CA         -6.1886  -27.3391  -51.7063 C.3       17 UNK         0.1400 
     96 CB         -6.3336  -28.8463  -51.9991 C.3       17 UNK        -0.1800 
     97 C          -6.8008  -26.4446  -52.8095 C.2       17 UNK         0.5000 
     98 O          -7.4753  -26.9364  -53.7157 O.2       17 UNK        -0.5000 
     99 N          -6.4944  -25.1433  -52.7206 N.am      18 UNK        -0.5000 
    100 CA        -6.8056  -24.0570  -53.6527 C.3       18 UNK         0.1400 
    101 CB        -8.3298  -23.8498  -53.7632 C.3       18 UNK        -0.1800 
    102 C         -6.1294  -24.1562  -55.0395 C.2       18 UNK         0.5000 
    103 O         -6.4336  -23.3290  -55.9002 O.2       18 UNK        -0.5000 
    104 N         -5.2206  -25.1207  -55.2539 N.am      19 UNK        -0.5000 
    105 CA        -4.5321  -25.3150  -56.5329 C.3       19 UNK         0.1400 
    106 CB        -3.9757  -26.7435  -56.6232 C.3       19 UNK        -0.1800 
    107 C         -3.4118  -24.2886  -56.7746 C.2       19 UNK         0.5000 
    108 O         -3.1805  -23.9186  -57.9266 O.2       19 UNK        -0.5000 
    109 N         -2.7404  -23.8414  -55.7028 N.am      20 UNK        -0.5000 
    110 CA        -1.7123  -22.7993  -55.7717 C.3       20 UNK         0.1400 
    111 CB        -0.6959  -22.9849  -54.6340 C.3       20 UNK        -0.1800 
    112 C         -2.3285  -21.3921  -55.7192 C.2       20 UNK         0.5000 
    113 O         -1.7253  -20.4502  -56.2353 O.2       20 UNK        -0.5000 
    114 N         -3.5068  -21.2750  -55.0844 N.am      21 UNK        -0.5000 
    115 CA        -4.3382  -20.0692  -54.9617 C.3       21 UNK         0.1400 
    116 CB        -4.9900  -19.7405  -56.3200 C.3       21 UNK        -0.1800 
    117 C         -3.5955  -18.8605  -54.3474 C.2       21 UNK         0.5000 
    118 O         -3.8680  -17.7151  -54.7107 O.2       21 UNK        -0.5000 
    119 N         -2.6543  -19.1558  -53.4405 N.am      22 UNK        -0.5000 
    120 CA        -1.7364  -18.2126  -52.7791 C.3       22 UNK         0.1400 
    121 C         -0.6326  -17.6232  -53.7112 C.2       22 UNK         0.5000 
    122 N         -0.4217  -18.1428  -54.9155 N.am      22 UNK        -0.7600 
    123 O          0.0741  -16.6963  -53.3249 O.2       22 UNK        -0.5000 
    124 C124       -2.4559  -17.1109  -51.9482 C.3       23 UNK        -0.0398 
    125 S125       -3.7034  -17.7622  -50.7855 S.3       23 UNK        -0.2404 
    126 C126       -2.6564  -18.3602  -49.4256 C.3       23 UNK        -0.0205 
    127 H127       -1.0876  -11.1263  -49.5612 H         1 UNK         0.0600 
    128 H128       -0.0504  -12.4885  -49.9952 H         1 UNK         0.0600 
    129 H129        0.6694  -10.9510  -49.5059 H         1 UNK         0.0600 
    130 H130       -1.9932  -11.3838  -47.5371 H         1 UNK         0.3000 
    131 H131       -0.8408  -13.1772  -45.5372 H         1 UNK         0.0600 
    132 H132       -2.9397  -12.7216  -44.2772 H         1 UNK         0.0800 
    133 H133       -3.4118  -11.5161  -45.4452 H         1 UNK         0.0800 
    134 H134       -2.0167  -15.1948  -45.4652 H         1 UNK         0.0800 
    135 H135       -3.4541  -15.2169  -44.4669 H         1 UNK         0.0800 
    136 H136       -2.2687  -16.1299  -47.9184 H         1 UNK         0.1150 
    137 H137       -4.3871  -19.8513  -47.9477 H         1 UNK         0.1150 
    138 H138       -4.8537  -17.1449  -44.6524 H         1 UNK         0.1150 
    139 H139       -6.6145  -19.1292  -45.3625 H         1 UNK         0.0800 
    140 H140       -5.8448  -20.4519  -46.1964 H         1 UNK         0.0800 
    141 H141       -2.7041  -20.6447  -43.3327 H         1 UNK         0.0800 
    142 H142       -2.8028  -19.5429  -44.6596 H         1 UNK         0.0800 
    143 H143       -3.6448  -21.6046  -46.0747 H         1 UNK         0.0600 
    144 H144       -0.9910  -20.7433  -45.5238 H         1 UNK         0.3000 
    145 H145        0.7854  -22.8125  -47.5953 H         1 UNK         0.0600 
    146 H146        1.1849  -21.0127  -49.2969 H         1 UNK         0.0600 
    147 H147       -0.2797  -21.9226  -49.6188 H         1 UNK         0.0600 
    148 H148       -0.3856  -20.3126  -48.9162 H         1 UNK         0.0600 
    149 H149        0.9898  -19.9834  -46.8525 H         1 UNK         0.3000 
    150 H150        2.3569  -20.6232  -43.6464 H         1 UNK         0.0600 
    151 H151        4.3899  -21.0845  -45.0303 H         1 UNK         0.0600 
    152 H152        4.3749  -19.4234  -44.4575 H         1 UNK         0.0600 
    153 H153        3.9490  -19.7823  -46.1299 H         1 UNK         0.0600 
    154 H154        2.2396  -18.2520  -45.2336 H         1 UNK         0.3000 
    155 H155       -1.1520  -17.5581  -45.0837 H         1 UNK         0.0600 
    156 H156       -0.8835  -16.9295  -42.7394 H         1 UNK         0.0600 
    157 H157       -0.5893  -15.4918  -43.7047 H         1 UNK         0.0600 
    158 H158        0.7590  -16.3767  -43.0098 H         1 UNK         0.0600 
    159 H159        1.0024  -15.7774  -45.5641 H         1 UNK         0.3000 
    160 H160        2.1012  -16.9556  -48.6686 H         1 UNK         0.0600 
    161 H161       -0.1988  -14.9521  -48.4924 H         1 UNK         0.0600 
    162 H162        0.0105  -16.2448  -49.6616 H         1 UNK         0.0600 
    163 H163        1.0904  -14.8626  -49.6959 H         1 UNK         0.0600 
    164 H164        2.1077  -14.3380  -47.4394 H         1 UNK         0.3000 
    165 H165        5.3941  -14.8258  -46.2662 H         1 UNK         0.0600 
    166 H166        4.9208  -12.4586  -46.3888 H         1 UNK         0.0600 
    167 H167        4.2441  -13.1893  -47.8339 H         1 UNK         0.0600 
    168 H168        3.1910  -12.7223  -46.5016 H         1 UNK         0.0600 
    169 H169        4.9733  -14.5428  -44.0953 H         1 UNK         0.3000 
    170 H170        2.0077  -14.3186  -42.1303 H         1 UNK         0.0600 
    171 H171        2.9339  -16.6194  -42.3321 H         1 UNK         0.0600 
    172 H172        4.5681  -16.0038  -42.2496 H         1 UNK         0.0600 
    173 H173        3.4928  -15.8325  -40.8659 H         1 UNK         0.0600 
    174 H174        3.1764  -12.5834  -41.5431 H         1 UNK         0.3000 
    175 H175        5.9260  -11.9213  -40.3340 H         1 UNK         0.0600 
    176 H176        6.4342  -10.9133  -43.1850 H         1 UNK         0.0600 
    177 H177        7.0481  -10.1536  -41.7163 H         1 UNK         0.0600 
    178 H178        7.5863  -11.7626  -42.1607 H         1 UNK         0.0600 
    179 H179        4.3299  -10.1753  -42.1043 H         1 UNK         0.3000 
    180 H180        1.5802   -9.9721  -39.9669 H         1 UNK         0.0600 
    181 H181        3.6318   -7.7430  -40.4556 H         1 UNK         0.0600 
    182 H182        3.0177   -8.2399  -38.8834 H         1 UNK         0.0600 
    183 H183        1.9292   -7.5130  -40.0541 H         1 UNK         0.0600 
    184 H184        2.3217   -8.5873  -42.3673 H         1 UNK         0.3000 
    185 H185        1.1218   -9.1947  -44.3408 H         1 UNK         0.0600 
    186 H186        3.5783   -9.4935  -44.3993 H         1 UNK         0.0600 
    187 H187        3.4067  -11.2340  -44.5803 H         1 UNK         0.0600 
    188 H188        2.8992  -10.1509  -45.8769 H         1 UNK         0.0600 
    189 H189        1.1259  -11.8559  -45.4461 H         1 UNK         0.3000 
    190 H190       -1.0382  -22.9967  -44.1615 H         1 UNK         0.3000 
    191 H191       -2.4969  -24.9871  -42.7423 H         1 UNK         0.0600 
    192 H192        0.4200  -24.9202  -43.6927 H         1 UNK         0.0600 
    193 H193       -0.1842  -24.3023  -42.1554 H         1 UNK         0.0600 
    194 H194       -0.2309  -26.0261  -42.4880 H         1 UNK         0.0600 
    195 H195       -1.5334  -24.7838  -46.0971 H         1 UNK         0.3000 
    196 H196       -2.2555  -27.6280  -46.6473 H         1 UNK         0.0600 
    197 H197       -0.0147  -26.8266  -47.4575 H         1 UNK         0.0600 
    198 H198       -0.8052  -25.5494  -48.3789 H         1 UNK         0.0600 
    199 H199       -1.0799  -27.2403  -48.7875 H         1 UNK         0.0600 
    200 H200       -3.8400  -24.7850  -46.3027 H         1 UNK         0.3000 
    201 H201       -5.5806  -23.6971  -47.1155 H         1 UNK         0.0600 
    202 H202       -7.4686  -25.0293  -48.0073 H         1 UNK         0.0600 
    203 H203       -6.7164  -25.8742  -46.6645 H         1 UNK         0.0600 
    204 H204       -6.4063  -26.3952  -48.3193 H         1 UNK         0.0600 
    205 H205       -3.3147  -23.2468  -48.5638 H         1 UNK         0.3000 
    206 H206       -2.4551  -22.3922  -50.4104 H         1 UNK         0.0600 
    207 H207       -4.4264  -20.8819  -50.4395 H         1 UNK         0.0600 
    208 H208       -5.3215  -22.0283  -51.4280 H         1 UNK         0.0600 
    209 H209       -3.8884  -21.2454  -52.0689 H         1 UNK         0.0600 
    210 H210       -2.4951  -25.0907  -50.1459 H         1 UNK         0.3000 
    211 H211       -2.0778  -27.0553  -51.0646 H         1 UNK         0.0600 
    212 H212       -0.4653  -25.7944  -52.5336 H         1 UNK         0.0600 
    213 H213       -1.1253  -27.2218  -53.3187 H         1 UNK         0.0600 
    214 H214       -1.7270  -25.6328  -53.7541 H         1 UNK         0.0600 
    215 H215       -4.5684  -26.7440  -50.4738 H         1 UNK         0.3000 
    216 H216       -6.7421  -27.1217  -50.7919 H         1 UNK         0.0600 
    217 H217       -7.3832  -29.1265  -52.0945 H         1 UNK         0.0600 
    218 H218       -5.8335  -29.1290  -52.9260 H         1 UNK         0.0600 
    219 H219       -5.9099  -29.4457  -51.1934 H         1 UNK         0.0600 
    220 H220       -5.9840  -24.8514  -51.8911 H         1 UNK         0.3000 
    221 H221       -6.3912  -23.1587  -53.1957 H         1 UNK         0.0600 
    222 H222       -8.8160  -24.6799  -54.2761 H         1 UNK         0.0600 
    223 H223       -8.7859  -23.7491  -52.7782 H         1 UNK         0.0600 
    224 H224       -8.5636  -22.9419  -54.3203 H         1 UNK         0.0600 
    225 H225       -4.9855  -25.7646  -54.5065 H         1 UNK         0.3000 
    226 H226       -5.2664  -25.1994  -57.3332 H         1 UNK         0.0600 
    227 H227       -4.7398  -27.4847  -56.3877 H         1 UNK         0.0600 
    228 H228       -3.6153  -26.9543  -57.6306 H         1 UNK         0.0600 
    229 H229       -3.1367  -26.8942  -55.9435 H         1 UNK         0.0600 
    230 H230       -3.0149  -24.1542  -54.7767 H         1 UNK         0.3000 
    231 H231       -1.1694  -22.8867  -56.7153 H         1 UNK         0.0600 
    232 H232        0.0929  -22.2338  -54.6930 H         1 UNK         0.0600 
    233 H233       -0.2143  -23.9608  -54.6917 H         1 UNK         0.0600 
    234 H234       -1.1574  -22.8927  -53.6518 H         1 UNK         0.0600 
    235 H235       -3.8885  -22.1148  -54.6714 H         1 UNK         0.3000 
    236 H236       -5.1385  -20.3185  -54.2636 H         1 UNK         0.0600 
    237 H237       -5.5251  -20.6033  -56.7174 H         1 UNK         0.0600 
    238 H238       -5.7121  -18.9289  -56.2245 H         1 UNK         0.0600 
    239 H239       -4.2484  -19.4362  -57.0593 H         1 UNK         0.0600 
    240 H240       -2.4930  -20.1303  -53.2388 H         1 UNK         0.3000 
    241 H241       -1.1798  -18.8237  -52.0681 H         1 UNK         0.0600 
    242 H242        0.3039  -17.7538  -55.4961 H         1 UNK         0.3800 
    243 H243       -0.9824  -18.9114  -55.2704 H         1 UNK         0.3800 
    244 H244       -1.7349  -16.5188  -51.3832 H         1 UNK         0.0800 
    245 H245       -2.9555  -16.4039  -52.6114 H         1 UNK         0.0800 
    246 H246       -1.6561  -17.9320  -49.4866 H         1 UNK         0.0800 
    247 H247       -2.5316  -19.4391  -49.5225 H         1 UNK         0.0800 
@<TRIPOS>BOND
     1    1    2 1    
     2    1  127 1    
     3    1  128 1    
     4    1  129 1    
     5    2    3 2    
     6    2    4 am   BACKBONE|DICT|INTERRES
     7    4    5 1    
     8    4  130 1    
     9    5    6 1    
    10    5   65 1    
    11    5  131 1    
    12    6    7 1    
    13    6  132 1    
    14    6  133 1    
    15    7    8 1    
    16    8    9 1    
    17    8  134 1    
    18    8  135 1    
    19    9   10 ar   
    20    9   14 ar   
    21   10   11 ar   
    22   10  136 1    
    23   11   12 ar   
    24   11  126 1    
    25   12   13 ar   
    26   12  137 1    
    27   13   14 ar   
    28   13   15 1    
    29   14  138 1    
    30   15   16 1    
    31   15  139 1    
    32   15  140 1    
    33   16   17 1    
    34   17   18 1    
    35   17  141 1    
    36   17  142 1    
    37   18   19 1    
    38   18   67 1    
    39   18  143 1    
    40   19   20 am   BACKBONE|DICT|INTERRES
    41   19  144 1    
    42   20   21 2    
    43   20   22 1    
    44   22   23 1    
    45   22   24 1    
    46   22  145 1    
    47   23  146 1    
    48   23  147 1    
    49   23  148 1    
    50   24   25 am   BACKBONE|DICT|INTERRES
    51   24  149 1    
    52   25   26 2    
    53   25   27 1    
    54   27   28 1    
    55   27   29 1    
    56   27  150 1    
    57   28  151 1    
    58   28  152 1    
    59   28  153 1    
    60   29   30 am   BACKBONE|DICT|INTERRES
    61   29  154 1    
    62   30   31 2    
    63   30   32 1    
    64   32   33 1    
    65   32   34 1    
    66   32  155 1    
    67   33  156 1    
    68   33  157 1    
    69   33  158 1    
    70   34   35 am   BACKBONE|DICT|INTERRES
    71   34  159 1    
    72   35   36 2    
    73   35   37 1    
    74   37   38 1    
    75   37   39 1    
    76   37  160 1    
    77   38  161 1    
    78   38  162 1    
    79   38  163 1    
    80   39   40 am   BACKBONE|DICT|INTERRES
    81   39  164 1    
    82   40   41 2    
    83   40   42 1    
    84   42   43 1    
    85   42   44 1    
    86   42  165 1    
    87   43  166 1    
    88   43  167 1    
    89   43  168 1    
    90   44   45 am   BACKBONE|DICT|INTERRES
    91   44  169 1    
    92   45   46 2    
    93   45   47 1    
    94   47   48 1    
    95   47   49 1    
    96   47  170 1    
    97   48  171 1    
    98   48  172 1    
    99   48  173 1    
   100   49   50 am   BACKBONE|DICT|INTERRES
   101   49  174 1    
   102   50   51 2    
   103   50   52 1    
   104   52   53 1    
   105   52   54 1    
   106   52  175 1    
   107   53  176 1    
   108   53  177 1    
   109   53  178 1    
   110   54   55 am   BACKBONE|DICT|INTERRES
   111   54  179 1    
   112   55   56 2    
   113   55   57 1    
   114   57   58 1    
   115   57   59 1    
   116   57  180 1    
   117   58  181 1    
   118   58  182 1    
   119   58  183 1    
   120   59   60 am   BACKBONE|DICT|INTERRES
   121   59  184 1    
   122   60   61 2    
   123   60   62 1    
   124   62   63 1    
   125   62   64 1    
   126   62  185 1    
   127   63  186 1    
   128   63  187 1    
   129   63  188 1    
   130   64   65 am   BACKBONE|DICT|INTERRES
   131   64  189 1    
   132   65   66 2    
   133   67   68 2    
   134   67   69 am   BACKBONE|DICT|INTERRES
   135   69   70 1    
   136   69  190 1    
   137   70   71 1    
   138   70   72 1    
   139   70  191 1    
   140   71  192 1    
   141   71  193 1    
   142   71  194 1    
   143   72   73 2    
   144   72   74 am   BACKBONE|DICT|INTERRES
   145   74   75 1    
   146   74  195 1    
   147   75   76 1    
   148   75   77 1    
   149   75  196 1    
   150   76  197 1    
   151   76  198 1    
   152   76  199 1    
   153   77   78 2    
   154   77   79 am   BACKBONE|DICT|INTERRES
   155   79   80 1    
   156   79  200 1    
   157   80   81 1    
   158   80   82 1    
   159   80  201 1    
   160   81  202 1    
   161   81  203 1    
   162   81  204 1    
   163   82   83 2    
   164   82   84 am   BACKBONE|DICT|INTERRES
   165   84   85 1    
   166   84  205 1    
   167   85   86 1    
   168   85   87 1    
   169   85  206 1    
   170   86  207 1    
   171   86  208 1    
   172   86  209 1    
   173   87   88 2    
   174   87   89 am   BACKBONE|DICT|INTERRES
   175   89   90 1    
   176   89  210 1    
   177   90   91 1    
   178   90   92 1    
   179   90  211 1    
   180   91  212 1    
   181   91  213 1    
   182   91  214 1    
   183   92   93 2    
   184   92   94 am   BACKBONE|DICT|INTERRES
   185   94   95 1    
   186   94  215 1    
   187   95   96 1    
   188   95   97 1    
   189   95  216 1    
   190   96  217 1    
   191   96  218 1    
   192   96  219 1    
   193   97   98 2    
   194   97   99 am   BACKBONE|DICT|INTERRES
   195   99  100 1    
   196   99  220 1    
   197  100  101 1    
   198  100  102 1    
   199  100  221 1    
   200  101  222 1    
   201  101  223 1    
   202  101  224 1    
   203  102  103 2    
   204  102  104 am   BACKBONE|DICT|INTERRES
   205  104  105 1    
   206  104  225 1    
   207  105  106 1    
   208  105  107 1    
   209  105  226 1    
   210  106  227 1    
   211  106  228 1    
   212  106  229 1    
   213  107  108 2    
   214  107  109 am   BACKBONE|DICT|INTERRES
   215  109  110 1    
   216  109  230 1    
   217  110  111 1    
   218  110  112 1    
   219  110  231 1    
   220  111  232 1    
   221  111  233 1    
   222  111  234 1    
   223  112  113 2    
   224  112  114 am   BACKBONE|DICT|INTERRES
   225  114  115 1    
   226  114  235 1    
   227  115  116 1    
   228  115  117 1    
   229  115  236 1    
   230  116  237 1    
   231  116  238 1    
   232  116  239 1    
   233  117  118 2    
   234  117  119 am   BACKBONE|DICT|INTERRES
   235  119  120 1    
   236  119  240 1    
   237  120  121 1    
   238  120  124 1    
   239  120  241 1    
   240  121  122 am   BACKBONE|DICT|INTERRES
   241  121  123 2    
   242  122  242 1    
   243  122  243 1    
   244  124  125 1    
   245  124  244 1    
   246  124  245 1    
   247  125  126 1    
   248  126  246 1    
   249  126  247 1    
@<TRIPOS>SUBSTRUCTURE
     1 UNK         1 GROUP             0       ****    0 ROOT    
