@<TRIPOS>MOLECULE
3R540
247   249    1
SMALL
USER_CHARGES


@<TRIPOS>ATOM
      1 CA          5.7304  -11.8868  -48.8022 C.3       0 UNK        -0.1800 
      2 C           5.0278  -12.5430  -49.9825 C.2       0 UNK         0.5000 
      3 O           4.7106  -11.8617  -50.9564 O.2       0 UNK        -0.5000 
      4 N           4.7925  -13.8599  -49.8901 N.am      1 UNK        -0.5000 
      5 CA          4.1172  -14.7048  -50.8853 C.3       1 UNK         0.1400 
      6 C6          4.9800  -14.8462  -52.1729 C.3       23 UNK        -0.0398 
      7 S7          4.4863  -16.1507  -53.3537 S.3       23 UNK        -0.2404 
      8 C8          4.6438  -17.6924  -52.3898 C.3       23 UNK        -0.0205 
      9 C9          3.3546  -18.0626  -51.6651 C.ar      23 UNK        -0.0193 
     10 C10         2.1464  -18.1255  -52.3649 C.ar      23 UNK        -0.1150 
     11 C11         0.9520  -18.4492  -51.7176 C.ar      23 UNK        -0.0193 
     12 C12         0.9832  -18.7491  -50.3490 C.ar      23 UNK        -0.1150 
     13 C13         2.1848  -18.6933  -49.6348 C.ar      23 UNK        -0.0193 
     14 C14         3.3667  -18.3539  -50.2989 C.ar      23 UNK        -0.1150 
     15 C15         2.2072  -18.9555  -48.1372 C.3       23 UNK        -0.0205 
     16 S16         2.5465  -20.6987  -47.7428 S.3       23 UNK        -0.2404 
     17 C17         0.9201  -21.4789  -48.0162 C.3       23 UNK        -0.0398 
     18 CA          0.6083  -22.5523  -46.9456 C.3       11 UNK         0.1400 
     19 N           0.3871  -21.9939  -45.6086 N.am      11 UNK        -0.5000 
     20 C           0.3593  -22.7257  -44.4852 C.2       10 UNK         0.5000 
     21 O           0.6235  -23.9277  -44.4472 O.2       10 UNK        -0.5000 
     22 CA         -0.0864  -22.0132  -43.1945 C.3       10 UNK         0.1400 
     23 CB          1.0910  -21.2869  -42.5271 C.3       10 UNK        -0.1800 
     24 N          -1.1925  -21.0799  -43.4198 N.am      10 UNK        -0.5000 
     25 C          -2.4203  -21.4512  -43.8110 C.2       9 UNK         0.5000 
     26 O          -2.7565  -22.6257  -43.9669 O.2       9 UNK        -0.5000 
     27 CA         -3.4337  -20.3295  -44.1124 C.3       9 UNK         0.1400 
     28 CB         -4.1202  -19.8568  -42.8227 C.3       9 UNK        -0.1800 
     29 N          -2.8434  -19.1820  -44.8037 N.am      9 UNK        -0.5000 
     30 C          -2.2821  -19.2256  -46.0209 C.2       8 UNK         0.5000 
     31 O          -2.2207  -20.2404  -46.7112 O.2       8 UNK        -0.5000 
     32 CA         -1.5974  -17.9390  -46.5160 C.3       8 UNK         0.1400 
     33 CB         -2.6282  -16.9163  -47.0181 C.3       8 UNK        -0.1800 
     34 N          -0.7436  -17.3377  -45.4881 N.am      8 UNK        -0.5000 
     35 C           0.2893  -17.9607  -44.8987 C.2       7 UNK         0.5000 
     36 O           0.6728  -19.0876  -45.2067 O.2       7 UNK        -0.5000 
     37 CA          0.9675  -17.2325  -43.7274 C.3       7 UNK         0.1400 
     38 CB          1.9879  -16.1969  -44.2250 C.3       7 UNK        -0.1800 
     39 N          -0.0171  -16.5953  -42.8534 N.am      7 UNK        -0.5000 
     40 C          -0.8460  -17.2705  -42.0433 C.2       6 UNK         0.5000 
     41 O          -0.8218  -18.4935  -41.9086 O.2       6 UNK        -0.5000 
     42 CA         -1.9055  -16.4451  -41.2896 C.3       6 UNK         0.1400 
     43 CB         -1.3172  -15.8609  -39.9968 C.3       6 UNK        -0.1800 
     44 N          -2.4552  -15.3608  -42.1045 N.am      6 UNK        -0.5000 
     45 C          -3.2048  -15.5400  -43.2020 C.2       5 UNK         0.5000 
     46 O          -3.5680  -16.6436  -43.6056 O.2       5 UNK        -0.5000 
     47 CA         -3.5587  -14.2778  -44.0142 C.3       5 UNK         0.1400 
     48 CB         -4.8801  -13.6714  -43.5204 C.3       5 UNK        -0.1800 
     49 N          -2.5075  -13.2559  -43.9727 N.am      5 UNK        -0.5000 
     50 C          -1.2649  -13.4309  -44.4401 C.2       4 UNK         0.5000 
     51 O          -0.8862  -14.4624  -45.0042 O.2       4 UNK        -0.5000 
     52 CA         -0.2652  -12.2995  -44.1658 C.3       4 UNK         0.1400 
     53 CB          0.0556  -12.2186  -42.6588 C.3       4 UNK        -0.1800 
     54 N           0.9514  -12.5712  -44.9213 N.am      4 UNK        -0.5000 
     55 C           1.9583  -11.7205  -45.1436 C.2       3 UNK         0.5000 
     56 O           1.9703  -10.5551  -44.7453 O.2       3 UNK        -0.5000 
     57 CA          3.1659  -12.2602  -45.9360 C.3       3 UNK         0.1400 
     58 CB          4.2922  -12.6711  -44.9749 C.3       3 UNK        -0.1800 
     59 N           2.8513  -13.3992  -46.8045 N.am      3 UNK        -0.5000 
     60 C           2.1307  -13.3127  -47.9296 C.2       2 UNK         0.5000 
     61 O           1.6190  -12.2670  -48.3348 O.2       2 UNK        -0.5000 
     62 CA          1.9621  -14.6180  -48.7258 C.3       2 UNK         0.1400 
     63 CB          0.7614  -15.4064  -48.1864 C.3       2 UNK        -0.1800 
     64 N           1.7435  -14.3150  -50.1416 N.am      2 UNK        -0.5000 
     65 C           2.6451  -14.2645  -51.1372 C.2       1 UNK         0.5000 
     66 O           2.3183  -13.8565  -52.2514 O.2       1 UNK        -0.5000 
     67 C          -0.5737  -23.4425  -47.3783 C.2       11 UNK         0.5000 
     68 O          -0.3399  -24.5505  -47.8592 O.2       11 UNK        -0.5000 
     69 N          -1.8155  -22.9748  -47.1739 N.am      12 UNK        -0.5000 
     70 CA         -3.0586  -23.6803  -47.5094 C.3       12 UNK         0.1400 
     71 CB         -4.2700  -22.8130  -47.1423 C.3       12 UNK        -0.1800 
     72 C          -3.1850  -25.0601  -46.8463 C.2       12 UNK         0.5000 
     73 O          -3.6584  -25.9953  -47.4891 O.2       12 UNK        -0.5000 
     74 N          -2.7106  -25.1757  -45.5997 N.am      13 UNK        -0.5000 
     75 CA         -2.6612  -26.4220  -44.8342 C.3       13 UNK         0.1400 
     76 CB         -2.1853  -26.1091  -43.4074 C.3       13 UNK        -0.1800 
     77 C          -1.7849  -27.5245  -45.4683 C.2       13 UNK         0.5000 
     78 O          -2.0078  -28.7007  -45.1772 O.2       13 UNK        -0.5000 
     79 N          -0.8194  -27.1381  -46.3138 N.am      14 UNK        -0.5000 
     80 CA          0.0760  -28.0461  -47.0267 C.3       14 UNK         0.1400 
     81 CB          1.5239  -27.5621  -46.8441 C.3       14 UNK        -0.1800 
     82 C          -0.2766  -28.1367  -48.5213 C.2       14 UNK         0.5000 
     83 O          -0.3588  -29.2416  -49.0591 O.2       14 UNK        -0.5000 
     84 N          -0.4467  -26.9799  -49.1741 N.am      15 UNK        -0.5000 
     85 CA         -0.5570  -26.8582  -50.6282 C.3       15 UNK         0.1400 
     86 CB          0.0191  -25.4959  -51.0482 C.3       15 UNK        -0.1800 
     87 C          -1.9895  -27.0037  -51.1672 C.2       15 UNK         0.5000 
     88 O          -2.1452  -27.2408  -52.3660 O.2       15 UNK        -0.5000 
     89 N          -3.0037  -26.8149  -50.3090 N.am      16 UNK        -0.5000 
     90 CA         -4.4475  -26.7794  -50.5914 C.3       16 UNK         0.1400 
     91 CB         -4.9509  -28.1086  -51.1865 C.3       16 UNK        -0.1800 
     92 C          -4.8867  -25.5733  -51.4462 C.2       16 UNK         0.5000 
     93 O          -5.7684  -24.8225  -51.0297 O.2       16 UNK        -0.5000 
     94 N          -4.2475  -25.3823  -52.6075 N.am      17 UNK        -0.5000 
     95 CA         -4.5133  -24.3125  -53.5745 C.3       17 UNK         0.1400 
     96 CB         -3.6676  -24.5577  -54.8325 C.3       17 UNK        -0.1800 
     97 C          -4.2584  -22.8965  -53.0233 C.2       17 UNK         0.5000 
     98 O          -4.9097  -21.9462  -53.4574 O.2       17 UNK        -0.5000 
     99 N          -3.3532  -22.7851  -52.0409 N.am      18 UNK        -0.5000 
    100 CA        -3.0224  -21.5459  -51.3330 C.3       18 UNK         0.1400 
    101 CB        -1.6945  -21.7299  -50.5835 C.3       18 UNK        -0.1800 
    102 C         -4.1437  -21.0103  -50.4123 C.2       18 UNK         0.5000 
    103 O         -4.0003  -19.9248  -49.8509 O.2       18 UNK        -0.5000 
    104 N         -5.2649  -21.7393  -50.2999 N.am      19 UNK        -0.5000 
    105 CA        -6.5044  -21.2570  -49.6862 C.3       19 UNK         0.1400 
    106 CB        -7.4920  -22.4268  -49.5615 C.3       19 UNK        -0.1800 
    107 C         -7.1560  -20.0933  -50.4647 C.2       19 UNK         0.5000 
    108 O         -7.9455  -19.3488  -49.8828 O.2       19 UNK        -0.5000 
    109 N         -6.8107  -19.9366  -51.7520 N.am      20 UNK        -0.5000 
    110 CA        -7.3123  -18.9150  -52.6753 C.3       20 UNK         0.1400 
    111 CB        -7.0733  -19.4044  -54.1153 C.3       20 UNK        -0.1800 
    112 C         -6.7460  -17.4935  -52.4309 C.2       20 UNK         0.5000 
    113 O         -6.4151  -16.7966  -53.3916 O.2       20 UNK        -0.5000 
    114 N         -6.6834  -17.0798  -51.1571 N.am      21 UNK        -0.5000 
    115 CA        -6.3698  -15.7384  -50.6530 C.3       21 UNK         0.1400 
    116 CB        -7.5520  -14.7880  -50.9357 C.3       21 UNK        -0.1800 
    117 C         -5.0215  -15.1729  -51.1502 C.2       21 UNK         0.5000 
    118 O         -4.9933  -14.1549  -51.8454 O.2       21 UNK        -0.5000 
    119 N         -3.9230  -15.8389  -50.7719 N.am      22 UNK        -0.5000 
    120 CA        -2.5422  -15.4188  -51.0870 C.3       22 UNK         0.1400 
    121 C         -2.0741  -14.0968  -50.4048 C.2       22 UNK         0.5000 
    122 N         -2.7772  -13.5665  -49.4116 N.am      22 UNK        -0.7600 
    123 O         -1.0393  -13.5507  -50.7758 O.2       22 UNK        -0.5000 
    124 C124       -1.5111  -16.5347  -50.7915 C.3       23 UNK        -0.0398 
    125 S125       -1.8745  -18.1130  -51.6229 S.3       23 UNK        -0.2404 
    126 C126       -0.3368  -18.4594  -52.5425 C.3       23 UNK        -0.0205 
    127 H127        6.7078  -11.5136  -49.1078 H         1 UNK         0.0600 
    128 H128        5.8742  -12.5830  -47.9758 H         1 UNK         0.0600 
    129 H129        5.1424  -11.0446  -48.4377 H         1 UNK         0.0600 
    130 H130        5.1187  -14.3467  -49.0675 H         1 UNK         0.3000 
    131 H131        4.0693  -15.6918  -50.4317 H         1 UNK         0.0600 
    132 H132        5.0038  -13.9009  -52.7170 H         1 UNK         0.0800 
    133 H133        6.0157  -15.0468  -51.8951 H         1 UNK         0.0800 
    134 H134        5.4809  -17.6070  -51.6952 H         1 UNK         0.0800 
    135 H135        4.8949  -18.5041  -53.0737 H         1 UNK         0.0800 
    136 H136        2.1355  -17.9043  -53.4232 H         1 UNK         0.1150 
    137 H137        0.0720  -19.0078  -49.8307 H         1 UNK         0.1150 
    138 H138        4.2954  -18.3118  -49.7472 H         1 UNK         0.1150 
    139 H139        2.9742  -18.3382  -47.6675 H         1 UNK         0.0800 
    140 H140        1.2652  -18.6466  -47.6902 H         1 UNK         0.0800 
    141 H141        0.9397  -21.9183  -49.0153 H         1 UNK         0.0800 
    142 H142        0.1377  -20.7194  -48.0276 H         1 UNK         0.0800 
    143 H143        1.4783  -23.2100  -46.8820 H         1 UNK         0.0600 
    144 H144        0.2276  -20.9926  -45.5467 H         1 UNK         0.3000 
    145 H145       -0.4400  -22.7801  -42.5021 H         1 UNK         0.0600 
    146 H146        1.5080  -20.5124  -43.1695 H         1 UNK         0.0600 
    147 H147        0.7866  -20.8185  -41.5911 H         1 UNK         0.0600 
    148 H148        1.8958  -21.9853  -42.2949 H         1 UNK         0.0600 
    149 H149       -1.0013  -20.0968  -43.2643 H         1 UNK         0.3000 
    150 H150       -4.2018  -20.7437  -44.7671 H         1 UNK         0.0600 
    151 H151       -4.5914  -20.6915  -42.3022 H         1 UNK         0.0600 
    152 H152       -4.8995  -19.1252  -43.0367 H         1 UNK         0.0600 
    153 H153       -3.4112  -19.3976  -42.1337 H         1 UNK         0.0600 
    154 H154       -2.8893  -18.2893  -44.3198 H         1 UNK         0.3000 
    155 H155       -0.9614  -18.2069  -47.3605 H         1 UNK         0.0600 
    156 H156       -3.1885  -17.3189  -47.8630 H         1 UNK         0.0600 
    157 H157       -3.3505  -16.6557  -46.2463 H         1 UNK         0.0600 
    158 H158       -2.1486  -15.9960  -47.3506 H         1 UNK         0.0600 
    159 H159       -0.9670  -16.3893  -45.2016 H         1 UNK         0.3000 
    160 H160        1.5099  -17.9781  -43.1423 H         1 UNK         0.0600 
    161 H161        2.5018  -15.7186  -43.3911 H         1 UNK         0.0600 
    162 H162        2.7483  -16.6710  -44.8468 H         1 UNK         0.0600 
    163 H163        1.5203  -15.4160  -44.8204 H         1 UNK         0.0600 
    164 H164       -0.1369  -15.5989  -42.9523 H         1 UNK         0.3000 
    165 H165       -2.7232  -17.1174  -41.0210 H         1 UNK         0.0600 
    166 H166       -2.0788  -15.3377  -39.4184 H         1 UNK         0.0600 
    167 H167       -0.9131  -16.6500  -39.3612 H         1 UNK         0.0600 
    168 H168       -0.5087  -15.1579  -40.2018 H         1 UNK         0.0600 
    169 H169       -2.2130  -14.4191  -41.8359 H         1 UNK         0.3000 
    170 H170       -3.6897  -14.5793  -45.0551 H         1 UNK         0.0600 
    171 H171       -5.6856  -14.4059  -43.5616 H         1 UNK         0.0600 
    172 H172       -4.8046  -13.3242  -42.4892 H         1 UNK         0.0600 
    173 H173       -5.1815  -12.8259  -44.1390 H         1 UNK         0.0600 
    174 H174       -2.7456  -12.3839  -43.5222 H         1 UNK         0.3000 
    175 H175       -0.7005  -11.3594  -44.5101 H         1 UNK         0.0600 
    176 H176        0.5019  -13.1445  -42.2935 H         1 UNK         0.0600 
    177 H177        0.7507  -11.4080  -42.4408 H         1 UNK         0.0600 
    178 H178       -0.8419  -12.0300  -42.0690 H         1 UNK         0.0600 
    179 H179        0.9769  -13.4951  -45.3319 H         1 UNK         0.3000 
    180 H180        3.5333  -11.4442  -46.5615 H         1 UNK         0.0600 
    181 H181        3.9887  -13.4958  -44.3286 H         1 UNK         0.0600 
    182 H182        4.5793  -11.8389  -44.3308 H         1 UNK         0.0600 
    183 H183        5.1847  -12.9804  -45.5188 H         1 UNK         0.0600 
    184 H184        3.2356  -14.2900  -46.5257 H         1 UNK         0.3000 
    185 H185        2.8469  -15.2396  -48.5917 H         1 UNK         0.0600 
    186 H186        0.6197  -16.3318  -48.7406 H         1 UNK         0.0600 
    187 H187        0.9091  -15.6794  -47.1424 H         1 UNK         0.0600 
    188 H188       -0.1610  -14.8284  -48.2427 H         1 UNK         0.0600 
    189 H189        0.8139  -13.9604  -50.3474 H         1 UNK         0.3000 
    190 H190       -1.9250  -22.0269  -46.8168 H         1 UNK         0.3000 
    191 H191       -3.0698  -23.8366  -48.5888 H         1 UNK         0.0600 
    192 H192       -4.3777  -22.7054  -46.0643 H         1 UNK         0.0600 
    193 H193       -5.1909  -23.2613  -47.5145 H         1 UNK         0.0600 
    194 H194       -4.1944  -21.8150  -47.5709 H         1 UNK         0.0600 
    195 H195       -2.3882  -24.3368  -45.1285 H         1 UNK         0.3000 
    196 H196       -3.6795  -26.8114  -44.7762 H         1 UNK         0.0600 
    197 H197       -2.1818  -27.0077  -42.7893 H         1 UNK         0.0600 
    198 H198       -2.8393  -25.3836  -42.9229 H         1 UNK         0.0600 
    199 H199       -1.1735  -25.7029  -43.4026 H         1 UNK         0.0600 
    200 H200       -0.7219  -26.1514  -46.5210 H         1 UNK         0.3000 
    201 H201        0.0108  -29.0540  -46.6118 H         1 UNK         0.0600 
    202 H202        1.8088  -27.5689  -45.7919 H         1 UNK         0.0600 
    203 H203        1.6639  -26.5474  -47.2193 H         1 UNK         0.0600 
    204 H204        2.2232  -28.2093  -47.3748 H         1 UNK         0.0600 
    205 H205       -0.3701  -26.1040  -48.6586 H         1 UNK         0.3000 
    206 H206        0.0485  -27.6364  -51.0979 H         1 UNK         0.0600 
    207 H207        1.0537  -25.3877  -50.7221 H         1 UNK         0.0600 
    208 H208        0.0073  -25.3806  -52.1328 H         1 UNK         0.0600 
    209 H209       -0.5519  -24.6699  -50.6244 H         1 UNK         0.0600 
    210 H210       -2.7700  -26.6265  -49.3409 H         1 UNK         0.3000 
    211 H211       -4.9389  -26.6642  -49.6251 H         1 UNK         0.0600 
    212 H212       -4.5431  -28.2998  -52.1791 H         1 UNK         0.0600 
    213 H213       -6.0375  -28.1027  -51.2798 H         1 UNK         0.0600 
    214 H214       -4.6846  -28.9502  -50.5470 H         1 UNK         0.0600 
    215 H215       -3.5109  -26.0438  -52.8409 H         1 UNK         0.3000 
    216 H216       -5.5679  -24.3696  -53.8514 H         1 UNK         0.0600 
    217 H217       -3.8542  -23.7910  -55.5858 H         1 UNK         0.0600 
    218 H218       -3.9041  -25.5210  -55.2849 H         1 UNK         0.0600 
    219 H219       -2.6003  -24.5459  -54.6074 H         1 UNK         0.0600 
    220 H220       -2.8764  -23.6221  -51.7425 H         1 UNK         0.3000 
    221 H221       -2.8676  -20.7767  -52.0907 H         1 UNK         0.0600 
    222 H222       -1.7076  -22.6167  -49.9562 H         1 UNK         0.0600 
    223 H223       -0.8627  -21.8293  -51.2810 H         1 UNK         0.0600 
    224 H224       -1.4781  -20.8741  -49.9435 H         1 UNK         0.0600 
    225 H225       -5.3146  -22.6388  -50.7622 H         1 UNK         0.3000 
    226 H226       -6.2709  -20.8934  -48.6836 H         1 UNK         0.0600 
    227 H227       -7.0712  -23.2445  -48.9772 H         1 UNK         0.0600 
    228 H228       -8.4106  -22.1124  -49.0644 H         1 UNK         0.0600 
    229 H229       -7.7668  -22.8245  -50.5393 H         1 UNK         0.0600 
    230 H230       -6.1397  -20.5857  -52.1447 H         1 UNK         0.3000 
    231 H231       -8.3924  -18.8415  -52.5333 H         1 UNK         0.0600 
    232 H232       -7.5238  -18.7285  -54.8432 H         1 UNK         0.0600 
    233 H233       -7.5126  -20.3891  -54.2766 H         1 UNK         0.0600 
    234 H234       -6.0085  -19.4727  -54.3421 H         1 UNK         0.0600 
    235 H235       -6.9991  -17.7460  -50.4589 H         1 UNK         0.3000 
    236 H236       -6.2821  -15.8316  -49.5695 H         1 UNK         0.0600 
    237 H237       -7.3745  -13.8026  -50.5029 H         1 UNK         0.0600 
    238 H238       -8.4764  -15.1697  -50.5022 H         1 UNK         0.0600 
    239 H239       -7.7157  -14.6518  -52.0053 H         1 UNK         0.0600 
    240 H240       -4.0208  -16.6983  -50.2504 H         1 UNK         0.3000 
    241 H241       -2.5098  -15.2247  -52.1608 H         1 UNK         0.0600 
    242 H242       -3.6307  -13.9948  -49.0955 H         1 UNK         0.3800 
    243 H243       -2.4578  -12.7103  -48.9879 H         1 UNK         0.3800 
    244 H244       -1.4721  -16.7355  -49.7212 H         1 UNK         0.0800 
    245 H245       -0.5106  -16.2065  -51.0789 H         1 UNK         0.0800 
    246 H246       -0.4332  -19.4364  -53.0173 H         1 UNK         0.0800 
    247 H247       -0.2631  -17.7295  -53.3503 H         1 UNK         0.0800 
@<TRIPOS>BOND
     1    1    2 1    
     2    1  127 1    
     3    1  128 1    
     4    1  129 1    
     5    2    3 2    
     6    2    4 am   BACKBONE|DICT|INTERRES
     7    4    5 1    
     8    4  130 1    
     9    5    6 1    
    10    5   65 1    
    11    5  131 1    
    12    6    7 1    
    13    6  132 1    
    14    6  133 1    
    15    7    8 1    
    16    8    9 1    
    17    8  134 1    
    18    8  135 1    
    19    9   10 ar   
    20    9   14 ar   
    21   10   11 ar   
    22   10  136 1    
    23   11   12 ar   
    24   11  126 1    
    25   12   13 ar   
    26   12  137 1    
    27   13   14 ar   
    28   13   15 1    
    29   14  138 1    
    30   15   16 1    
    31   15  139 1    
    32   15  140 1    
    33   16   17 1    
    34   17   18 1    
    35   17  141 1    
    36   17  142 1    
    37   18   19 1    
    38   18   67 1    
    39   18  143 1    
    40   19   20 am   BACKBONE|DICT|INTERRES
    41   19  144 1    
    42   20   21 2    
    43   20   22 1    
    44   22   23 1    
    45   22   24 1    
    46   22  145 1    
    47   23  146 1    
    48   23  147 1    
    49   23  148 1    
    50   24   25 am   BACKBONE|DICT|INTERRES
    51   24  149 1    
    52   25   26 2    
    53   25   27 1    
    54   27   28 1    
    55   27   29 1    
    56   27  150 1    
    57   28  151 1    
    58   28  152 1    
    59   28  153 1    
    60   29   30 am   BACKBONE|DICT|INTERRES
    61   29  154 1    
    62   30   31 2    
    63   30   32 1    
    64   32   33 1    
    65   32   34 1    
    66   32  155 1    
    67   33  156 1    
    68   33  157 1    
    69   33  158 1    
    70   34   35 am   BACKBONE|DICT|INTERRES
    71   34  159 1    
    72   35   36 2    
    73   35   37 1    
    74   37   38 1    
    75   37   39 1    
    76   37  160 1    
    77   38  161 1    
    78   38  162 1    
    79   38  163 1    
    80   39   40 am   BACKBONE|DICT|INTERRES
    81   39  164 1    
    82   40   41 2    
    83   40   42 1    
    84   42   43 1    
    85   42   44 1    
    86   42  165 1    
    87   43  166 1    
    88   43  167 1    
    89   43  168 1    
    90   44   45 am   BACKBONE|DICT|INTERRES
    91   44  169 1    
    92   45   46 2    
    93   45   47 1    
    94   47   48 1    
    95   47   49 1    
    96   47  170 1    
    97   48  171 1    
    98   48  172 1    
    99   48  173 1    
   100   49   50 am   BACKBONE|DICT|INTERRES
   101   49  174 1    
   102   50   51 2    
   103   50   52 1    
   104   52   53 1    
   105   52   54 1    
   106   52  175 1    
   107   53  176 1    
   108   53  177 1    
   109   53  178 1    
   110   54   55 am   BACKBONE|DICT|INTERRES
   111   54  179 1    
   112   55   56 2    
   113   55   57 1    
   114   57   58 1    
   115   57   59 1    
   116   57  180 1    
   117   58  181 1    
   118   58  182 1    
   119   58  183 1    
   120   59   60 am   BACKBONE|DICT|INTERRES
   121   59  184 1    
   122   60   61 2    
   123   60   62 1    
   124   62   63 1    
   125   62   64 1    
   126   62  185 1    
   127   63  186 1    
   128   63  187 1    
   129   63  188 1    
   130   64   65 am   BACKBONE|DICT|INTERRES
   131   64  189 1    
   132   65   66 2    
   133   67   68 2    
   134   67   69 am   BACKBONE|DICT|INTERRES
   135   69   70 1    
   136   69  190 1    
   137   70   71 1    
   138   70   72 1    
   139   70  191 1    
   140   71  192 1    
   141   71  193 1    
   142   71  194 1    
   143   72   73 2    
   144   72   74 am   BACKBONE|DICT|INTERRES
   145   74   75 1    
   146   74  195 1    
   147   75   76 1    
   148   75   77 1    
   149   75  196 1    
   150   76  197 1    
   151   76  198 1    
   152   76  199 1    
   153   77   78 2    
   154   77   79 am   BACKBONE|DICT|INTERRES
   155   79   80 1    
   156   79  200 1    
   157   80   81 1    
   158   80   82 1    
   159   80  201 1    
   160   81  202 1    
   161   81  203 1    
   162   81  204 1    
   163   82   83 2    
   164   82   84 am   BACKBONE|DICT|INTERRES
   165   84   85 1    
   166   84  205 1    
   167   85   86 1    
   168   85   87 1    
   169   85  206 1    
   170   86  207 1    
   171   86  208 1    
   172   86  209 1    
   173   87   88 2    
   174   87   89 am   BACKBONE|DICT|INTERRES
   175   89   90 1    
   176   89  210 1    
   177   90   91 1    
   178   90   92 1    
   179   90  211 1    
   180   91  212 1    
   181   91  213 1    
   182   91  214 1    
   183   92   93 2    
   184   92   94 am   BACKBONE|DICT|INTERRES
   185   94   95 1    
   186   94  215 1    
   187   95   96 1    
   188   95   97 1    
   189   95  216 1    
   190   96  217 1    
   191   96  218 1    
   192   96  219 1    
   193   97   98 2    
   194   97   99 am   BACKBONE|DICT|INTERRES
   195   99  100 1    
   196   99  220 1    
   197  100  101 1    
   198  100  102 1    
   199  100  221 1    
   200  101  222 1    
   201  101  223 1    
   202  101  224 1    
   203  102  103 2    
   204  102  104 am   BACKBONE|DICT|INTERRES
   205  104  105 1    
   206  104  225 1    
   207  105  106 1    
   208  105  107 1    
   209  105  226 1    
   210  106  227 1    
   211  106  228 1    
   212  106  229 1    
   213  107  108 2    
   214  107  109 am   BACKBONE|DICT|INTERRES
   215  109  110 1    
   216  109  230 1    
   217  110  111 1    
   218  110  112 1    
   219  110  231 1    
   220  111  232 1    
   221  111  233 1    
   222  111  234 1    
   223  112  113 2    
   224  112  114 am   BACKBONE|DICT|INTERRES
   225  114  115 1    
   226  114  235 1    
   227  115  116 1    
   228  115  117 1    
   229  115  236 1    
   230  116  237 1    
   231  116  238 1    
   232  116  239 1    
   233  117  118 2    
   234  117  119 am   BACKBONE|DICT|INTERRES
   235  119  120 1    
   236  119  240 1    
   237  120  121 1    
   238  120  124 1    
   239  120  241 1    
   240  121  122 am   BACKBONE|DICT|INTERRES
   241  121  123 2    
   242  122  242 1    
   243  122  243 1    
   244  124  125 1    
   245  124  244 1    
   246  124  245 1    
   247  125  126 1    
   248  126  246 1    
   249  126  247 1    
@<TRIPOS>SUBSTRUCTURE
     1 UNK         1 GROUP             0       ****    0 ROOT    
