@<TRIPOS>MOLECULE
3R540
247   249    1
SMALL
USER_CHARGES


@<TRIPOS>ATOM
      1 CA         -0.8709  -14.7845  -46.8750 C.3       0 UNK        -0.1800 
      2 C          -1.2348  -14.0089  -45.6180 C.2       0 UNK         0.5000 
      3 O          -0.5272  -14.0940  -44.6154 O.2       0 UNK        -0.5000 
      4 N          -2.3326  -13.2444  -45.6753 N.am      1 UNK        -0.5000 
      5 CA         -2.8616  -12.4195  -44.5795 C.3       1 UNK         0.1400 
      6 C6         -4.2865  -11.8909  -44.8883 C.3       23 UNK        -0.0398 
      7 S7         -4.4240  -10.9965  -46.4817 S.3       23 UNK        -0.2404 
      8 C8         -5.6772  -11.9720  -47.3745 C.3       23 UNK        -0.0205 
      9 C9         -5.1497  -13.3284  -47.8197 C.ar      23 UNK        -0.0193 
     10 C10        -4.4230  -13.4491  -49.0083 C.ar      23 UNK        -0.1150 
     11 C11        -3.9557  -14.6981  -49.4310 C.ar      23 UNK        -0.0193 
     12 C12        -4.2090  -15.8283  -48.6477 C.ar      23 UNK        -0.1150 
     13 C13        -4.9369  -15.7193  -47.4609 C.ar      23 UNK        -0.0193 
     14 C14        -5.4099  -14.4692  -47.0562 C.ar      23 UNK        -0.1150 
     15 C15        -5.2332  -16.9480  -46.6191 C.3       23 UNK        -0.0205 
     16 S16        -4.0510  -17.1197  -45.2495 S.3       23 UNK        -0.2404 
     17 C17        -2.6441  -17.9384  -46.0866 C.3       23 UNK        -0.0398 
     18 CA         -2.7447  -19.4679  -46.3736 C.3       11 UNK         0.1400 
     19 N          -1.4192  -20.0903  -46.4416 N.am      11 UNK        -0.5000 
     20 C          -1.1538  -21.3372  -46.8563 C.2       10 UNK         0.5000 
     21 O          -1.9993  -22.1020  -47.3164 O.2       10 UNK        -0.5000 
     22 CA          0.2907  -21.8383  -46.6747 C.3       10 UNK         0.1400 
     23 CB          1.1825  -21.3828  -47.8384 C.3       10 UNK        -0.1800 
     24 N           0.8720  -21.4177  -45.3976 N.am      10 UNK        -0.5000 
     25 C           0.4068  -21.8033  -44.1996 C.2       9 UNK         0.5000 
     26 O          -0.5172  -22.6037  -44.0547 O.2       9 UNK        -0.5000 
     27 CA          1.0404  -21.1511  -42.9573 C.3       9 UNK         0.1400 
     28 CB          2.3620  -21.8414  -42.5901 C.3       9 UNK        -0.1800 
     29 N           1.2598  -19.7138  -43.1258 N.am      9 UNK        -0.5000 
     30 C           0.2829  -18.8091  -43.2885 C.2       8 UNK         0.5000 
     31 O          -0.9154  -19.0875  -43.2525 O.2       8 UNK        -0.5000 
     32 CA          0.7156  -17.3652  -43.6073 C.3       8 UNK         0.1400 
     33 CB          1.1202  -16.6128  -42.3322 C.3       8 UNK        -0.1800 
     34 N           1.8085  -17.3167  -44.5785 N.am      8 UNK        -0.5000 
     35 C           1.7299  -17.7639  -45.8388 C.2       7 UNK         0.5000 
     36 O           0.6992  -18.2078  -46.3410 O.2       7 UNK        -0.5000 
     37 CA          3.0301  -17.7713  -46.6589 C.3       7 UNK         0.1400 
     38 CB          3.2884  -16.4053  -47.3076 C.3       7 UNK        -0.1800 
     39 N           4.1822  -18.1550  -45.8453 N.am      7 UNK        -0.5000 
     40 C           4.4125  -19.3983  -45.4033 C.2       6 UNK         0.5000 
     41 O           3.6956  -20.3621  -45.6736 O.2       6 UNK        -0.5000 
     42 CA          5.6265  -19.5838  -44.4737 C.3       6 UNK         0.1400 
     43 CB          6.9181  -19.7309  -45.2916 C.3       6 UNK        -0.1800 
     44 N           5.7790  -18.4836  -43.5185 N.am      6 UNK        -0.5000 
     45 C           4.9243  -18.2353  -42.5164 C.2       5 UNK         0.5000 
     46 O           3.9361  -18.9285  -42.2783 O.2       5 UNK        -0.5000 
     47 CA          5.1900  -16.9800  -41.6619 C.3       5 UNK         0.1400 
     48 CB          6.1623  -17.3066  -40.5186 C.3       5 UNK        -0.1800 
     49 N           5.6939  -15.8222  -42.4103 N.am      5 UNK        -0.5000 
     50 C           5.0930  -15.2611  -43.4685 C.2       4 UNK         0.5000 
     51 O           4.0839  -15.7248  -44.0016 O.2       4 UNK        -0.5000 
     52 CA          5.7654  -14.0020  -44.0511 C.3       4 UNK         0.1400 
     53 CB          7.0210  -14.3931  -44.8476 C.3       4 UNK        -0.1800 
     54 N           4.8813  -13.2358  -44.9338 N.am      4 UNK        -0.5000 
     55 C           3.7484  -12.6221  -44.5663 C.2       3 UNK         0.5000 
     56 O           3.3409  -12.5689  -43.4021 O.2       3 UNK        -0.5000 
     57 CA          2.9562  -11.9401  -45.6963 C.3       3 UNK         0.1400 
     58 CB          2.5585  -12.9323  -46.8031 C.3       3 UNK        -0.1800 
     59 N           1.7424  -11.3314  -45.1609 N.am      3 UNK        -0.5000 
     60 C           1.2368  -10.1510  -45.5313 C.2       2 UNK         0.5000 
     61 O           1.7424   -9.4279  -46.3919 O.2       2 UNK        -0.5000 
     62 CA         -0.0803   -9.7489  -44.8500 C.3       2 UNK         0.1400 
     63 CB         -0.6562   -8.4148  -45.3614 C.3       2 UNK        -0.1800 
     64 N          -1.0574  -10.8127  -45.0602 N.am      2 UNK        -0.5000 
     65 C          -1.9253  -11.2658  -44.1491 C.2       1 UNK         0.5000 
     66 O          -2.0108  -10.8148  -43.0056 O.2       1 UNK        -0.5000 
     67 C          -3.6811  -20.2480  -45.4237 C.2       11 UNK         0.5000 
     68 O          -4.7977  -20.5802  -45.8221 O.2       11 UNK        -0.5000 
     69 N          -3.2003  -20.5701  -44.2139 N.am      12 UNK        -0.5000 
     70 CA         -3.9289  -21.3509  -43.2091 C.3       12 UNK         0.1400 
     71 CB         -3.1255  -21.3788  -41.9004 C.3       12 UNK        -0.1800 
     72 C          -4.2683  -22.7806  -43.6769 C.2       12 UNK         0.5000 
     73 O          -5.3489  -23.2832  -43.3672 O.2       12 UNK        -0.5000 
     74 N          -3.3593  -23.3885  -44.4494 N.am      13 UNK        -0.5000 
     75 CA         -3.5423  -24.6811  -45.1119 C.3       13 UNK         0.1400 
     76 CB         -2.1547  -25.2761  -45.4032 C.3       13 UNK        -0.1800 
     77 C          -4.3698  -24.5979  -46.4132 C.2       13 UNK         0.5000 
     78 O          -4.6351  -25.6392  -47.0163 O.2       13 UNK        -0.5000 
     79 N          -4.7127  -23.3783  -46.8597 N.am      14 UNK        -0.5000 
     80 CA         -5.3857  -23.0325  -48.1194 C.3       14 UNK         0.1400 
     81 CB         -6.8600  -23.4832  -48.0776 C.3       14 UNK        -0.1800 
     82 C          -4.6425  -23.5532  -49.3697 C.2       14 UNK         0.5000 
     83 O          -5.2803  -23.9032  -50.3635 O.2       14 UNK        -0.5000 
     84 N          -3.3085  -23.6618  -49.2671 N.am      15 UNK        -0.5000 
     85 CA         -2.3799  -24.3071  -50.2028 C.3       15 UNK         0.1400 
     86 CB         -2.1778  -23.4235  -51.4481 C.3       15 UNK        -0.1800 
     87 C          -2.7748  -25.7577  -50.5647 C.2       15 UNK         0.5000 
     88 O          -2.5267  -26.1956  -51.6877 O.2       15 UNK        -0.5000 
     89 N          -3.4354  -26.4608  -49.6295 N.am      16 UNK        -0.5000 
     90 CA         -4.0534  -27.7830  -49.7933 C.3       16 UNK         0.1400 
     91 CB         -2.9751  -28.8708  -49.9790 C.3       16 UNK        -0.1800 
     92 C          -5.1403  -27.8182  -50.8946 C.2       16 UNK         0.5000 
     93 O          -5.3654  -28.8665  -51.5013 O.2       16 UNK        -0.5000 
     94 N          -5.7812  -26.6634  -51.1372 N.am      17 UNK        -0.5000 
     95 CA         -6.7800  -26.3789  -52.1723 C.3       17 UNK         0.1400 
     96 CB         -8.0411  -27.2496  -51.9897 C.3       17 UNK        -0.1800 
     97 C          -6.2237  -26.4203  -53.6132 C.2       17 UNK         0.5000 
     98 O          -7.0071  -26.5056  -54.5613 O.2       17 UNK        -0.5000 
     99 N          -4.8945  -26.3427  -53.7691 N.am      18 UNK        -0.5000 
    100 CA        -4.2191  -26.2611  -55.0625 C.3       18 UNK         0.1400 
    101 CB        -2.7594  -26.7132  -54.8919 C.3       18 UNK        -0.1800 
    102 C         -4.2694  -24.8347  -55.6403 C.2       18 UNK         0.5000 
    103 O         -4.5058  -23.8670  -54.9120 O.2       18 UNK        -0.5000 
    104 N         -3.9648  -24.7242  -56.9403 N.am      19 UNK        -0.5000 
    105 CA        -3.8675  -23.4659  -57.6919 C.3       19 UNK         0.1400 
    106 CB        -3.7372  -23.7966  -59.1873 C.3       19 UNK        -0.1800 
    107 C         -2.7177  -22.5375  -57.2385 C.2       19 UNK         0.5000 
    108 O         -2.6742  -21.3797  -57.6543 O.2       19 UNK        -0.5000 
    109 N         -1.8184  -23.0522  -56.3885 N.am      20 UNK        -0.5000 
    110 CA        -0.7250  -22.3266  -55.7423 C.3       20 UNK         0.1400 
    111 CB         0.2244  -23.3514  -55.1013 C.3       20 UNK        -0.1800 
    112 C         -1.1842  -21.2888  -54.6950 C.2       20 UNK         0.5000 
    113 O         -0.3628  -20.4708  -54.2765 O.2       20 UNK        -0.5000 
    114 N         -2.4619  -21.3320  -54.2826 N.am      21 UNK        -0.5000 
    115 CA        -3.0974  -20.3921  -53.3553 C.3       21 UNK         0.1400 
    116 CB        -4.5795  -20.7667  -53.1907 C.3       21 UNK        -0.1800 
    117 C         -2.9408  -18.9261  -53.8081 C.2       21 UNK         0.5000 
    118 O         -3.4733  -18.5479  -54.8537 O.2       21 UNK        -0.5000 
    119 N         -2.1792  -18.1548  -53.0222 N.am      22 UNK        -0.5000 
    120 CA        -1.7660  -16.7648  -53.2904 C.3       22 UNK         0.1400 
    121 C         -0.7589  -16.6015  -54.4720 C.2       22 UNK         0.5000 
    122 N         -0.1116  -17.6573  -54.9507 N.am      22 UNK        -0.7600 
    123 O         -0.5291  -15.4919  -54.9460 O.2       22 UNK        -0.5000 
    124 C124       -2.9491  -15.7564  -53.3778 C.3       23 UNK        -0.0398 
    125 S125       -4.0853  -15.8271  -51.9517 S.3       23 UNK        -0.2404 
    126 C126       -3.1738  -14.8325  -50.7287 C.3       23 UNK        -0.0205 
    127 H127       -0.1160  -14.2474  -47.4475 H         1 UNK         0.0600 
    128 H128       -1.7393  -14.9356  -47.5142 H         1 UNK         0.0600 
    129 H129       -0.4707  -15.7626  -46.6128 H         1 UNK         0.0600 
    130 H130       -2.8757  -13.2179  -46.5276 H         1 UNK         0.3000 
    131 H131       -2.9444  -13.0756  -43.7104 H         1 UNK         0.0600 
    132 H132       -4.9856  -12.7256  -44.8770 H         1 UNK         0.0800 
    133 H133       -4.6332  -11.2285  -44.0928 H         1 UNK         0.0800 
    134 H134       -6.5631  -12.0896  -46.7484 H         1 UNK         0.0800 
    135 H135       -6.0013  -11.4062  -48.2492 H         1 UNK         0.0800 
    136 H136       -4.2285  -12.5695  -49.6061 H         1 UNK         0.1150 
    137 H137       -3.8487  -16.7943  -48.9725 H         1 UNK         0.1150 
    138 H138       -5.9838  -14.3897  -46.1438 H         1 UNK         0.1150 
    139 H139       -6.2390  -16.8693  -46.2038 H         1 UNK         0.0800 
    140 H140       -5.2311  -17.8505  -47.2322 H         1 UNK         0.0800 
    141 H141       -1.7900  -17.7516  -45.4384 H         1 UNK         0.0800 
    142 H142       -2.4153  -17.4075  -47.0103 H         1 UNK         0.0800 
    143 H143       -3.1828  -19.5696  -47.3689 H         1 UNK         0.0600 
    144 H144       -0.6368  -19.5099  -46.1502 H         1 UNK         0.3000 
    145 H145        0.2640  -22.9298  -46.6813 H         1 UNK         0.0600 
    146 H146        2.1955  -21.7721  -47.7349 H         1 UNK         0.0600 
    147 H147        0.7910  -21.7418  -48.7911 H         1 UNK         0.0600 
    148 H148        1.2463  -20.2970  -47.9004 H         1 UNK         0.0600 
    149 H149        1.6720  -20.7959  -45.4387 H         1 UNK         0.3000 
    150 H150        0.3475  -21.2855  -42.1243 H         1 UNK         0.0600 
    151 H151        2.2167  -22.9130  -42.4480 H         1 UNK         0.0600 
    152 H152        2.7688  -21.4426  -41.6608 H         1 UNK         0.0600 
    153 H153        3.1156  -21.7117  -43.3670 H         1 UNK         0.0600 
    154 H154        2.2242  -19.3958  -43.1033 H         1 UNK         0.3000 
    155 H155       -0.1381  -16.8447  -44.0441 H         1 UNK         0.0600 
    156 H156        0.2894  -16.5703  -41.6271 H         1 UNK         0.0600 
    157 H157        1.4102  -15.5858  -42.5573 H         1 UNK         0.0600 
    158 H158        1.9554  -17.0952  -41.8262 H         1 UNK         0.0600 
    159 H159        2.6822  -16.8973  -44.2683 H         1 UNK         0.3000 
    160 H160        2.9125  -18.5049  -47.4591 H         1 UNK         0.0600 
    161 H161        3.5056  -15.6448  -46.5596 H         1 UNK         0.0600 
    162 H162        2.4217  -16.0709  -47.8795 H         1 UNK         0.0600 
    163 H163        4.1349  -16.4494  -47.9928 H         1 UNK         0.0600 
    164 H164        4.7674  -17.4038  -45.5093 H         1 UNK         0.3000 
    165 H165        5.4740  -20.5063  -43.9093 H         1 UNK         0.0600 
    166 H166        7.7711  -19.9418  -44.6464 H         1 UNK         0.0600 
    167 H167        6.8378  -20.5548  -46.0020 H         1 UNK         0.0600 
    168 H168        7.1420  -18.8274  -45.8601 H         1 UNK         0.0600 
    169 H169        6.5650  -17.8641  -43.6488 H         1 UNK         0.3000 
    170 H170        4.2381  -16.6838  -41.2178 H         1 UNK         0.0600 
    171 H171        5.8034  -18.1519  -39.9296 H         1 UNK         0.0600 
    172 H172        7.1532  -17.5651  -40.8940 H         1 UNK         0.0600 
    173 H173        6.2701  -16.4619  -39.8380 H         1 UNK         0.0600 
    174 H174        6.5330  -15.3929  -42.0477 H         1 UNK         0.3000 
    175 H175        6.0572  -13.3556  -43.2210 H         1 UNK         0.0600 
    176 H176        6.7764  -15.0402  -45.6912 H         1 UNK         0.0600 
    177 H177        7.5309  -13.5121  -45.2379 H         1 UNK         0.0600 
    178 H178        7.7380  -14.9267  -44.2223 H         1 UNK         0.0600 
    179 H179        5.1309  -13.2367  -45.9113 H         1 UNK         0.3000 
    180 H180        3.6031  -11.1697  -46.1212 H         1 UNK         0.0600 
    181 H181        1.9347  -12.4544  -47.5586 H         1 UNK         0.0600 
    182 H182        2.0009  -13.7748  -46.3930 H         1 UNK         0.0600 
    183 H183        3.4341  -13.3279  -47.3179 H         1 UNK         0.0600 
    184 H184        1.2958  -11.8534  -44.4174 H         1 UNK         0.3000 
    185 H185        0.1401   -9.6429  -43.7857 H         1 UNK         0.0600 
    186 H186       -0.8919   -8.4605  -46.4253 H         1 UNK         0.0600 
    187 H187       -1.5699   -8.1515  -44.8283 H         1 UNK         0.0600 
    188 H188        0.0526   -7.5993  -45.2132 H         1 UNK         0.0600 
    189 H189       -1.0384  -11.2598  -45.9660 H         1 UNK         0.3000 
    190 H190       -2.2879  -20.2134  -43.9404 H         1 UNK         0.3000 
    191 H191       -4.8723  -20.8360  -43.0161 H         1 UNK         0.0600 
    192 H192       -2.1627  -21.8734  -42.0286 H         1 UNK         0.0600 
    193 H193       -2.9365  -20.3702  -41.5322 H         1 UNK         0.0600 
    194 H194       -3.6683  -21.9143  -41.1206 H         1 UNK         0.0600 
    195 H195       -2.4661  -22.9284  -44.5949 H         1 UNK         0.3000 
    196 H196       -4.0679  -25.3555  -44.4330 H         1 UNK         0.0600 
    197 H197       -1.5692  -25.3766  -44.4890 H         1 UNK         0.0600 
    198 H198       -1.5882  -24.6518  -46.0949 H         1 UNK         0.0600 
    199 H199       -2.2356  -26.2692  -45.8469 H         1 UNK         0.0600 
    200 H200       -4.4359  -22.5795  -46.3011 H         1 UNK         0.3000 
    201 H201       -5.3699  -21.9443  -48.1890 H         1 UNK         0.0600 
    202 H202       -7.4074  -23.1175  -48.9471 H         1 UNK         0.0600 
    203 H203       -7.3641  -23.0956  -47.1923 H         1 UNK         0.0600 
    204 H204       -6.9505  -24.5699  -48.0669 H         1 UNK         0.0600 
    205 H205       -2.8788  -23.2745  -48.4285 H         1 UNK         0.3000 
    206 H206       -1.4228  -24.3737  -49.6839 H         1 UNK         0.0600 
    207 H207       -1.8882  -22.4119  -51.1661 H         1 UNK         0.0600 
    208 H208       -3.0849  -23.3651  -52.0497 H         1 UNK         0.0600 
    209 H209       -1.3875  -23.8181  -52.0871 H         1 UNK         0.0600 
    210 H210       -3.6423  -26.0070  -48.7449 H         1 UNK         0.3000 
    211 H211       -4.5713  -27.9898  -48.8557 H         1 UNK         0.0600 
    212 H212       -2.2258  -28.8218  -49.1889 H         1 UNK         0.0600 
    213 H213       -3.4152  -29.8680  -49.9449 H         1 UNK         0.0600 
    214 H214       -2.4614  -28.7739  -50.9359 H         1 UNK         0.0600 
    215 H215       -5.4895  -25.8409  -50.6169 H         1 UNK         0.3000 
    216 H216       -7.0789  -25.3428  -52.0078 H         1 UNK         0.0600 
    217 H217       -8.8476  -26.9102  -52.6405 H         1 UNK         0.0600 
    218 H218       -7.8513  -28.2962  -52.2283 H         1 UNK         0.0600 
    219 H219       -8.4108  -27.1988  -50.9656 H         1 UNK         0.0600 
    220 H220       -4.3062  -26.2483  -52.9499 H         1 UNK         0.3000 
    221 H221       -4.7125  -26.9395  -55.7618 H         1 UNK         0.0600 
    222 H222       -2.1848  -26.0044  -54.2945 H         1 UNK         0.0600 
    223 H223       -2.7007  -27.6862  -54.4033 H         1 UNK         0.0600 
    224 H224       -2.2598  -26.8058  -55.8567 H         1 UNK         0.0600 
    225 H225       -3.7665  -25.5651  -57.4638 H         1 UNK         0.3000 
    226 H226       -4.7988  -22.9157  -57.5431 H         1 UNK         0.0600 
    227 H227       -4.5864  -24.3836  -59.5378 H         1 UNK         0.0600 
    228 H228       -3.7042  -22.8874  -59.7892 H         1 UNK         0.0600 
    229 H229       -2.8277  -24.3613  -59.3960 H         1 UNK         0.0600 
    230 H230       -1.9375  -24.0151  -56.1136 H         1 UNK         0.3000 
    231 H231       -0.1755  -21.7842  -56.5143 H         1 UNK         0.0600 
    232 H232        1.0730  -22.8576  -54.6260 H         1 UNK         0.0600 
    233 H233        0.6269  -24.0371  -55.8472 H         1 UNK         0.0600 
    234 H234       -0.2802  -23.9444  -54.3377 H         1 UNK         0.0600 
    235 H235       -3.0644  -22.0457  -54.6715 H         1 UNK         0.3000 
    236 H236       -2.6132  -20.5102  -52.3849 H         1 UNK         0.0600 
    237 H237       -5.0819  -20.0807  -52.5077 H         1 UNK         0.0600 
    238 H238       -5.1103  -20.7316  -54.1430 H         1 UNK         0.0600 
    239 H239       -4.6947  -21.7713  -52.7837 H         1 UNK         0.0600 
    240 H240       -1.7627  -18.5715  -52.2025 H         1 UNK         0.3000 
    241 H241       -1.1806  -16.4806  -52.4160 H         1 UNK         0.0600 
    242 H242        0.5448  -17.5299  -55.7041 H         1 UNK         0.3800 
    243 H243       -0.2686  -18.5903  -54.5788 H         1 UNK         0.3800 
    244 H244       -2.5777  -14.7339  -53.4641 H         1 UNK         0.0800 
    245 H245       -3.5319  -15.9361  -54.2820 H         1 UNK         0.0800 
    246 H246       -2.2122  -15.3016  -50.5170 H         1 UNK         0.0800 
    247 H247       -2.9573  -13.8500  -51.1512 H         1 UNK         0.0800 
@<TRIPOS>BOND
     1    1    2 1    
     2    1  127 1    
     3    1  128 1    
     4    1  129 1    
     5    2    3 2    
     6    2    4 am   BACKBONE|DICT|INTERRES
     7    4    5 1    
     8    4  130 1    
     9    5    6 1    
    10    5   65 1    
    11    5  131 1    
    12    6    7 1    
    13    6  132 1    
    14    6  133 1    
    15    7    8 1    
    16    8    9 1    
    17    8  134 1    
    18    8  135 1    
    19    9   10 ar   
    20    9   14 ar   
    21   10   11 ar   
    22   10  136 1    
    23   11   12 ar   
    24   11  126 1    
    25   12   13 ar   
    26   12  137 1    
    27   13   14 ar   
    28   13   15 1    
    29   14  138 1    
    30   15   16 1    
    31   15  139 1    
    32   15  140 1    
    33   16   17 1    
    34   17   18 1    
    35   17  141 1    
    36   17  142 1    
    37   18   19 1    
    38   18   67 1    
    39   18  143 1    
    40   19   20 am   BACKBONE|DICT|INTERRES
    41   19  144 1    
    42   20   21 2    
    43   20   22 1    
    44   22   23 1    
    45   22   24 1    
    46   22  145 1    
    47   23  146 1    
    48   23  147 1    
    49   23  148 1    
    50   24   25 am   BACKBONE|DICT|INTERRES
    51   24  149 1    
    52   25   26 2    
    53   25   27 1    
    54   27   28 1    
    55   27   29 1    
    56   27  150 1    
    57   28  151 1    
    58   28  152 1    
    59   28  153 1    
    60   29   30 am   BACKBONE|DICT|INTERRES
    61   29  154 1    
    62   30   31 2    
    63   30   32 1    
    64   32   33 1    
    65   32   34 1    
    66   32  155 1    
    67   33  156 1    
    68   33  157 1    
    69   33  158 1    
    70   34   35 am   BACKBONE|DICT|INTERRES
    71   34  159 1    
    72   35   36 2    
    73   35   37 1    
    74   37   38 1    
    75   37   39 1    
    76   37  160 1    
    77   38  161 1    
    78   38  162 1    
    79   38  163 1    
    80   39   40 am   BACKBONE|DICT|INTERRES
    81   39  164 1    
    82   40   41 2    
    83   40   42 1    
    84   42   43 1    
    85   42   44 1    
    86   42  165 1    
    87   43  166 1    
    88   43  167 1    
    89   43  168 1    
    90   44   45 am   BACKBONE|DICT|INTERRES
    91   44  169 1    
    92   45   46 2    
    93   45   47 1    
    94   47   48 1    
    95   47   49 1    
    96   47  170 1    
    97   48  171 1    
    98   48  172 1    
    99   48  173 1    
   100   49   50 am   BACKBONE|DICT|INTERRES
   101   49  174 1    
   102   50   51 2    
   103   50   52 1    
   104   52   53 1    
   105   52   54 1    
   106   52  175 1    
   107   53  176 1    
   108   53  177 1    
   109   53  178 1    
   110   54   55 am   BACKBONE|DICT|INTERRES
   111   54  179 1    
   112   55   56 2    
   113   55   57 1    
   114   57   58 1    
   115   57   59 1    
   116   57  180 1    
   117   58  181 1    
   118   58  182 1    
   119   58  183 1    
   120   59   60 am   BACKBONE|DICT|INTERRES
   121   59  184 1    
   122   60   61 2    
   123   60   62 1    
   124   62   63 1    
   125   62   64 1    
   126   62  185 1    
   127   63  186 1    
   128   63  187 1    
   129   63  188 1    
   130   64   65 am   BACKBONE|DICT|INTERRES
   131   64  189 1    
   132   65   66 2    
   133   67   68 2    
   134   67   69 am   BACKBONE|DICT|INTERRES
   135   69   70 1    
   136   69  190 1    
   137   70   71 1    
   138   70   72 1    
   139   70  191 1    
   140   71  192 1    
   141   71  193 1    
   142   71  194 1    
   143   72   73 2    
   144   72   74 am   BACKBONE|DICT|INTERRES
   145   74   75 1    
   146   74  195 1    
   147   75   76 1    
   148   75   77 1    
   149   75  196 1    
   150   76  197 1    
   151   76  198 1    
   152   76  199 1    
   153   77   78 2    
   154   77   79 am   BACKBONE|DICT|INTERRES
   155   79   80 1    
   156   79  200 1    
   157   80   81 1    
   158   80   82 1    
   159   80  201 1    
   160   81  202 1    
   161   81  203 1    
   162   81  204 1    
   163   82   83 2    
   164   82   84 am   BACKBONE|DICT|INTERRES
   165   84   85 1    
   166   84  205 1    
   167   85   86 1    
   168   85   87 1    
   169   85  206 1    
   170   86  207 1    
   171   86  208 1    
   172   86  209 1    
   173   87   88 2    
   174   87   89 am   BACKBONE|DICT|INTERRES
   175   89   90 1    
   176   89  210 1    
   177   90   91 1    
   178   90   92 1    
   179   90  211 1    
   180   91  212 1    
   181   91  213 1    
   182   91  214 1    
   183   92   93 2    
   184   92   94 am   BACKBONE|DICT|INTERRES
   185   94   95 1    
   186   94  215 1    
   187   95   96 1    
   188   95   97 1    
   189   95  216 1    
   190   96  217 1    
   191   96  218 1    
   192   96  219 1    
   193   97   98 2    
   194   97   99 am   BACKBONE|DICT|INTERRES
   195   99  100 1    
   196   99  220 1    
   197  100  101 1    
   198  100  102 1    
   199  100  221 1    
   200  101  222 1    
   201  101  223 1    
   202  101  224 1    
   203  102  103 2    
   204  102  104 am   BACKBONE|DICT|INTERRES
   205  104  105 1    
   206  104  225 1    
   207  105  106 1    
   208  105  107 1    
   209  105  226 1    
   210  106  227 1    
   211  106  228 1    
   212  106  229 1    
   213  107  108 2    
   214  107  109 am   BACKBONE|DICT|INTERRES
   215  109  110 1    
   216  109  230 1    
   217  110  111 1    
   218  110  112 1    
   219  110  231 1    
   220  111  232 1    
   221  111  233 1    
   222  111  234 1    
   223  112  113 2    
   224  112  114 am   BACKBONE|DICT|INTERRES
   225  114  115 1    
   226  114  235 1    
   227  115  116 1    
   228  115  117 1    
   229  115  236 1    
   230  116  237 1    
   231  116  238 1    
   232  116  239 1    
   233  117  118 2    
   234  117  119 am   BACKBONE|DICT|INTERRES
   235  119  120 1    
   236  119  240 1    
   237  120  121 1    
   238  120  124 1    
   239  120  241 1    
   240  121  122 am   BACKBONE|DICT|INTERRES
   241  121  123 2    
   242  122  242 1    
   243  122  243 1    
   244  124  125 1    
   245  124  244 1    
   246  124  245 1    
   247  125  126 1    
   248  126  246 1    
   249  126  247 1    
@<TRIPOS>SUBSTRUCTURE
     1 UNK         1 GROUP             0       ****    0 ROOT    
