@<TRIPOS>MOLECULE
3R540
247   249    1
SMALL
USER_CHARGES


@<TRIPOS>ATOM
      1 CA          1.8591   -8.9371  -46.2952 C.3       0 UNK        -0.1800 
      2 C           1.6275  -10.2948  -45.6502 C.2       0 UNK         0.5000 
      3 O           1.3064  -10.3638  -44.4637 O.2       0 UNK        -0.5000 
      4 N           1.7631  -11.3779  -46.4270 N.am      1 UNK        -0.5000 
      5 CA          1.6180  -12.7710  -45.9792 C.3       1 UNK         0.1400 
      6 C6          2.1657  -13.7733  -47.0233 C.3       23 UNK        -0.0398 
      7 S7          1.2830  -13.7465  -48.6218 S.3       23 UNK        -0.2404 
      8 C8          1.8653  -15.3089  -49.3497 C.3       23 UNK        -0.0205 
      9 C9          0.8245  -15.9060  -50.2828 C.ar      23 UNK        -0.0193 
     10 C10         1.0151  -15.8918  -51.6688 C.ar      23 UNK        -0.1150 
     11 C11         0.0613  -16.4615  -52.5186 C.ar      23 UNK        -0.0193 
     12 C12        -1.0918  -17.0318  -51.9750 C.ar      23 UNK        -0.1150 
     13 C13        -1.2860  -17.0633  -50.5924 C.ar      23 UNK        -0.0193 
     14 C14        -0.3258  -16.4973  -49.7510 C.ar      23 UNK        -0.1150 
     15 C15        -2.5282  -17.7249  -50.0200 C.3       23 UNK        -0.0205 
     16 S16        -2.4633  -19.5288  -50.2339 S.3       23 UNK        -0.2404 
     17 C17        -1.3105  -20.0280  -48.9132 C.3       23 UNK        -0.0398 
     18 CA         -1.9919  -20.9643  -47.8857 C.3       11 UNK         0.1400 
     19 N          -1.0353  -21.9042  -47.2984 N.am      11 UNK        -0.5000 
     20 C          -1.3606  -23.0912  -46.7668 C.2       10 UNK         0.5000 
     21 O          -2.5095  -23.5240  -46.7145 O.2       10 UNK        -0.5000 
     22 CA         -0.2205  -23.9123  -46.1348 C.3       10 UNK         0.1400 
     23 CB          0.4080  -24.8446  -47.1805 C.3       10 UNK        -0.1800 
     24 N           0.8253  -23.0836  -45.5323 N.am      10 UNK        -0.5000 
     25 C           0.6248  -22.1799  -44.5635 C.2       9 UNK         0.5000 
     26 O          -0.4725  -21.9864  -44.0382 O.2       9 UNK        -0.5000 
     27 CA          1.8217  -21.2978  -44.1602 C.3       9 UNK         0.1400 
     28 CB          3.1936  -21.8846  -44.5583 C.3       9 UNK        -0.1800 
     29 N           1.6906  -19.9334  -44.6784 N.am      9 UNK        -0.5000 
     30 C           1.5156  -19.5482  -45.9522 C.2       8 UNK         0.5000 
     31 O           1.3632  -20.3244  -46.8965 O.2       8 UNK        -0.5000 
     32 CA          1.5438  -18.0348  -46.2242 C.3       8 UNK         0.1400 
     33 CB          0.1791  -17.3857  -45.9553 C.3       8 UNK        -0.1800 
     34 N           2.5706  -17.3581  -45.4320 N.am      8 UNK        -0.5000 
     35 C           3.8799  -17.3733  -45.7196 C.2       7 UNK         0.5000 
     36 O           4.3485  -17.8753  -46.7413 O.2       7 UNK        -0.5000 
     37 CA          4.8287  -16.7239  -44.6950 C.3       7 UNK         0.1400 
     38 CB          5.0887  -15.2520  -45.0518 C.3       7 UNK        -0.1800 
     39 N           4.3095  -16.8111  -43.3289 N.am      7 UNK        -0.5000 
     40 C           4.3997  -17.9077  -42.5605 C.2       6 UNK         0.5000 
     41 O           4.9937  -18.9300  -42.9034 O.2       6 UNK        -0.5000 
     42 CA          3.7013  -17.8752  -41.1842 C.3       6 UNK         0.1400 
     43 CB          4.6975  -17.4714  -40.0870 C.3       6 UNK        -0.1800 
     44 N           2.5454  -16.9787  -41.1286 N.am      6 UNK        -0.5000 
     45 C           1.4302  -17.1167  -41.8577 C.2       5 UNK         0.5000 
     46 O           1.2273  -18.0690  -42.6098 O.2       5 UNK        -0.5000 
     47 CA          0.3904  -15.9821  -41.7826 C.3       5 UNK         0.1400 
     48 CB         -0.7366  -16.3527  -40.8082 C.3       5 UNK        -0.1800 
     49 N           0.9216  -14.6628  -41.4188 N.am      5 UNK        -0.5000 
     50 C           1.9150  -14.0053  -42.0332 C.2       4 UNK         0.5000 
     51 O           2.6063  -14.4909  -42.9302 O.2       4 UNK        -0.5000 
     52 CA          2.1479  -12.5540  -41.5744 C.3       4 UNK         0.1400 
     53 CB          3.4423  -11.9510  -42.1492 C.3       4 UNK        -0.1800 
     54 N           1.0194  -11.7134  -41.9679 N.am      4 UNK        -0.5000 
     55 C          -0.1455  -11.6190  -41.3128 C.2       3 UNK         0.5000 
     56 O          -0.3834  -12.2075  -40.2570 O.2       3 UNK        -0.5000 
     57 CA         -1.2355  -10.7617  -41.9738 C.3       3 UNK         0.1400 
     58 CB         -0.8979   -9.2653  -41.8748 C.3       3 UNK        -0.1800 
     59 N          -1.3852  -11.1378  -43.3782 N.am      3 UNK        -0.5000 
     60 C          -2.2642  -12.0410  -43.8360 C.2       2 UNK         0.5000 
     61 O          -3.1164  -12.5852  -43.1332 O.2       2 UNK        -0.5000 
     62 CA         -2.1722  -12.4098  -45.3313 C.3       2 UNK         0.1400 
     63 CB         -3.0899  -11.5064  -46.1686 C.3       2 UNK        -0.1800 
     64 N          -0.8076  -12.3173  -45.8504 N.am      2 UNK        -0.5000 
     65 C           0.1920  -13.1411  -45.5049 C.2       1 UNK         0.5000 
     66 O           0.0266  -14.1446  -44.8140 O.2       1 UNK        -0.5000 
     67 C          -2.8084  -20.1893  -46.8232 C.2       11 UNK         0.5000 
     68 O          -3.8442  -19.6162  -47.1611 O.2       11 UNK        -0.5000 
     69 N          -2.3588  -20.1897  -45.5583 N.am      12 UNK        -0.5000 
     70 CA         -3.1609  -19.7252  -44.4247 C.3       12 UNK         0.1400 
     71 CB         -2.2493  -19.1796  -43.3133 C.3       12 UNK        -0.1800 
     72 C          -4.0601  -20.8563  -43.8936 C.2       12 UNK         0.5000 
     73 O          -5.1878  -20.5884  -43.4780 O.2       12 UNK        -0.5000 
     74 N          -3.5501  -22.0966  -43.9204 N.am      13 UNK        -0.5000 
     75 CA         -4.2514  -23.2982  -43.4681 C.3       13 UNK         0.1400 
     76 CB         -3.2451  -24.4502  -43.3237 C.3       13 UNK        -0.1800 
     77 C          -5.4217  -23.7093  -44.3828 C.2       13 UNK         0.5000 
     78 O          -6.4621  -24.1268  -43.8717 O.2       13 UNK        -0.5000 
     79 N          -5.2410  -23.5873  -45.7033 N.am      14 UNK        -0.5000 
     80 CA         -6.2367  -23.9140  -46.7205 C.3       14 UNK         0.1400 
     81 CB         -5.9399  -25.3104  -47.2908 C.3       14 UNK        -0.1800 
     82 C          -6.2017  -22.8623  -47.8356 C.2       14 UNK         0.5000 
     83 O          -5.1276  -22.3567  -48.1641 O.2       14 UNK        -0.5000 
     84 N          -7.3704  -22.5772  -48.4256 N.am      15 UNK        -0.5000 
     85 CA         -7.5439  -21.6386  -49.5367 C.3       15 UNK         0.1400 
     86 CB         -9.0368  -21.5316  -49.8828 C.3       15 UNK        -0.1800 
     87 C          -6.7246  -22.0615  -50.7693 C.2       15 UNK         0.5000 
     88 O          -6.8719  -23.1940  -51.2364 O.2       15 UNK        -0.5000 
     89 N          -5.8362  -21.1658  -51.2253 N.am      16 UNK        -0.5000 
     90 CA         -4.8580  -21.3658  -52.3051 C.3       16 UNK         0.1400 
     91 CB         -5.5712  -21.4196  -53.6682 C.3       16 UNK        -0.1800 
     92 C          -3.9234  -22.5754  -52.0650 C.2       16 UNK         0.5000 
     93 O          -3.4893  -23.2236  -53.0196 O.2       16 UNK        -0.5000 
     94 N          -3.6848  -22.8898  -50.7812 N.am      17 UNK        -0.5000 
     95 CA         -2.9368  -24.0359  -50.2598 C.3       17 UNK         0.1400 
     96 CB         -1.4380  -23.9003  -50.5975 C.3       17 UNK        -0.1800 
     97 C          -3.5217  -25.4024  -50.6758 C.2       17 UNK         0.5000 
     98 O          -2.7841  -26.3874  -50.7173 O.2       17 UNK        -0.5000 
     99 N          -4.8201  -25.4365  -51.0215 N.am      18 UNK        -0.5000 
    100 CA        -5.6110  -26.5537  -51.5628 C.3       18 UNK         0.1400 
    101 CB        -5.6590  -27.7372  -50.5779 C.3       18 UNK        -0.1800 
    102 C         -5.1923  -27.0230  -52.9750 C.2       18 UNK         0.5000 
    103 O         -6.0461  -27.4714  -53.7401 O.2       18 UNK        -0.5000 
    104 N         -3.9031  -26.8961  -53.3077 N.am      19 UNK        -0.5000 
    105 CA        -3.2837  -27.2579  -54.5827 C.3       19 UNK         0.1400 
    106 CB        -1.7705  -27.4018  -54.3495 C.3       19 UNK        -0.1800 
    107 C         -3.5569  -26.2579  -55.7259 C.2       19 UNK         0.5000 
    108 O         -3.1525  -26.5290  -56.8573 O.2       19 UNK        -0.5000 
    109 N         -4.2079  -25.1267  -55.4156 N.am      20 UNK        -0.5000 
    110 CA        -4.4682  -23.9789  -56.2915 C.3       20 UNK         0.1400 
    111 CB        -5.3063  -24.3707  -57.5274 C.3       20 UNK        -0.1800 
    112 C         -3.1686  -23.2222  -56.6343 C.2       20 UNK         0.5000 
    113 O         -2.9315  -22.8706  -57.7917 O.2       20 UNK        -0.5000 
    114 N         -2.3385  -23.0032  -55.6077 N.am      21 UNK        -0.5000 
    115 CA        -1.0740  -22.2825  -55.6884 C.3       21 UNK         0.1400 
    116 CB        -0.2065  -22.6669  -54.4792 C.3       21 UNK        -0.1800 
    117 C         -1.3161  -20.7644  -55.7196 C.2       21 UNK         0.5000 
    118 O         -2.0222  -20.2544  -54.8472 O.2       21 UNK        -0.5000 
    119 N         -0.7138  -20.0988  -56.7154 N.am      22 UNK        -0.5000 
    120 CA        -0.6020  -18.6465  -56.9896 C.3       22 UNK         0.1400 
    121 C         -1.8543  -17.7203  -56.8646 C.2       22 UNK         0.5000 
    122 N         -2.9686  -18.1509  -56.2972 N.am      22 UNK        -0.7600 
    123 O         -1.8210  -16.5862  -57.3350 O.2       22 UNK        -0.5000 
    124 C124        0.6748  -18.0104  -56.3672 C.3       23 UNK        -0.0398 
    125 S125        0.8060  -18.1491  -54.5527 S.3       23 UNK        -0.2404 
    126 C126        0.2730  -16.4931  -54.0225 C.3       23 UNK        -0.0205 
    127 H127        0.9578   -8.3289  -46.2211 H         1 UNK         0.0600 
    128 H128        2.6675   -8.4142  -45.7845 H         1 UNK         0.0600 
    129 H129        2.1239   -9.0285  -47.3488 H         1 UNK         0.0600 
    130 H130        1.9998  -11.2616  -47.4026 H         1 UNK         0.3000 
    131 H131        2.2493  -12.8720  -45.0951 H         1 UNK         0.0600 
    132 H132        3.2200  -13.5676  -47.2133 H         1 UNK         0.0800 
    133 H133        2.1317  -14.7825  -46.6111 H         1 UNK         0.0800 
    134 H134        2.0907  -16.0321  -48.5671 H         1 UNK         0.0800 
    135 H135        2.8040  -15.1287  -49.8757 H         1 UNK         0.0800 
    136 H136        1.9096  -15.4501  -52.0851 H         1 UNK         0.1150 
    137 H137       -1.8249  -17.4836  -52.6296 H         1 UNK         0.1150 
    138 H138       -0.4718  -16.5140  -48.6810 H         1 UNK         0.1150 
    139 H139       -2.6611  -17.4807  -48.9647 H         1 UNK         0.0800 
    140 H140       -3.4080  -17.3401  -50.5375 H         1 UNK         0.0800 
    141 H141       -0.8606  -19.1586  -48.4341 H         1 UNK         0.0800 
    142 H142       -0.4876  -20.5467  -49.4071 H         1 UNK         0.0800 
    143 H143       -2.7103  -21.5739  -48.4330 H         1 UNK         0.0600 
    144 H144       -0.0706  -21.5871  -47.2479 H         1 UNK         0.3000 
    145 H145       -0.6525  -24.5266  -45.3430 H         1 UNK         0.0600 
    146 H146        1.1633  -25.4899  -46.7317 H         1 UNK         0.0600 
    147 H147       -0.3467  -25.4926  -47.6287 H         1 UNK         0.0600 
    148 H148        0.8806  -24.2836  -47.9879 H         1 UNK         0.0600 
    149 H149        1.7474  -23.1523  -45.9375 H         1 UNK         0.3000 
    150 H150        1.7948  -21.2212  -43.0723 H         1 UNK         0.0600 
    151 H151        3.3188  -22.8955  -44.1682 H         1 UNK         0.0600 
    152 H152        4.0035  -21.2813  -44.1480 H         1 UNK         0.0600 
    153 H153        3.3322  -21.9218  -45.6393 H         1 UNK         0.0600 
    154 H154        1.6907  -19.2076  -43.9645 H         1 UNK         0.3000 
    155 H155        1.7695  -17.9089  -47.2842 H         1 UNK         0.0600 
    156 H156       -0.0367  -17.3299  -44.8900 H         1 UNK         0.0600 
    157 H157       -0.6313  -17.9400  -46.4272 H         1 UNK         0.0600 
    158 H158        0.1479  -16.3703  -46.3486 H         1 UNK         0.0600 
    159 H159        2.2744  -16.9433  -44.5600 H         1 UNK         0.3000 
    160 H160        5.7831  -17.2525  -44.7454 H         1 UNK         0.0600 
    161 H161        5.7968  -14.7982  -44.3584 H         1 UNK         0.0600 
    162 H162        4.1739  -14.6614  -45.0271 H         1 UNK         0.0600 
    163 H163        5.5101  -15.1616  -46.0537 H         1 UNK         0.0600 
    164 H164        3.7818  -16.0081  -42.9962 H         1 UNK         0.3000 
    165 H165        3.3486  -18.8869  -40.9728 H         1 UNK         0.0600 
    166 H166        4.2403  -17.5254  -39.0988 H         1 UNK         0.0600 
    167 H167        5.5622  -18.1365  -40.0802 H         1 UNK         0.0600 
    168 H168        5.0659  -16.4552  -40.2330 H         1 UNK         0.0600 
    169 H169        2.6329  -16.1598  -40.5457 H         1 UNK         0.3000 
    170 H170       -0.0443  -15.8877  -42.7789 H         1 UNK         0.0600 
    171 H171       -1.1697  -17.3219  -41.0589 H         1 UNK         0.0600 
    172 H172       -0.3759  -16.4096  -39.7805 H         1 UNK         0.0600 
    173 H173       -1.5432  -15.6198  -40.8420 H         1 UNK         0.0600 
    174 H174        0.3955  -14.1483  -40.7219 H         1 UNK         0.3000 
    175 H175        2.2368  -12.5577  -40.4861 H         1 UNK         0.0600 
    176 H176        3.4168  -11.8936  -43.2375 H         1 UNK         0.0600 
    177 H177        3.6087  -10.9435  -41.7678 H         1 UNK         0.0600 
    178 H178        4.3098  -12.5512  -41.8721 H         1 UNK         0.0600 
    179 H179        1.1260  -11.2096  -42.8457 H         1 UNK         0.3000 
    180 H180       -2.1719  -10.9296  -41.4374 H         1 UNK         0.0600 
    181 H181        0.0274   -9.0192  -42.3969 H         1 UNK         0.0600 
    182 H182       -0.7788   -8.9612  -40.8342 H         1 UNK         0.0600 
    183 H183       -1.6937   -8.6555  -42.3026 H         1 UNK         0.0600 
    184 H184       -0.6810  -10.7792  -44.0121 H         1 UNK         0.3000 
    185 H185       -2.5123  -13.4418  -45.4421 H         1 UNK         0.0600 
    186 H186       -4.1221  -11.5707  -45.8219 H         1 UNK         0.0600 
    187 H187       -2.7883  -10.4598  -46.1097 H         1 UNK         0.0600 
    188 H188       -3.0817  -11.8006  -47.2184 H         1 UNK         0.0600 
    189 H189       -0.5926  -11.5265  -46.4395 H         1 UNK         0.3000 
    190 H190       -1.5163  -20.7029  -45.3305 H         1 UNK         0.3000 
    191 H191       -3.8098  -18.9062  -44.7424 H         1 UNK         0.0600 
    192 H192       -1.5536  -19.9302  -42.9404 H         1 UNK         0.0600 
    193 H193       -2.8401  -18.8358  -42.4635 H         1 UNK         0.0600 
    194 H194       -1.6676  -18.3286  -43.6619 H         1 UNK         0.0600 
    195 H195       -2.5942  -22.2192  -44.2298 H         1 UNK         0.3000 
    196 H196       -4.6631  -23.0887  -42.4785 H         1 UNK         0.0600 
    197 H197       -2.8250  -24.7412  -44.2861 H         1 UNK         0.0600 
    198 H198       -3.7242  -25.3326  -42.8978 H         1 UNK         0.0600 
    199 H199       -2.4204  -24.1768  -42.6651 H         1 UNK         0.0600 
    200 H200       -4.3485  -23.2569  -46.0630 H         1 UNK         0.3000 
    201 H201       -7.2371  -23.9113  -46.2828 H         1 UNK         0.0600 
    202 H202       -6.6562  -25.5751  -48.0693 H         1 UNK         0.0600 
    203 H203       -6.0028  -26.0744  -46.5158 H         1 UNK         0.0600 
    204 H204       -4.9422  -25.3602  -47.7293 H         1 UNK         0.0600 
    205 H205       -8.2009  -23.0656  -48.1248 H         1 UNK         0.3000 
    206 H206       -7.2001  -20.6587  -49.1986 H         1 UNK         0.0600 
    207 H207       -9.6163  -21.1782  -49.0297 H         1 UNK         0.0600 
    208 H208       -9.1980  -20.8262  -50.6990 H         1 UNK         0.0600 
    209 H209       -9.4481  -22.4928  -50.1941 H         1 UNK         0.0600 
    210 H210       -5.7667  -20.2788  -50.7456 H         1 UNK         0.3000 
    211 H211       -4.2185  -20.4835  -52.3160 H         1 UNK         0.0600 
    212 H212       -6.1476  -22.3375  -53.7869 H         1 UNK         0.0600 
    213 H213       -4.8465  -21.3631  -54.4805 H         1 UNK         0.0600 
    214 H214       -6.2524  -20.5776  -53.7905 H         1 UNK         0.0600 
    215 H215       -4.1424  -22.3307  -50.0692 H         1 UNK         0.3000 
    216 H216       -3.0417  -23.9940  -49.1776 H         1 UNK         0.0600 
    217 H217       -1.2536  -24.0121  -51.6662 H         1 UNK         0.0600 
    218 H218       -0.8493  -24.6603  -50.0832 H         1 UNK         0.0600 
    219 H219       -1.0507  -22.9294  -50.2895 H         1 UNK         0.0600 
    220 H220       -5.3264  -24.5570  -50.9939 H         1 UNK         0.3000 
    221 H221       -6.6266  -26.1663  -51.6581 H         1 UNK         0.0600 
    222 H222       -4.6833  -28.2076  -50.4551 H         1 UNK         0.0600 
    223 H223       -6.0050  -27.4204  -49.5946 H         1 UNK         0.0600 
    224 H224       -6.3464  -28.5067  -50.9310 H         1 UNK         0.0600 
    225 H225       -3.2766  -26.5700  -52.5790 H         1 UNK         0.3000 
    226 H226       -3.6788  -28.2263  -54.8957 H         1 UNK         0.0600 
    227 H227       -1.5584  -28.1448  -53.5803 H         1 UNK         0.0600 
    228 H228       -1.2595  -27.7229  -55.2581 H         1 UNK         0.0600 
    229 H229       -1.3227  -26.4575  -54.0362 H         1 UNK         0.0600 
    230 H230       -4.4367  -24.9861  -54.4409 H         1 UNK         0.3000 
    231 H231       -5.0782  -23.2922  -55.7089 H         1 UNK         0.0600 
    232 H232       -6.2034  -24.9180  -57.2381 H         1 UNK         0.0600 
    233 H233       -4.7450  -24.9899  -58.2272 H         1 UNK         0.0600 
    234 H234       -5.6295  -23.4825  -58.0714 H         1 UNK         0.0600 
    235 H235       -2.6572  -23.2406  -54.6706 H         1 UNK         0.3000 
    236 H236       -0.5507  -22.5903  -56.5963 H         1 UNK         0.0600 
    237 H237        0.7608  -22.1646  -54.5179 H         1 UNK         0.0600 
    238 H238       -0.6835  -22.3878  -53.5384 H         1 UNK         0.0600 
    239 H239       -0.0180  -23.7403  -54.4529 H         1 UNK         0.0600 
    240 H240       -0.2104  -20.6656  -57.3825 H         1 UNK         0.3000 
    241 H241       -0.4243  -18.6337  -58.0658 H         1 UNK         0.0600 
    242 H242       -2.9322  -19.0287  -55.7838 H         1 UNK         0.3800 
    243 H243       -3.7742  -17.5499  -56.2342 H         1 UNK         0.3800 
    244 H244        1.5518  -18.5072  -56.7838 H         1 UNK         0.0800 
    245 H245        0.7777  -16.9650  -56.6634 H         1 UNK         0.0800 
    246 H246        1.0169  -15.7548  -54.3256 H         1 UNK         0.0800 
    247 H247       -0.6578  -16.2250  -54.5243 H         1 UNK         0.0800 
@<TRIPOS>BOND
     1    1    2 1    
     2    1  127 1    
     3    1  128 1    
     4    1  129 1    
     5    2    3 2    
     6    2    4 am   BACKBONE|DICT|INTERRES
     7    4    5 1    
     8    4  130 1    
     9    5    6 1    
    10    5   65 1    
    11    5  131 1    
    12    6    7 1    
    13    6  132 1    
    14    6  133 1    
    15    7    8 1    
    16    8    9 1    
    17    8  134 1    
    18    8  135 1    
    19    9   10 ar   
    20    9   14 ar   
    21   10   11 ar   
    22   10  136 1    
    23   11   12 ar   
    24   11  126 1    
    25   12   13 ar   
    26   12  137 1    
    27   13   14 ar   
    28   13   15 1    
    29   14  138 1    
    30   15   16 1    
    31   15  139 1    
    32   15  140 1    
    33   16   17 1    
    34   17   18 1    
    35   17  141 1    
    36   17  142 1    
    37   18   19 1    
    38   18   67 1    
    39   18  143 1    
    40   19   20 am   BACKBONE|DICT|INTERRES
    41   19  144 1    
    42   20   21 2    
    43   20   22 1    
    44   22   23 1    
    45   22   24 1    
    46   22  145 1    
    47   23  146 1    
    48   23  147 1    
    49   23  148 1    
    50   24   25 am   BACKBONE|DICT|INTERRES
    51   24  149 1    
    52   25   26 2    
    53   25   27 1    
    54   27   28 1    
    55   27   29 1    
    56   27  150 1    
    57   28  151 1    
    58   28  152 1    
    59   28  153 1    
    60   29   30 am   BACKBONE|DICT|INTERRES
    61   29  154 1    
    62   30   31 2    
    63   30   32 1    
    64   32   33 1    
    65   32   34 1    
    66   32  155 1    
    67   33  156 1    
    68   33  157 1    
    69   33  158 1    
    70   34   35 am   BACKBONE|DICT|INTERRES
    71   34  159 1    
    72   35   36 2    
    73   35   37 1    
    74   37   38 1    
    75   37   39 1    
    76   37  160 1    
    77   38  161 1    
    78   38  162 1    
    79   38  163 1    
    80   39   40 am   BACKBONE|DICT|INTERRES
    81   39  164 1    
    82   40   41 2    
    83   40   42 1    
    84   42   43 1    
    85   42   44 1    
    86   42  165 1    
    87   43  166 1    
    88   43  167 1    
    89   43  168 1    
    90   44   45 am   BACKBONE|DICT|INTERRES
    91   44  169 1    
    92   45   46 2    
    93   45   47 1    
    94   47   48 1    
    95   47   49 1    
    96   47  170 1    
    97   48  171 1    
    98   48  172 1    
    99   48  173 1    
   100   49   50 am   BACKBONE|DICT|INTERRES
   101   49  174 1    
   102   50   51 2    
   103   50   52 1    
   104   52   53 1    
   105   52   54 1    
   106   52  175 1    
   107   53  176 1    
   108   53  177 1    
   109   53  178 1    
   110   54   55 am   BACKBONE|DICT|INTERRES
   111   54  179 1    
   112   55   56 2    
   113   55   57 1    
   114   57   58 1    
   115   57   59 1    
   116   57  180 1    
   117   58  181 1    
   118   58  182 1    
   119   58  183 1    
   120   59   60 am   BACKBONE|DICT|INTERRES
   121   59  184 1    
   122   60   61 2    
   123   60   62 1    
   124   62   63 1    
   125   62   64 1    
   126   62  185 1    
   127   63  186 1    
   128   63  187 1    
   129   63  188 1    
   130   64   65 am   BACKBONE|DICT|INTERRES
   131   64  189 1    
   132   65   66 2    
   133   67   68 2    
   134   67   69 am   BACKBONE|DICT|INTERRES
   135   69   70 1    
   136   69  190 1    
   137   70   71 1    
   138   70   72 1    
   139   70  191 1    
   140   71  192 1    
   141   71  193 1    
   142   71  194 1    
   143   72   73 2    
   144   72   74 am   BACKBONE|DICT|INTERRES
   145   74   75 1    
   146   74  195 1    
   147   75   76 1    
   148   75   77 1    
   149   75  196 1    
   150   76  197 1    
   151   76  198 1    
   152   76  199 1    
   153   77   78 2    
   154   77   79 am   BACKBONE|DICT|INTERRES
   155   79   80 1    
   156   79  200 1    
   157   80   81 1    
   158   80   82 1    
   159   80  201 1    
   160   81  202 1    
   161   81  203 1    
   162   81  204 1    
   163   82   83 2    
   164   82   84 am   BACKBONE|DICT|INTERRES
   165   84   85 1    
   166   84  205 1    
   167   85   86 1    
   168   85   87 1    
   169   85  206 1    
   170   86  207 1    
   171   86  208 1    
   172   86  209 1    
   173   87   88 2    
   174   87   89 am   BACKBONE|DICT|INTERRES
   175   89   90 1    
   176   89  210 1    
   177   90   91 1    
   178   90   92 1    
   179   90  211 1    
   180   91  212 1    
   181   91  213 1    
   182   91  214 1    
   183   92   93 2    
   184   92   94 am   BACKBONE|DICT|INTERRES
   185   94   95 1    
   186   94  215 1    
   187   95   96 1    
   188   95   97 1    
   189   95  216 1    
   190   96  217 1    
   191   96  218 1    
   192   96  219 1    
   193   97   98 2    
   194   97   99 am   BACKBONE|DICT|INTERRES
   195   99  100 1    
   196   99  220 1    
   197  100  101 1    
   198  100  102 1    
   199  100  221 1    
   200  101  222 1    
   201  101  223 1    
   202  101  224 1    
   203  102  103 2    
   204  102  104 am   BACKBONE|DICT|INTERRES
   205  104  105 1    
   206  104  225 1    
   207  105  106 1    
   208  105  107 1    
   209  105  226 1    
   210  106  227 1    
   211  106  228 1    
   212  106  229 1    
   213  107  108 2    
   214  107  109 am   BACKBONE|DICT|INTERRES
   215  109  110 1    
   216  109  230 1    
   217  110  111 1    
   218  110  112 1    
   219  110  231 1    
   220  111  232 1    
   221  111  233 1    
   222  111  234 1    
   223  112  113 2    
   224  112  114 am   BACKBONE|DICT|INTERRES
   225  114  115 1    
   226  114  235 1    
   227  115  116 1    
   228  115  117 1    
   229  115  236 1    
   230  116  237 1    
   231  116  238 1    
   232  116  239 1    
   233  117  118 2    
   234  117  119 am   BACKBONE|DICT|INTERRES
   235  119  120 1    
   236  119  240 1    
   237  120  121 1    
   238  120  124 1    
   239  120  241 1    
   240  121  122 am   BACKBONE|DICT|INTERRES
   241  121  123 2    
   242  122  242 1    
   243  122  243 1    
   244  124  125 1    
   245  124  244 1    
   246  124  245 1    
   247  125  126 1    
   248  126  246 1    
   249  126  247 1    
@<TRIPOS>SUBSTRUCTURE
     1 UNK         1 GROUP             0       ****    0 ROOT    
