@<TRIPOS>MOLECULE
3R540
247   249    1
SMALL
USER_CHARGES


@<TRIPOS>ATOM
      1 CA         -4.2628  -16.1027  -45.6292 C.3       0 UNK        -0.1800 
      2 C          -3.1053  -16.0635  -46.6164 C.2       0 UNK         0.5000 
      3 O          -2.1881  -16.8783  -46.5233 O.2       0 UNK        -0.5000 
      4 N          -3.1269  -15.0956  -47.5429 N.am      1 UNK        -0.5000 
      5 CA         -2.1222  -14.8089  -48.5815 C.3       1 UNK         0.1400 
      6 C6         -1.8682  -15.9991  -49.5479 C.3       23 UNK        -0.0398 
      7 S7         -1.4320  -15.4580  -51.2360 S.3       23 UNK        -0.2404 
      8 C8          0.3879  -15.5760  -51.2385 C.3       23 UNK        -0.0205 
      9 C9          0.8736  -17.0091  -51.3957 C.ar      23 UNK        -0.0193 
     10 C10         0.8972  -17.6056  -52.6599 C.ar      23 UNK        -0.1150 
     11 C11         1.3499  -18.9182  -52.8176 C.ar      23 UNK        -0.0193 
     12 C12         1.7782  -19.6308  -51.6947 C.ar      23 UNK        -0.1150 
     13 C13         1.7287  -19.0659  -50.4177 C.ar      23 UNK        -0.0193 
     14 C14         1.3051  -17.7364  -50.2824 C.ar      23 UNK        -0.1150 
     15 C15         2.1321  -19.9550  -49.2398 C.3       23 UNK        -0.0205 
     16 S16         1.9019  -19.2736  -47.5631 S.3       23 UNK        -0.2404 
     17 C17         0.0909  -19.1037  -47.4054 C.3       23 UNK        -0.0398 
     18 CA         -0.6667  -20.4264  -47.1622 C.3       11 UNK         0.1400 
     19 N          -0.1319  -21.1934  -46.0323 N.am      11 UNK        -0.5000 
     20 C          -0.4997  -22.4452  -45.7195 C.2       10 UNK         0.5000 
     21 O          -1.3507  -23.0762  -46.3494 O.2       10 UNK        -0.5000 
     22 CA          0.1465  -23.0831  -44.4745 C.3       10 UNK         0.1400 
     23 CB          1.3780  -23.9060  -44.8792 C.3       10 UNK        -0.1800 
     24 N           0.5338  -22.1119  -43.4481 N.am      10 UNK        -0.5000 
     25 C          -0.3105  -21.2971  -42.7990 C.2       9 UNK         0.5000 
     26 O          -1.5278  -21.2978  -42.9765 O.2       9 UNK        -0.5000 
     27 CA          0.3072  -20.2789  -41.8208 C.3       9 UNK         0.1400 
     28 CB          0.2536  -20.8085  -40.3807 C.3       9 UNK        -0.1800 
     29 N           1.6861  -19.8929  -42.1368 N.am      9 UNK        -0.5000 
     30 C           2.0861  -19.2971  -43.2692 C.2       8 UNK         0.5000 
     31 O           1.3274  -19.0490  -44.2079 O.2       8 UNK        -0.5000 
     32 CA          3.5678  -18.8900  -43.3193 C.3       8 UNK         0.1400 
     33 CB          3.9275  -18.0621  -44.5633 C.3       8 UNK        -0.1800 
     34 N           3.8785  -18.0945  -42.1371 N.am      8 UNK        -0.5000 
     35 C           4.9035  -18.2945  -41.2998 C.2       7 UNK         0.5000 
     36 O           5.6731  -19.2532  -41.3819 O.2       7 UNK        -0.5000 
     37 CA          5.0925  -17.2378  -40.1882 C.3       7 UNK         0.1400 
     38 CB          6.5139  -17.2328  -39.5883 C.3       7 UNK        -0.1800 
     39 N           4.6949  -15.8911  -40.6162 N.am      7 UNK        -0.5000 
     40 C           5.2167  -15.1619  -41.6170 C.2       6 UNK         0.5000 
     41 O           6.2162  -15.4948  -42.2550 O.2       6 UNK        -0.5000 
     42 CA          4.4834  -13.8599  -42.0016 C.3       6 UNK         0.1400 
     43 CB          4.1402  -13.8608  -43.5001 C.3       6 UNK        -0.1800 
     44 N           3.2399  -13.6884  -41.2486 N.am      6 UNK        -0.5000 
     45 C           3.0919  -12.9156  -40.1643 C.2       5 UNK         0.5000 
     46 O           3.9806  -12.1938  -39.7110 O.2       5 UNK        -0.5000 
     47 CA          1.7299  -12.9831  -39.4417 C.3       5 UNK         0.1400 
     48 CB          0.7890  -11.8901  -39.9707 C.3       5 UNK        -0.1800 
     49 N           1.0647  -14.2826  -39.5687 N.am      5 UNK        -0.5000 
     50 C           1.5421  -15.4477  -39.1074 C.2       4 UNK         0.5000 
     51 O           2.5811  -15.5479  -38.4564 O.2       4 UNK        -0.5000 
     52 CA          0.7712  -16.7255  -39.4941 C.3       4 UNK         0.1400 
     53 CB         -0.1593  -17.1613  -38.3532 C.3       4 UNK        -0.1800 
     54 N          -0.0109  -16.5980  -40.7274 N.am      4 UNK        -0.5000 
     55 C           0.4911  -16.3345  -41.9419 C.2       3 UNK         0.5000 
     56 O           1.6969  -16.1720  -42.1499 O.2       3 UNK        -0.5000 
     57 CA         -0.5393  -16.2643  -43.0880 C.3       3 UNK         0.1400 
     58 CB         -1.7272  -15.3419  -42.7350 C.3       3 UNK        -0.1800 
     59 N           0.0278  -15.8874  -44.3854 N.am      3 UNK        -0.5000 
     60 C           0.5825  -14.7145  -44.7313 C.2       2 UNK         0.5000 
     61 O           0.7533  -13.7701  -43.9598 O.2       2 UNK        -0.5000 
     62 CA          0.9185  -14.5428  -46.2211 C.3       2 UNK         0.1400 
     63 CB          2.1329  -15.3852  -46.6413 C.3       2 UNK        -0.1800 
     64 N          -0.2431  -14.9358  -47.0127 N.am      2 UNK        -0.5000 
     65 C          -0.8048  -14.2398  -48.0039 C.2       1 UNK         0.5000 
     66 O          -0.3480  -13.1851  -48.4462 O.2       1 UNK        -0.5000 
     67 C          -2.1814  -20.1531  -47.0332 C.2       11 UNK         0.5000 
     68 O          -2.8610  -20.0315  -48.0538 O.2       11 UNK        -0.5000 
     69 N          -2.6966  -20.1277  -45.7941 N.am      12 UNK        -0.5000 
     70 CA         -4.1179  -19.9675  -45.4862 C.3       12 UNK         0.1400 
     71 CB         -4.2820  -19.6855  -43.9853 C.3       12 UNK        -0.1800 
     72 C          -4.9823  -21.1721  -45.9163 C.2       12 UNK         0.5000 
     73 O          -6.2029  -21.0323  -45.9921 O.2       12 UNK        -0.5000 
     74 N          -4.3462  -22.3183  -46.1923 N.am      13 UNK        -0.5000 
     75 CA         -4.9736  -23.5022  -46.7718 C.3       13 UNK         0.1400 
     76 CB         -4.6199  -24.7283  -45.9149 C.3       13 UNK        -0.1800 
     77 C          -4.5162  -23.7108  -48.2253 C.2       13 UNK         0.5000 
     78 O          -5.3411  -24.0505  -49.0732 O.2       13 UNK        -0.5000 
     79 N          -3.2121  -23.5360  -48.4860 N.am      14 UNK        -0.5000 
     80 CA         -2.5875  -23.8541  -49.7697 C.3       14 UNK         0.1400 
     81 CB         -1.0717  -24.0110  -49.5683 C.3       14 UNK        -0.1800 
     82 C          -2.8680  -22.8354  -50.8875 C.2       14 UNK         0.5000 
     83 O          -2.9533  -23.2438  -52.0451 O.2       14 UNK        -0.5000 
     84 N          -2.9625  -21.5447  -50.5422 N.am      15 UNK        -0.5000 
     85 CA         -3.0528  -20.4445  -51.5038 C.3       15 UNK         0.1400 
     86 CB         -1.8688  -19.4928  -51.2885 C.3       15 UNK        -0.1800 
     87 C          -4.3757  -19.6839  -51.3736 C.2       15 UNK         0.5000 
     88 O          -5.0233  -19.4186  -52.3862 O.2       15 UNK        -0.5000 
     89 N          -4.7699  -19.3403  -50.1404 N.am      16 UNK        -0.5000 
     90 CA         -6.0245  -18.6413  -49.8626 C.3       16 UNK         0.1400 
     91 CB         -6.0443  -18.1855  -48.4014 C.3       16 UNK        -0.1800 
     92 C          -7.2329  -19.5364  -50.1884 C.2       16 UNK         0.5000 
     93 O          -7.2628  -20.6934  -49.7648 O.2       16 UNK        -0.5000 
     94 N          -8.1692  -19.0016  -50.9843 N.am      17 UNK        -0.5000 
     95 CA         -9.3592  -19.6416  -51.5695 C.3       17 UNK         0.1400 
     96 CB        -10.3132  -20.1692  -50.4806 C.3       17 UNK        -0.1800 
     97 C          -9.0544  -20.7319  -52.6211 C.2       17 UNK         0.5000 
     98 O          -9.7739  -20.8245  -53.6161 O.2       17 UNK        -0.5000 
     99 N          -7.9957  -21.5208  -52.4027 N.am      18 UNK        -0.5000 
    100 CA        -7.5086  -22.5731  -53.2953 C.3       18 UNK         0.1400 
    101 CB        -6.5488  -23.4705  -52.5039 C.3       18 UNK        -0.1800 
    102 C         -6.8374  -22.0328  -54.5769 C.2       18 UNK         0.5000 
    103 O         -6.7768  -22.7539  -55.5739 O.2       18 UNK        -0.5000 
    104 N         -6.3715  -20.7759  -54.5363 N.am      19 UNK        -0.5000 
    105 CA        -5.7976  -19.9924  -55.6301 C.3       19 UNK         0.1400 
    106 CB        -6.8804  -19.6665  -56.6843 C.3       19 UNK        -0.1800 
    107 C         -4.5224  -20.6406  -56.2038 C.2       19 UNK         0.5000 
    108 O         -3.5245  -20.7388  -55.4901 O.2       19 UNK        -0.5000 
    109 N         -4.5721  -21.0689  -57.4729 N.am      20 UNK        -0.5000 
    110 CA        -3.4595  -21.6318  -58.2451 C.3       20 UNK         0.1400 
    111 CB        -3.9138  -21.7992  -59.7038 C.3       20 UNK        -0.1800 
    112 C         -2.8840  -22.9572  -57.7036 C.2       20 UNK         0.5000 
    113 O         -1.8128  -23.3707  -58.1515 O.2       20 UNK        -0.5000 
    114 N         -3.5774  -23.5906  -56.7464 N.am      21 UNK        -0.5000 
    115 CA        -3.1793  -24.8223  -56.0595 C.3       21 UNK         0.1400 
    116 CB        -4.2560  -25.1780  -55.0265 C.3       21 UNK        -0.1800 
    117 C         -1.7963  -24.7640  -55.3773 C.2       21 UNK         0.5000 
    118 O         -1.1628  -25.8098  -55.2256 O.2       21 UNK        -0.5000 
    119 N         -1.3408  -23.5601  -55.0037 N.am      22 UNK        -0.5000 
    120 CA         0.0129  -23.3142  -54.4868 C.3       22 UNK         0.1400 
    121 C          1.1493  -23.3737  -55.5538 C.2       22 UNK         0.5000 
    122 N          0.8575  -23.4550  -56.8477 N.am      22 UNK        -0.7600 
    123 O          2.3242  -23.3605  -55.1965 O.2       22 UNK        -0.5000 
    124 C124        0.0790  -22.0306  -53.6225 C.3       23 UNK        -0.0398 
    125 S125       -0.1813  -20.4692  -54.5405 S.3       23 UNK        -0.2404 
    126 C126        1.3653  -19.5668  -54.1958 C.3       23 UNK        -0.0205 
    127 H127       -5.1170  -16.6273  -46.0535 H         1 UNK         0.0600 
    128 H128       -4.5783  -15.0956  -45.3564 H         1 UNK         0.0600 
    129 H129       -3.9679  -16.6212  -44.7175 H         1 UNK         0.0600 
    130 H130       -3.9027  -14.4479  -47.5307 H         1 UNK         0.3000 
    131 H131       -2.5734  -14.0023  -49.1622 H         1 UNK         0.0600 
    132 H132       -1.1151  -16.6818  -49.1589 H         1 UNK         0.0800 
    133 H133       -2.7770  -16.5954  -49.6438 H         1 UNK         0.0800 
    134 H134        0.7724  -14.9772  -52.0654 H         1 UNK         0.0800 
    135 H135        0.7942  -15.1272  -50.3313 H         1 UNK         0.0800 
    136 H136        0.5560  -17.0482  -53.5209 H         1 UNK         0.1150 
    137 H137        2.1353  -20.6435  -51.8058 H         1 UNK         0.1150 
    138 H138        1.2925  -17.2601  -49.3136 H         1 UNK         0.1150 
    139 H139        1.5878  -20.8982  -49.3029 H         1 UNK         0.0800 
    140 H140        3.1878  -20.2054  -49.3515 H         1 UNK         0.0800 
    141 H141       -0.0848  -18.4174  -46.5765 H         1 UNK         0.0800 
    142 H142       -0.3032  -18.6147  -48.2938 H         1 UNK         0.0800 
    143 H143       -0.5404  -21.0420  -48.0538 H         1 UNK         0.0600 
    144 H144        0.5467  -20.7127  -45.4530 H         1 UNK         0.3000 
    145 H145       -0.5900  -23.7585  -44.0344 H         1 UNK         0.0600 
    146 H146        1.7981  -24.4354  -44.0238 H         1 UNK         0.0600 
    147 H147        1.1179  -24.6557  -45.6278 H         1 UNK         0.0600 
    148 H148        2.1610  -23.2761  -45.3037 H         1 UNK         0.0600 
    149 H149        1.5187  -22.0380  -43.2417 H         1 UNK         0.3000 
    150 H150       -0.3056  -19.3775  -41.8716 H         1 UNK         0.0600 
    151 H151       -0.7677  -21.0653  -40.0963 H         1 UNK         0.0600 
    152 H152        0.6085  -20.0613  -39.6708 H         1 UNK         0.0600 
    153 H153        0.8639  -21.7042  -40.2590 H         1 UNK         0.0600 
    154 H154        2.3748  -20.0542  -41.4164 H         1 UNK         0.3000 
    155 H155        4.1530  -19.8112  -43.3352 H         1 UNK         0.0600 
    156 H156        4.9739  -17.7571  -44.5452 H         1 UNK         0.0600 
    157 H157        3.3194  -17.1600  -44.6266 H         1 UNK         0.0600 
    158 H158        3.7746  -18.6376  -45.4748 H         1 UNK         0.0600 
    159 H159        3.2653  -17.2964  -41.9915 H         1 UNK         0.3000 
    160 H160        4.4034  -17.5172  -39.3902 H         1 UNK         0.0600 
    161 H161        7.2745  -17.0361  -40.3442 H         1 UNK         0.0600 
    162 H162        6.7489  -18.1956  -39.1332 H         1 UNK         0.0600 
    163 H163        6.6099  -16.4758  -38.8100 H         1 UNK         0.0600 
    164 H164        3.8967  -15.5078  -40.1252 H         1 UNK         0.3000 
    165 H165        5.1640  -13.0289  -41.8070 H         1 UNK         0.0600 
    166 H166        3.5193  -14.7182  -43.7600 H         1 UNK         0.0600 
    167 H167        3.6005  -12.9572  -43.7842 H         1 UNK         0.0600 
    168 H168        5.0406  -13.9083  -44.1135 H         1 UNK         0.0600 
    169 H169        2.4635  -14.2654  -41.5533 H         1 UNK         0.3000 
    170 H170        1.9093  -12.8005  -38.3801 H         1 UNK         0.0600 
    171 H171        1.2419  -10.9027  -39.8712 H         1 UNK         0.0600 
    172 H172        0.5540  -12.0389  -41.0258 H         1 UNK         0.0600 
    173 H173       -0.1492  -11.8733  -39.4158 H         1 UNK         0.0600 
    174 H174        0.2071  -14.2982  -40.1001 H         1 UNK         0.3000 
    175 H175        1.5097  -17.5141  -39.6533 H         1 UNK         0.0600 
    176 H176       -0.9332  -16.4176  -38.1591 H         1 UNK         0.0600 
    177 H177       -0.6517  -18.1065  -38.5824 H         1 UNK         0.0600 
    178 H178        0.3987  -17.3040  -37.4267 H         1 UNK         0.0600 
    179 H179       -1.0089  -16.7164  -40.6305 H         1 UNK         0.3000 
    180 H180       -0.9254  -17.2757  -43.2229 H         1 UNK         0.0600 
    181 H181       -1.3921  -14.3576  -42.4056 H         1 UNK         0.0600 
    182 H182       -2.3396  -15.7642  -41.9381 H         1 UNK         0.0600 
    183 H183       -2.3810  -15.1930  -43.5929 H         1 UNK         0.0600 
    184 H184       -0.0032  -16.6206  -45.0782 H         1 UNK         0.3000 
    185 H185        1.1509  -13.4889  -46.3884 H         1 UNK         0.0600 
    186 H186        2.3620  -15.2421  -47.6974 H         1 UNK         0.0600 
    187 H187        3.0212  -15.1033  -46.0765 H         1 UNK         0.0600 
    188 H188        1.9605  -16.4495  -46.4821 H         1 UNK         0.0600 
    189 H189       -0.7645  -15.7462  -46.6867 H         1 UNK         0.3000 
    190 H190       -2.0822  -20.2840  -45.0057 H         1 UNK         0.3000 
    191 H191       -4.4729  -19.0933  -46.0325 H         1 UNK         0.0600 
    192 H192       -3.6462  -18.8610  -43.6623 H         1 UNK         0.0600 
    193 H193       -5.3122  -19.4134  -43.7526 H         1 UNK         0.0600 
    194 H194       -4.0326  -20.5592  -43.3829 H         1 UNK         0.0600 
    195 H195       -3.3394  -22.3470  -46.0919 H         1 UNK         0.3000 
    196 H196       -6.0608  -23.3996  -46.7803 H         1 UNK         0.0600 
    197 H197       -5.0678  -25.6341  -46.3256 H         1 UNK         0.0600 
    198 H198       -4.9914  -24.6148  -44.8964 H         1 UNK         0.0600 
    199 H199       -3.5423  -24.8888  -45.8612 H         1 UNK         0.0600 
    200 H200       -2.5788  -23.3128  -47.7232 H         1 UNK         0.3000 
    201 H201       -2.9769  -24.8182  -50.1045 H         1 UNK         0.0600 
    202 H202       -0.8490  -24.7823  -48.8306 H         1 UNK         0.0600 
    203 H203       -0.6102  -23.0832  -49.2311 H         1 UNK         0.0600 
    204 H204       -0.5820  -24.3002  -50.4992 H         1 UNK         0.0600 
    205 H205       -2.9310  -21.2835  -49.5629 H         1 UNK         0.3000 
    206 H206       -2.9929  -20.8179  -52.5288 H         1 UNK         0.0600 
    207 H207       -0.9272  -20.0314  -51.3676 H         1 UNK         0.0600 
    208 H208       -1.8592  -18.7048  -52.0425 H         1 UNK         0.0600 
    209 H209       -1.8931  -19.0117  -50.3113 H         1 UNK         0.0600 
    210 H210       -4.1915  -19.5925  -49.3445 H         1 UNK         0.3000 
    211 H211       -6.0546  -17.7499  -50.4930 H         1 UNK         0.0600 
    212 H212       -6.1073  -19.0337  -47.7227 H         1 UNK         0.0600 
    213 H213       -6.9025  -17.5424  -48.2034 H         1 UNK         0.0600 
    214 H214       -5.1444  -17.6215  -48.1618 H         1 UNK         0.0600 
    215 H215       -8.0181  -18.0527  -51.2979 H         1 UNK         0.3000 
    216 H216       -9.8841  -18.8451  -52.0993 H         1 UNK         0.0600 
    217 H217      -10.5693  -19.3860  -49.7671 H         1 UNK         0.0600 
    218 H218       -9.8814  -21.0021  -49.9252 H         1 UNK         0.0600 
    219 H219      -11.2452  -20.5244  -50.9220 H         1 UNK         0.0600 
    220 H220       -7.4971  -21.3924  -51.5269 H         1 UNK         0.3000 
    221 H221       -8.3650  -23.1771  -53.6017 H         1 UNK         0.0600 
    222 H222       -5.6297  -22.9433  -52.2475 H         1 UNK         0.0600 
    223 H223       -7.0026  -23.8180  -51.5754 H         1 UNK         0.0600 
    224 H224       -6.2818  -24.3563  -53.0787 H         1 UNK         0.0600 
    225 H225       -6.3444  -20.3118  -53.6348 H         1 UNK         0.3000 
    226 H226       -5.4784  -19.0467  -55.1897 H         1 UNK         0.0600 
    227 H227       -7.7154  -19.1349  -56.2276 H         1 UNK         0.0600 
    228 H228       -6.4845  -19.0221  -57.4703 H         1 UNK         0.0600 
    229 H229       -7.2843  -20.5625  -57.1568 H         1 UNK         0.0600 
    230 H230       -5.4492  -20.9768  -57.9644 H         1 UNK         0.3000 
    231 H231       -2.6457  -20.9043  -58.2227 H         1 UNK         0.0600 
    232 H232       -3.1025  -22.1771  -60.3277 H         1 UNK         0.0600 
    233 H233       -4.2312  -20.8477  -60.1311 H         1 UNK         0.0600 
    234 H234       -4.7452  -22.5003  -59.7867 H         1 UNK         0.0600 
    235 H235       -4.4448  -23.1700  -56.4407 H         1 UNK         0.3000 
    236 H236       -3.1426  -25.6153  -56.8089 H         1 UNK         0.0600 
    237 H237       -5.2391  -25.2724  -55.4880 H         1 UNK         0.0600 
    238 H238       -4.0324  -26.1255  -54.5347 H         1 UNK         0.0600 
    239 H239       -4.3151  -24.4124  -54.2528 H         1 UNK         0.0600 
    240 H240       -1.9205  -22.7445  -55.1520 H         1 UNK         0.3000 
    241 H241        0.2330  -24.1378  -53.8046 H         1 UNK         0.0600 
    242 H242       -0.1043  -23.4610  -57.1727 H         1 UNK         0.3800 
    243 H243        1.6067  -23.4985  -57.5197 H         1 UNK         0.3800 
    244 H244        1.0387  -22.0048  -53.1103 H         1 UNK         0.0800 
    245 H245       -0.6673  -22.0810  -52.8310 H         1 UNK         0.0800 
    246 H246        2.2195  -20.2386  -54.2945 H         1 UNK         0.0800 
    247 H247        1.4967  -18.7995  -54.9601 H         1 UNK         0.0800 
@<TRIPOS>BOND
     1    1    2 1    
     2    1  127 1    
     3    1  128 1    
     4    1  129 1    
     5    2    3 2    
     6    2    4 am   BACKBONE|DICT|INTERRES
     7    4    5 1    
     8    4  130 1    
     9    5    6 1    
    10    5   65 1    
    11    5  131 1    
    12    6    7 1    
    13    6  132 1    
    14    6  133 1    
    15    7    8 1    
    16    8    9 1    
    17    8  134 1    
    18    8  135 1    
    19    9   10 ar   
    20    9   14 ar   
    21   10   11 ar   
    22   10  136 1    
    23   11   12 ar   
    24   11  126 1    
    25   12   13 ar   
    26   12  137 1    
    27   13   14 ar   
    28   13   15 1    
    29   14  138 1    
    30   15   16 1    
    31   15  139 1    
    32   15  140 1    
    33   16   17 1    
    34   17   18 1    
    35   17  141 1    
    36   17  142 1    
    37   18   19 1    
    38   18   67 1    
    39   18  143 1    
    40   19   20 am   BACKBONE|DICT|INTERRES
    41   19  144 1    
    42   20   21 2    
    43   20   22 1    
    44   22   23 1    
    45   22   24 1    
    46   22  145 1    
    47   23  146 1    
    48   23  147 1    
    49   23  148 1    
    50   24   25 am   BACKBONE|DICT|INTERRES
    51   24  149 1    
    52   25   26 2    
    53   25   27 1    
    54   27   28 1    
    55   27   29 1    
    56   27  150 1    
    57   28  151 1    
    58   28  152 1    
    59   28  153 1    
    60   29   30 am   BACKBONE|DICT|INTERRES
    61   29  154 1    
    62   30   31 2    
    63   30   32 1    
    64   32   33 1    
    65   32   34 1    
    66   32  155 1    
    67   33  156 1    
    68   33  157 1    
    69   33  158 1    
    70   34   35 am   BACKBONE|DICT|INTERRES
    71   34  159 1    
    72   35   36 2    
    73   35   37 1    
    74   37   38 1    
    75   37   39 1    
    76   37  160 1    
    77   38  161 1    
    78   38  162 1    
    79   38  163 1    
    80   39   40 am   BACKBONE|DICT|INTERRES
    81   39  164 1    
    82   40   41 2    
    83   40   42 1    
    84   42   43 1    
    85   42   44 1    
    86   42  165 1    
    87   43  166 1    
    88   43  167 1    
    89   43  168 1    
    90   44   45 am   BACKBONE|DICT|INTERRES
    91   44  169 1    
    92   45   46 2    
    93   45   47 1    
    94   47   48 1    
    95   47   49 1    
    96   47  170 1    
    97   48  171 1    
    98   48  172 1    
    99   48  173 1    
   100   49   50 am   BACKBONE|DICT|INTERRES
   101   49  174 1    
   102   50   51 2    
   103   50   52 1    
   104   52   53 1    
   105   52   54 1    
   106   52  175 1    
   107   53  176 1    
   108   53  177 1    
   109   53  178 1    
   110   54   55 am   BACKBONE|DICT|INTERRES
   111   54  179 1    
   112   55   56 2    
   113   55   57 1    
   114   57   58 1    
   115   57   59 1    
   116   57  180 1    
   117   58  181 1    
   118   58  182 1    
   119   58  183 1    
   120   59   60 am   BACKBONE|DICT|INTERRES
   121   59  184 1    
   122   60   61 2    
   123   60   62 1    
   124   62   63 1    
   125   62   64 1    
   126   62  185 1    
   127   63  186 1    
   128   63  187 1    
   129   63  188 1    
   130   64   65 am   BACKBONE|DICT|INTERRES
   131   64  189 1    
   132   65   66 2    
   133   67   68 2    
   134   67   69 am   BACKBONE|DICT|INTERRES
   135   69   70 1    
   136   69  190 1    
   137   70   71 1    
   138   70   72 1    
   139   70  191 1    
   140   71  192 1    
   141   71  193 1    
   142   71  194 1    
   143   72   73 2    
   144   72   74 am   BACKBONE|DICT|INTERRES
   145   74   75 1    
   146   74  195 1    
   147   75   76 1    
   148   75   77 1    
   149   75  196 1    
   150   76  197 1    
   151   76  198 1    
   152   76  199 1    
   153   77   78 2    
   154   77   79 am   BACKBONE|DICT|INTERRES
   155   79   80 1    
   156   79  200 1    
   157   80   81 1    
   158   80   82 1    
   159   80  201 1    
   160   81  202 1    
   161   81  203 1    
   162   81  204 1    
   163   82   83 2    
   164   82   84 am   BACKBONE|DICT|INTERRES
   165   84   85 1    
   166   84  205 1    
   167   85   86 1    
   168   85   87 1    
   169   85  206 1    
   170   86  207 1    
   171   86  208 1    
   172   86  209 1    
   173   87   88 2    
   174   87   89 am   BACKBONE|DICT|INTERRES
   175   89   90 1    
   176   89  210 1    
   177   90   91 1    
   178   90   92 1    
   179   90  211 1    
   180   91  212 1    
   181   91  213 1    
   182   91  214 1    
   183   92   93 2    
   184   92   94 am   BACKBONE|DICT|INTERRES
   185   94   95 1    
   186   94  215 1    
   187   95   96 1    
   188   95   97 1    
   189   95  216 1    
   190   96  217 1    
   191   96  218 1    
   192   96  219 1    
   193   97   98 2    
   194   97   99 am   BACKBONE|DICT|INTERRES
   195   99  100 1    
   196   99  220 1    
   197  100  101 1    
   198  100  102 1    
   199  100  221 1    
   200  101  222 1    
   201  101  223 1    
   202  101  224 1    
   203  102  103 2    
   204  102  104 am   BACKBONE|DICT|INTERRES
   205  104  105 1    
   206  104  225 1    
   207  105  106 1    
   208  105  107 1    
   209  105  226 1    
   210  106  227 1    
   211  106  228 1    
   212  106  229 1    
   213  107  108 2    
   214  107  109 am   BACKBONE|DICT|INTERRES
   215  109  110 1    
   216  109  230 1    
   217  110  111 1    
   218  110  112 1    
   219  110  231 1    
   220  111  232 1    
   221  111  233 1    
   222  111  234 1    
   223  112  113 2    
   224  112  114 am   BACKBONE|DICT|INTERRES
   225  114  115 1    
   226  114  235 1    
   227  115  116 1    
   228  115  117 1    
   229  115  236 1    
   230  116  237 1    
   231  116  238 1    
   232  116  239 1    
   233  117  118 2    
   234  117  119 am   BACKBONE|DICT|INTERRES
   235  119  120 1    
   236  119  240 1    
   237  120  121 1    
   238  120  124 1    
   239  120  241 1    
   240  121  122 am   BACKBONE|DICT|INTERRES
   241  121  123 2    
   242  122  242 1    
   243  122  243 1    
   244  124  125 1    
   245  124  244 1    
   246  124  245 1    
   247  125  126 1    
   248  126  246 1    
   249  126  247 1    
@<TRIPOS>SUBSTRUCTURE
     1 UNK         1 GROUP             0       ****    0 ROOT    
