@<TRIPOS>MOLECULE
3R540
247   249    1
SMALL
USER_CHARGES


@<TRIPOS>ATOM
      1 CA         -3.2475  -15.0537  -50.0898 C.3       0 UNK        -0.1800 
      2 C          -1.8426  -14.4689  -50.0147 C.2       0 UNK         0.5000 
      3 O          -1.4667  -13.6612  -50.8635 O.2       0 UNK        -0.5000 
      4 N          -1.0666  -14.8819  -49.0058 N.am      1 UNK        -0.5000 
      5 CA          0.2932  -14.4092  -48.7459 C.3       1 UNK         0.1400 
      6 C6          1.0764  -15.4297  -47.8852 C.3       23 UNK        -0.0398 
      7 S7          2.8533  -15.0707  -47.6726 S.3       23 UNK        -0.2404 
      8 C8          3.5188  -15.1783  -49.3683 C.3       23 UNK        -0.0205 
      9 C9          3.1294  -16.4549  -50.1029 C.ar      23 UNK        -0.0193 
     10 C10         2.5404  -16.3806  -51.3677 C.ar      23 UNK        -0.1150 
     11 C11         2.2027  -17.5424  -52.0715 C.ar      23 UNK        -0.0193 
     12 C12         2.4499  -18.7889  -51.4849 C.ar      23 UNK        -0.1150 
     13 C13         3.0535  -18.8803  -50.2261 C.ar      23 UNK        -0.0193 
     14 C14         3.3965  -17.7078  -49.5459 C.ar      23 UNK        -0.1150 
     15 C15         3.4093  -20.2405  -49.6365 C.3       23 UNK        -0.0205 
     16 S16         2.7947  -20.4626  -47.9352 S.3       23 UNK        -0.2404 
     17 C17         1.0536  -20.9265  -48.2093 C.3       23 UNK        -0.0398 
     18 CA          0.6811  -22.1915  -47.3993 C.3       11 UNK         0.1400 
     19 N           0.6474  -21.9325  -45.9583 N.am      11 UNK        -0.5000 
     20 C           0.6423  -22.8866  -45.0183 C.2       10 UNK         0.5000 
     21 O           0.7395  -24.0895  -45.2622 O.2       10 UNK        -0.5000 
     22 CA          0.4557  -22.4218  -43.5630 C.3       10 UNK         0.1400 
     23 CB          1.7864  -21.9372  -42.9683 C.3       10 UNK        -0.1800 
     24 N          -0.5588  -21.3741  -43.4296 N.am      10 UNK        -0.5000 
     25 C          -1.8575  -21.5356  -43.7231 C.2       9 UNK         0.5000 
     26 O          -2.3437  -22.5993  -44.1099 O.2       9 UNK        -0.5000 
     27 CA         -2.7599  -20.2942  -43.5972 C.3       9 UNK         0.1400 
     28 CB         -3.1589  -20.0584  -42.1330 C.3       9 UNK        -0.1800 
     29 N          -2.1476  -19.0810  -44.1403 N.am      9 UNK        -0.5000 
     30 C          -1.8163  -18.8996  -45.4263 C.2       8 UNK         0.5000 
     31 O          -2.0097  -19.7304  -46.3106 O.2       8 UNK        -0.5000 
     32 CA         -1.0928  -17.5912  -45.7831 C.3       8 UNK         0.1400 
     33 CB         -2.0839  -16.4198  -45.8711 C.3       8 UNK        -0.1800 
     34 N          -0.0130  -17.2753  -44.8497 N.am      8 UNK        -0.5000 
     35 C           1.0486  -18.0665  -44.6305 C.2       7 UNK         0.5000 
     36 O           1.2454  -19.1291  -45.2185 O.2       7 UNK        -0.5000 
     37 CA          2.0116  -17.6307  -43.5152 C.3       7 UNK         0.1400 
     38 CB          2.9780  -16.5426  -44.0106 C.3       7 UNK        -0.1800 
     39 N           1.2844  -17.1625  -42.3344 N.am      7 UNK        -0.5000 
     40 C           0.5362  -17.9519  -41.5483 C.2       6 UNK         0.5000 
     41 O           0.4287  -19.1681  -41.7022 O.2       6 UNK        -0.5000 
     42 CA         -0.2652  -17.2563  -40.4330 C.3       6 UNK         0.1400 
     43 CB          0.6181  -17.0152  -39.1998 C.3       6 UNK        -0.1800 
     44 N          -0.8431  -15.9858  -40.8724 N.am      6 UNK        -0.5000 
     45 C          -1.7969  -15.8661  -41.8079 C.2       5 UNK         0.5000 
     46 O          -2.3393  -16.8249  -42.3545 O.2       5 UNK        -0.5000 
     47 CA         -2.1647  -14.4341  -42.2421 C.3       5 UNK         0.1400 
     48 CB         -3.2943  -13.8759  -41.3643 C.3       5 UNK        -0.1800 
     49 N          -1.0163  -13.5247  -42.1977 N.am      5 UNK        -0.5000 
     50 C           0.0596  -13.6347  -42.9869 C.2       4 UNK         0.5000 
     51 O           0.1710  -14.4747  -43.8843 O.2       4 UNK        -0.5000 
     52 CA          1.2387  -12.7149  -42.6534 C.3       4 UNK         0.1400 
     53 CB          2.0802  -13.3457  -41.5234 C.3       4 UNK        -0.1800 
     54 N           2.0451  -12.5230  -43.8539 N.am      4 UNK        -0.5000 
     55 C           3.0660  -11.6672  -43.9805 C.2       3 UNK         0.5000 
     56 O           3.4486  -10.9128  -43.0850 O.2       3 UNK        -0.5000 
     57 CA          3.7743  -11.6368  -45.3459 C.3       3 UNK         0.1400 
     58 CB          4.7460  -12.8202  -45.4761 C.3       3 UNK        -0.1800 
     59 N           2.8446  -11.6315  -46.4779 N.am      3 UNK        -0.5000 
     60 C           2.0264  -10.6114  -46.7813 C.2       2 UNK         0.5000 
     61 O           1.9397   -9.5850  -46.1061 O.2       2 UNK        -0.5000 
     62 CA          1.1846  -10.7274  -48.0677 C.3       2 UNK         0.1400 
     63 CB          1.7777   -9.8416  -49.1749 C.3       2 UNK        -0.1800 
     64 N           1.0769  -12.0956  -48.5745 N.am      2 UNK        -0.5000 
     65 C           0.2424  -13.0188  -48.0832 C.2       1 UNK         0.5000 
     66 O          -0.5272  -12.8171  -47.1413 O.2       1 UNK        -0.5000 
     67 C          -0.6422  -22.8132  -47.8912 C.2       11 UNK         0.5000 
     68 O          -0.6046  -23.7446  -48.6942 O.2       11 UNK        -0.5000 
     69 N          -1.7851  -22.3177  -47.3910 N.am      12 UNK        -0.5000 
     70 CA         -3.1242  -22.7809  -47.7604 C.3       12 UNK         0.1400 
     71 CB         -4.1997  -21.8842  -47.1295 C.3       12 UNK        -0.1800 
     72 C          -3.3971  -24.2476  -47.4107 C.2       12 UNK         0.5000 
     73 O          -4.0671  -24.9321  -48.1835 O.2       12 UNK        -0.5000 
     74 N          -2.8379  -24.7200  -46.2896 N.am      13 UNK        -0.5000 
     75 CA         -2.9507  -26.0962  -45.7970 C.3       13 UNK         0.1400 
     76 CB         -2.1947  -26.2056  -44.4643 C.3       13 UNK        -0.1800 
     77 C          -2.4681  -27.1829  -46.7839 C.2       13 UNK         0.5000 
     78 O          -2.8600  -28.3414  -46.6396 O.2       13 UNK        -0.5000 
     79 N          -1.6469  -26.7992  -47.7712 N.am      14 UNK        -0.5000 
     80 CA         -1.1509  -27.6747  -48.8292 C.3       14 UNK         0.1400 
     81 CB          0.0899  -27.0265  -49.4632 C.3       14 UNK        -0.1800 
     82 C          -2.1933  -28.0006  -49.9195 C.2       14 UNK         0.5000 
     83 O          -2.0059  -28.9962  -50.6211 O.2       14 UNK        -0.5000 
     84 N          -3.2389  -27.1721  -50.0803 N.am      15 UNK        -0.5000 
     85 CA         -4.1830  -27.2827  -51.2025 C.3       15 UNK         0.1400 
     86 CB         -3.6682  -26.4308  -52.3759 C.3       15 UNK        -0.1800 
     87 C          -5.6427  -26.9210  -50.8685 C.2       15 UNK         0.5000 
     88 O          -6.5157  -27.1986  -51.6919 O.2       15 UNK        -0.5000 
     89 N          -5.8963  -26.3146  -49.6999 N.am      16 UNK        -0.5000 
     90 CA         -7.1922  -25.8113  -49.2262 C.3       16 UNK         0.1400 
     91 CB         -8.2075  -26.9576  -49.0306 C.3       16 UNK        -0.1800 
     92 C          -7.7307  -24.6490  -50.0901 C.2       16 UNK         0.5000 
     93 O          -8.9235  -24.5945  -50.3956 O.2       16 UNK        -0.5000 
     94 N          -6.8302  -23.7312  -50.4563 N.am      17 UNK        -0.5000 
     95 CA         -7.1003  -22.4939  -51.1831 C.3       17 UNK         0.1400 
     96 CB         -6.9049  -22.7306  -52.6892 C.3       17 UNK        -0.1800 
     97 C          -6.1262  -21.4286  -50.6642 C.2       17 UNK         0.5000 
     98 O          -5.0483  -21.7964  -50.1955 O.2       17 UNK        -0.5000 
     99 N          -6.5022  -20.1456  -50.7658 N.am      18 UNK        -0.5000 
    100 CA        -5.7871  -18.9732  -50.2384 C.3       18 UNK         0.1400 
    101 CB        -6.5180  -17.6990  -50.6922 C.3       18 UNK        -0.1800 
    102 C         -4.2977  -18.9222  -50.6345 C.2       18 UNK         0.5000 
    103 O         -3.9796  -18.5807  -51.7745 O.2       18 UNK        -0.5000 
    104 N         -3.4276  -19.3305  -49.6997 N.am      19 UNK        -0.5000 
    105 CA        -1.9823  -19.5282  -49.8562 C.3       19 UNK         0.1400 
    106 CB        -1.2490  -18.1765  -49.8671 C.3       19 UNK        -0.1800 
    107 C         -1.6058  -20.4592  -51.0309 C.2       19 UNK         0.5000 
    108 O         -0.6303  -20.2077  -51.7367 O.2       19 UNK        -0.5000 
    109 N         -2.4122  -21.5146  -51.2106 N.am      20 UNK        -0.5000 
    110 CA        -2.3781  -22.4932  -52.2989 C.3       20 UNK         0.1400 
    111 CB        -1.0584  -23.2923  -52.3172 C.3       20 UNK        -0.1800 
    112 C         -2.7512  -21.8658  -53.6565 C.2       20 UNK         0.5000 
    113 O         -2.1066  -22.1410  -54.6696 O.2       20 UNK        -0.5000 
    114 N         -3.8071  -21.0381  -53.6310 N.am      21 UNK        -0.5000 
    115 CA        -4.3800  -20.2775  -54.7459 C.3       21 UNK         0.1400 
    116 CB        -4.9507  -21.2181  -55.8285 C.3       21 UNK        -0.1800 
    117 C         -3.3927  -19.2299  -55.2977 C.2       21 UNK         0.5000 
    118 O         -3.1725  -19.1502  -56.5081 O.2       21 UNK        -0.5000 
    119 N         -2.8047  -18.4538  -54.3811 N.am      22 UNK        -0.5000 
    120 CA        -1.8896  -17.3470  -54.6773 C.3       22 UNK         0.1400 
    121 C         -2.6244  -16.1358  -55.3199 C.2       22 UNK         0.5000 
    122 N         -2.0195  -15.4810  -56.3017 N.am      22 UNK        -0.7600 
    123 O         -3.7257  -15.7670  -54.9174 O.2       22 UNK        -0.5000 
    124 C124       -1.1043  -16.9376  -53.4067 C.3       23 UNK        -0.0398 
    125 S125        0.4764  -16.1216  -53.7986 S.3       23 UNK        -0.2404 
    126 C126        1.6718  -17.4701  -53.5024 C.3       23 UNK        -0.0205 
    127 H127       -3.4296  -15.7790  -49.2964 H         1 UNK         0.0600 
    128 H128       -3.3965  -15.5564  -51.0457 H         1 UNK         0.0600 
    129 H129       -3.9897  -14.2604  -50.0026 H         1 UNK         0.0600 
    130 H130       -1.4585  -15.4906  -48.3052 H         1 UNK         0.3000 
    131 H131        0.7970  -14.3223  -49.7104 H         1 UNK         0.0600 
    132 H132        0.6444  -15.4893  -46.8866 H         1 UNK         0.0800 
    133 H133        0.9833  -16.4296  -48.3109 H         1 UNK         0.0800 
    134 H134        3.2041  -14.2970  -49.9282 H         1 UNK         0.0800 
    135 H135        4.6071  -15.1271  -49.3156 H         1 UNK         0.0800 
    136 H136        2.3706  -15.4136  -51.8190 H         1 UNK         0.1150 
    137 H137        2.2049  -19.6916  -52.0272 H         1 UNK         0.1150 
    138 H138        3.8781  -17.7699  -48.5800 H         1 UNK         0.1150 
    139 H139        3.0478  -21.0537  -50.2678 H         1 UNK         0.0800 
    140 H140        4.4963  -20.3291  -49.6222 H         1 UNK         0.0800 
    141 H141        0.8929  -21.0858  -49.2771 H         1 UNK         0.0800 
    142 H142        0.4278  -20.0812  -47.9207 H         1 UNK         0.0800 
    143 H143        1.4551  -22.9408  -47.5812 H         1 UNK         0.0600 
    144 H144        0.6371  -20.9577  -45.6709 H         1 UNK         0.3000 
    145 H145        0.1195  -23.2833  -42.9822 H         1 UNK         0.0600 
    146 H146        1.6784  -21.6883  -41.9125 H         1 UNK         0.0600 
    147 H147        2.5524  -22.7098  -43.0437 H         1 UNK         0.0600 
    148 H148        2.1602  -21.0524  -43.4840 H         1 UNK         0.0600 
    149 H149       -0.2419  -20.4772  -43.0750 H         1 UNK         0.3000 
    150 H150       -3.6709  -20.4866  -44.1664 H         1 UNK         0.0600 
    151 H151       -3.6338  -20.9442  -41.7093 H         1 UNK         0.0600 
    152 H152       -3.8687  -19.2356  -42.0463 H         1 UNK         0.0600 
    153 H153       -2.2943  -19.8197  -41.5131 H         1 UNK         0.0600 
    154 H154       -1.9968  -18.3182  -43.4856 H         1 UNK         0.3000 
    155 H155       -0.6334  -17.7281  -46.7626 H         1 UNK         0.0600 
    156 H156       -2.6437  -16.2952  -44.9450 H         1 UNK         0.0600 
    157 H157       -1.5800  -15.4756  -46.0765 H         1 UNK         0.0600 
    158 H158       -2.8111  -16.5870  -46.6664 H         1 UNK         0.0600 
    159 H159       -0.0792  -16.3963  -44.3462 H         1 UNK         0.3000 
    160 H160        2.6038  -18.5013  -43.2255 H         1 UNK         0.0600 
    161 H161        2.4549  -15.6422  -44.3308 H         1 UNK         0.0600 
    162 H162        3.5562  -16.8990  -44.8642 H         1 UNK         0.0600 
    163 H163        3.6878  -16.2598  -43.2333 H         1 UNK         0.0600 
    164 H164        1.2815  -16.1687  -42.1673 H         1 UNK         0.3000 
    165 H165       -1.0828  -17.9204  -40.1448 H         1 UNK         0.0600 
    166 H166        0.0405  -16.5909  -38.3784 H         1 UNK         0.0600 
    167 H167        1.0511  -17.9503  -38.8420 H         1 UNK         0.0600 
    168 H168        1.4418  -16.3343  -39.4184 H         1 UNK         0.0600 
    169 H169       -0.4640  -15.1459  -40.4621 H         1 UNK         0.3000 
    170 H170       -2.5225  -14.4792  -43.2727 H         1 UNK         0.0600 
    171 H171       -4.1700  -14.5256  -41.3969 H         1 UNK         0.0600 
    172 H172       -2.9896  -13.7876  -40.3207 H         1 UNK         0.0600 
    173 H173       -3.6097  -12.8903  -41.7073 H         1 UNK         0.0600 
    174 H174       -1.0334  -12.8115  -41.4826 H         1 UNK         0.3000 
    175 H175        0.8499  -11.7466  -42.3321 H         1 UNK         0.0600 
    176 H176        2.5490  -14.2766  -41.8438 H         1 UNK         0.0600 
    177 H177        2.8715  -12.6759  -41.1880 H         1 UNK         0.0600 
    178 H178        1.4679  -13.5687  -40.6490 H         1 UNK         0.0600 
    179 H179        1.7638  -13.0944  -44.6408 H         1 UNK         0.3000 
    180 H180        4.3607  -10.7167  -45.3955 H         1 UNK         0.0600 
    181 H181        4.2336  -13.7780  -45.3824 H         1 UNK         0.0600 
    182 H182        5.5073  -12.7834  -44.6959 H         1 UNK         0.0600 
    183 H183        5.2633  -12.8069  -46.4356 H         1 UNK         0.0600 
    184 H184        2.8521  -12.4426  -47.0788 H         1 UNK         0.3000 
    185 H185        0.1832  -10.3567  -47.8379 H         1 UNK         0.0600 
    186 H186        1.8428   -8.8016  -48.8520 H         1 UNK         0.0600 
    187 H187        2.7826  -10.1621  -49.4527 H         1 UNK         0.0600 
    188 H188        1.1577   -9.8624  -50.0715 H         1 UNK         0.0600 
    189 H189        1.6713  -12.3298  -49.3562 H         1 UNK         0.3000 
    190 H190       -1.7466  -21.5210  -46.7600 H         1 UNK         0.3000 
    191 H191       -3.1917  -22.7049  -48.8433 H         1 UNK         0.0600 
    192 H192       -4.1515  -21.9044  -46.0416 H         1 UNK         0.0600 
    193 H193       -5.1992  -22.2133  -47.4173 H         1 UNK         0.0600 
    194 H194       -4.1004  -20.8500  -47.4514 H         1 UNK         0.0600 
    195 H195       -2.3367  -24.0671  -45.6973 H         1 UNK         0.3000 
    196 H196       -4.0089  -26.2851  -45.6064 H         1 UNK         0.0600 
    197 H197       -2.2963  -27.2034  -44.0356 H         1 UNK         0.0600 
    198 H198       -2.5804  -25.4965  -43.7314 H         1 UNK         0.0600 
    199 H199       -1.1297  -26.0092  -44.5917 H         1 UNK         0.0600 
    200 H200       -1.3768  -25.8253  -47.8271 H         1 UNK         0.3000 
    201 H201       -0.8430  -28.6195  -48.3762 H         1 UNK         0.0600 
    202 H202        0.8509  -26.8087  -48.7135 H         1 UNK         0.0600 
    203 H203       -0.1594  -26.0933  -49.9699 H         1 UNK         0.0600 
    204 H204        0.5421  -27.6885  -50.2027 H         1 UNK         0.0600 
    205 H205       -3.3414  -26.3798  -49.4567 H         1 UNK         0.3000 
    206 H206       -4.2251  -28.3214  -51.5369 H         1 UNK         0.0600 
    207 H207       -2.6779  -26.7532  -52.6979 H         1 UNK         0.0600 
    208 H208       -4.3293  -26.5037  -53.2403 H         1 UNK         0.0600 
    209 H209       -3.6056  -25.3812  -52.0974 H         1 UNK         0.0600 
    210 H210       -5.1147  -26.0538  -49.1042 H         1 UNK         0.3000 
    211 H211       -7.0002  -25.3828  -48.2414 H         1 UNK         0.0600 
    212 H212       -8.5150  -27.3989  -49.9788 H         1 UNK         0.0600 
    213 H213       -9.1089  -26.5973  -48.5336 H         1 UNK         0.0600 
    214 H214       -7.7909  -27.7509  -48.4100 H         1 UNK         0.0600 
    215 H215       -5.8799  -23.8091  -50.1157 H         1 UNK         0.3000 
    216 H216       -8.1210  -22.1585  -50.9876 H         1 UNK         0.0600 
    217 H217       -5.8948  -23.0749  -52.9149 H         1 UNK         0.0600 
    218 H218       -7.0784  -21.8158  -53.2570 H         1 UNK         0.0600 
    219 H219       -7.6020  -23.4814  -53.0617 H         1 UNK         0.0600 
    220 H220       -7.3935  -19.9467  -51.1964 H         1 UNK         0.3000 
    221 H221       -5.8484  -19.0195  -49.1493 H         1 UNK         0.0600 
    222 H222       -6.5597  -17.6240  -51.7797 H         1 UNK         0.0600 
    223 H223       -7.5403  -17.6734  -50.3146 H         1 UNK         0.0600 
    224 H224       -6.0138  -16.8054  -50.3217 H         1 UNK         0.0600 
    225 H225       -3.8006  -19.6235  -48.8083 H         1 UNK         0.3000 
    226 H226       -1.6615  -20.0557  -48.9610 H         1 UNK         0.0600 
    227 H227       -1.4240  -17.6454  -48.9347 H         1 UNK         0.0600 
    228 H228       -0.1704  -18.3005  -49.9726 H         1 UNK         0.0600 
    229 H229       -1.5944  -17.5381  -50.6763 H         1 UNK         0.0600 
    230 H230       -3.2275  -21.5885  -50.6072 H         1 UNK         0.3000 
    231 H231       -3.1797  -23.1947  -52.0729 H         1 UNK         0.0600 
    232 H232       -0.2044  -22.6671  -52.5781 H         1 UNK         0.0600 
    233 H233       -1.1047  -24.1012  -53.0470 H         1 UNK         0.0600 
    234 H234       -0.8598  -23.7465  -51.3473 H         1 UNK         0.0600 
    235 H235       -4.1991  -20.8233  -52.7259 H         1 UNK         0.3000 
    236 H236       -5.2173  -19.7149  -54.3299 H         1 UNK         0.0600 
    237 H237       -5.4893  -20.6519  -56.5891 H         1 UNK         0.0600 
    238 H238       -4.1664  -21.7795  -56.3367 H         1 UNK         0.0600 
    239 H239       -5.6517  -21.9347  -55.4015 H         1 UNK         0.0600 
    240 H240       -3.1034  -18.5439  -53.4126 H         1 UNK         0.3000 
    241 H241       -1.1730  -17.7333  -55.4053 H         1 UNK         0.0600 
    242 H242       -2.4799  -14.6875  -56.7198 H         1 UNK         0.3800 
    243 H243       -1.1051  -15.7519  -56.6295 H         1 UNK         0.3800 
    244 H244       -1.6985  -16.2841  -52.7661 H         1 UNK         0.0800 
    245 H245       -0.8798  -17.8206  -52.8100 H         1 UNK         0.0800 
    246 H246        2.5245  -17.3179  -54.1649 H         1 UNK         0.0800 
    247 H247        1.2248  -18.4210  -53.7980 H         1 UNK         0.0800 
@<TRIPOS>BOND
     1    1    2 1    
     2    1  127 1    
     3    1  128 1    
     4    1  129 1    
     5    2    3 2    
     6    2    4 am   BACKBONE|DICT|INTERRES
     7    4    5 1    
     8    4  130 1    
     9    5    6 1    
    10    5   65 1    
    11    5  131 1    
    12    6    7 1    
    13    6  132 1    
    14    6  133 1    
    15    7    8 1    
    16    8    9 1    
    17    8  134 1    
    18    8  135 1    
    19    9   10 ar   
    20    9   14 ar   
    21   10   11 ar   
    22   10  136 1    
    23   11   12 ar   
    24   11  126 1    
    25   12   13 ar   
    26   12  137 1    
    27   13   14 ar   
    28   13   15 1    
    29   14  138 1    
    30   15   16 1    
    31   15  139 1    
    32   15  140 1    
    33   16   17 1    
    34   17   18 1    
    35   17  141 1    
    36   17  142 1    
    37   18   19 1    
    38   18   67 1    
    39   18  143 1    
    40   19   20 am   BACKBONE|DICT|INTERRES
    41   19  144 1    
    42   20   21 2    
    43   20   22 1    
    44   22   23 1    
    45   22   24 1    
    46   22  145 1    
    47   23  146 1    
    48   23  147 1    
    49   23  148 1    
    50   24   25 am   BACKBONE|DICT|INTERRES
    51   24  149 1    
    52   25   26 2    
    53   25   27 1    
    54   27   28 1    
    55   27   29 1    
    56   27  150 1    
    57   28  151 1    
    58   28  152 1    
    59   28  153 1    
    60   29   30 am   BACKBONE|DICT|INTERRES
    61   29  154 1    
    62   30   31 2    
    63   30   32 1    
    64   32   33 1    
    65   32   34 1    
    66   32  155 1    
    67   33  156 1    
    68   33  157 1    
    69   33  158 1    
    70   34   35 am   BACKBONE|DICT|INTERRES
    71   34  159 1    
    72   35   36 2    
    73   35   37 1    
    74   37   38 1    
    75   37   39 1    
    76   37  160 1    
    77   38  161 1    
    78   38  162 1    
    79   38  163 1    
    80   39   40 am   BACKBONE|DICT|INTERRES
    81   39  164 1    
    82   40   41 2    
    83   40   42 1    
    84   42   43 1    
    85   42   44 1    
    86   42  165 1    
    87   43  166 1    
    88   43  167 1    
    89   43  168 1    
    90   44   45 am   BACKBONE|DICT|INTERRES
    91   44  169 1    
    92   45   46 2    
    93   45   47 1    
    94   47   48 1    
    95   47   49 1    
    96   47  170 1    
    97   48  171 1    
    98   48  172 1    
    99   48  173 1    
   100   49   50 am   BACKBONE|DICT|INTERRES
   101   49  174 1    
   102   50   51 2    
   103   50   52 1    
   104   52   53 1    
   105   52   54 1    
   106   52  175 1    
   107   53  176 1    
   108   53  177 1    
   109   53  178 1    
   110   54   55 am   BACKBONE|DICT|INTERRES
   111   54  179 1    
   112   55   56 2    
   113   55   57 1    
   114   57   58 1    
   115   57   59 1    
   116   57  180 1    
   117   58  181 1    
   118   58  182 1    
   119   58  183 1    
   120   59   60 am   BACKBONE|DICT|INTERRES
   121   59  184 1    
   122   60   61 2    
   123   60   62 1    
   124   62   63 1    
   125   62   64 1    
   126   62  185 1    
   127   63  186 1    
   128   63  187 1    
   129   63  188 1    
   130   64   65 am   BACKBONE|DICT|INTERRES
   131   64  189 1    
   132   65   66 2    
   133   67   68 2    
   134   67   69 am   BACKBONE|DICT|INTERRES
   135   69   70 1    
   136   69  190 1    
   137   70   71 1    
   138   70   72 1    
   139   70  191 1    
   140   71  192 1    
   141   71  193 1    
   142   71  194 1    
   143   72   73 2    
   144   72   74 am   BACKBONE|DICT|INTERRES
   145   74   75 1    
   146   74  195 1    
   147   75   76 1    
   148   75   77 1    
   149   75  196 1    
   150   76  197 1    
   151   76  198 1    
   152   76  199 1    
   153   77   78 2    
   154   77   79 am   BACKBONE|DICT|INTERRES
   155   79   80 1    
   156   79  200 1    
   157   80   81 1    
   158   80   82 1    
   159   80  201 1    
   160   81  202 1    
   161   81  203 1    
   162   81  204 1    
   163   82   83 2    
   164   82   84 am   BACKBONE|DICT|INTERRES
   165   84   85 1    
   166   84  205 1    
   167   85   86 1    
   168   85   87 1    
   169   85  206 1    
   170   86  207 1    
   171   86  208 1    
   172   86  209 1    
   173   87   88 2    
   174   87   89 am   BACKBONE|DICT|INTERRES
   175   89   90 1    
   176   89  210 1    
   177   90   91 1    
   178   90   92 1    
   179   90  211 1    
   180   91  212 1    
   181   91  213 1    
   182   91  214 1    
   183   92   93 2    
   184   92   94 am   BACKBONE|DICT|INTERRES
   185   94   95 1    
   186   94  215 1    
   187   95   96 1    
   188   95   97 1    
   189   95  216 1    
   190   96  217 1    
   191   96  218 1    
   192   96  219 1    
   193   97   98 2    
   194   97   99 am   BACKBONE|DICT|INTERRES
   195   99  100 1    
   196   99  220 1    
   197  100  101 1    
   198  100  102 1    
   199  100  221 1    
   200  101  222 1    
   201  101  223 1    
   202  101  224 1    
   203  102  103 2    
   204  102  104 am   BACKBONE|DICT|INTERRES
   205  104  105 1    
   206  104  225 1    
   207  105  106 1    
   208  105  107 1    
   209  105  226 1    
   210  106  227 1    
   211  106  228 1    
   212  106  229 1    
   213  107  108 2    
   214  107  109 am   BACKBONE|DICT|INTERRES
   215  109  110 1    
   216  109  230 1    
   217  110  111 1    
   218  110  112 1    
   219  110  231 1    
   220  111  232 1    
   221  111  233 1    
   222  111  234 1    
   223  112  113 2    
   224  112  114 am   BACKBONE|DICT|INTERRES
   225  114  115 1    
   226  114  235 1    
   227  115  116 1    
   228  115  117 1    
   229  115  236 1    
   230  116  237 1    
   231  116  238 1    
   232  116  239 1    
   233  117  118 2    
   234  117  119 am   BACKBONE|DICT|INTERRES
   235  119  120 1    
   236  119  240 1    
   237  120  121 1    
   238  120  124 1    
   239  120  241 1    
   240  121  122 am   BACKBONE|DICT|INTERRES
   241  121  123 2    
   242  122  242 1    
   243  122  243 1    
   244  124  125 1    
   245  124  244 1    
   246  124  245 1    
   247  125  126 1    
   248  126  246 1    
   249  126  247 1    
@<TRIPOS>SUBSTRUCTURE
     1 UNK         1 GROUP             0       ****    0 ROOT    
