@<TRIPOS>MOLECULE
3R540
247   249    1
SMALL
USER_CHARGES


@<TRIPOS>ATOM
      1 CA          4.0626   -9.8540  -47.3621 C.3       0 UNK        -0.1800 
      2 C           3.7351  -11.2815  -46.9518 C.2       0 UNK         0.5000 
      3 O           3.7537  -11.5905  -45.7592 O.2       0 UNK        -0.5000 
      4 N           3.4211  -12.1420  -47.9330 N.am      1 UNK        -0.5000 
      5 CA          3.1252  -13.5791  -47.8006 C.3       1 UNK         0.1400 
      6 C6          2.6161  -14.1908  -49.1287 C.3       23 UNK        -0.0398 
      7 S7          3.7586  -13.9899  -50.5415 S.3       23 UNK        -0.2404 
      8 C8          4.4911  -15.6507  -50.7380 C.3       23 UNK        -0.0205 
      9 C9          3.4495  -16.7599  -50.8172 C.ar      23 UNK        -0.0193 
     10 C10         2.5995  -16.8741  -51.9231 C.ar      23 UNK        -0.1150 
     11 C11         1.6230  -17.8761  -51.9649 C.ar      23 UNK        -0.0193 
     12 C12         1.5099  -18.7648  -50.8920 C.ar      23 UNK        -0.1150 
     13 C13         2.3476  -18.6599  -49.7812 C.ar      23 UNK        -0.0193 
     14 C14         3.3251  -17.6646  -49.7594 C.ar      23 UNK        -0.1150 
     15 C15         2.2041  -19.6137  -48.6047 C.3       23 UNK        -0.0205 
     16 S16         1.1695  -18.9094  -47.2810 S.3       23 UNK        -0.2404 
     17 C17        -0.5081  -19.3864  -47.8131 C.3       23 UNK        -0.0398 
     18 CA         -0.9304  -20.7625  -47.2459 C.3       11 UNK         0.1400 
     19 N          -0.8616  -20.8158  -45.7777 N.am      11 UNK        -0.5000 
     20 C          -1.0900  -21.8963  -45.0153 C.2       10 UNK         0.5000 
     21 O          -1.4813  -22.9794  -45.4523 O.2       10 UNK        -0.5000 
     22 CA         -0.8960  -21.7161  -43.5029 C.3       10 UNK         0.1400 
     23 CB          0.5824  -21.4884  -43.1500 C.3       10 UNK        -0.1800 
     24 N          -1.7113  -20.6050  -43.0179 N.am      10 UNK        -0.5000 
     25 C          -3.0359  -20.6928  -42.8209 C.2       9 UNK         0.5000 
     26 O          -3.6670  -21.7467  -42.9049 O.2       9 UNK        -0.5000 
     27 CA         -3.8003  -19.3941  -42.4950 C.3       9 UNK         0.1400 
     28 CB         -3.9653  -19.2353  -40.9760 C.3       9 UNK        -0.1800 
     29 N          -3.1769  -18.1848  -43.0312 N.am      9 UNK        -0.5000 
     30 C          -2.9660  -17.9229  -44.3288 C.2       8 UNK         0.5000 
     31 O          -3.3100  -18.6676  -45.2453 O.2       8 UNK        -0.5000 
     32 CA         -2.2012  -16.6258  -44.6536 C.3       8 UNK         0.1400 
     33 CB         -3.2006  -15.4845  -44.8979 C.3       8 UNK        -0.1800 
     34 N          -1.2446  -16.2182  -43.6169 N.am      8 UNK        -0.5000 
     35 C          -0.2409  -16.9694  -43.1416 C.2       7 UNK         0.5000 
     36 O          -0.0191  -18.1188  -43.5270 O.2       7 UNK        -0.5000 
     37 CA          0.6077  -16.3145  -42.0325 C.3       7 UNK         0.1400 
     38 CB         -0.1820  -16.1933  -40.7139 C.3       7 UNK        -0.1800 
     39 N           1.9073  -16.9522  -41.8226 N.am      7 UNK        -0.5000 
     40 C           2.1888  -18.1653  -41.3257 C.2       6 UNK         0.5000 
     41 O           1.3566  -18.9298  -40.8346 O.2       6 UNK        -0.5000 
     42 CA          3.6807  -18.5666  -41.3744 C.3       6 UNK         0.1400 
     43 CB          3.8988  -20.0936  -41.3186 C.3       6 UNK        -0.1800 
     44 N           4.3929  -17.9669  -42.5132 N.am      6 UNK        -0.5000 
     45 C           4.1551  -18.1730  -43.8180 C.2       5 UNK         0.5000 
     46 O           3.3427  -18.9921  -44.2457 O.2       5 UNK        -0.5000 
     47 CA          4.9552  -17.2934  -44.7991 C.3       5 UNK         0.1400 
     48 CB          4.5059  -17.4555  -46.2589 C.3       5 UNK        -0.1800 
     49 N           4.8897  -15.8724  -44.4449 N.am      5 UNK        -0.5000 
     50 C           5.7517  -15.2653  -43.6200 C.2       4 UNK         0.5000 
     51 O           6.6048  -15.8719  -42.9708 O.2       4 UNK        -0.5000 
     52 CA          5.6605  -13.7357  -43.4942 C.3       4 UNK         0.1400 
     53 CB          6.4692  -13.0648  -44.6153 C.3       4 UNK        -0.1800 
     54 N           4.3002  -13.1977  -43.4986 N.am      4 UNK        -0.5000 
     55 C           3.4072  -13.3765  -42.5152 C.2       3 UNK         0.5000 
     56 O           3.5626  -14.1717  -41.5882 O.2       3 UNK        -0.5000 
     57 CA          2.1340  -12.5164  -42.5663 C.3       3 UNK         0.1400 
     58 CB          2.4468  -11.0596  -42.1892 C.3       3 UNK        -0.1800 
     59 N           1.5413  -12.5511  -43.8993 N.am      3 UNK        -0.5000 
     60 C           0.3250  -13.0311  -44.1852 C.2       2 UNK         0.5000 
     61 O          -0.4900  -13.3892  -43.3333 O.2       2 UNK        -0.5000 
     62 CA         -0.0607  -13.1597  -45.6717 C.3       2 UNK         0.1400 
     63 CB         -1.1169  -12.1087  -46.0467 C.3       2 UNK        -0.1800 
     64 N           1.0544  -13.0598  -46.6122 N.am      2 UNK        -0.5000 
     65 C           2.0981  -13.8975  -46.6953 C.2       1 UNK         0.5000 
     66 O           2.2884  -14.8479  -45.9363 O.2       1 UNK        -0.5000 
     67 C          -2.3035  -21.1772  -47.8106 C.2       11 UNK         0.5000 
     68 O          -2.3538  -21.7840  -48.8825 O.2       11 UNK        -0.5000 
     69 N          -3.3766  -20.8971  -47.0558 N.am      12 UNK        -0.5000 
     70 CA         -4.7584  -21.3134  -47.3026 C.3       12 UNK         0.1400 
     71 CB         -5.6189  -20.9343  -46.0878 C.3       12 UNK        -0.1800 
     72 C          -4.9189  -22.8107  -47.6203 C.2       12 UNK         0.5000 
     73 O          -5.7108  -23.1526  -48.5002 O.2       12 UNK        -0.5000 
     74 N          -4.1400  -23.6504  -46.9261 N.am      13 UNK        -0.5000 
     75 CA         -4.0840  -25.0940  -47.1243 C.3       13 UNK         0.1400 
     76 CB         -4.1833  -25.7920  -45.7588 C.3       13 UNK        -0.1800 
     77 C          -2.7923  -25.5060  -47.8479 C.2       13 UNK         0.5000 
     78 O          -2.8623  -26.2639  -48.8148 O.2       13 UNK        -0.5000 
     79 N          -1.6387  -25.0033  -47.3819 N.am      14 UNK        -0.5000 
     80 CA         -0.3020  -25.4248  -47.8160 C.3       14 UNK         0.1400 
     81 CB          0.7537  -24.8168  -46.8795 C.3       14 UNK        -0.1800 
     82 C           0.0266  -25.0839  -49.2795 C.2       14 UNK         0.5000 
     83 O           0.7511  -25.8407  -49.9268 O.2       14 UNK        -0.5000 
     84 N          -0.5206  -23.9678  -49.7723 N.am      15 UNK        -0.5000 
     85 CA         -0.4140  -23.5219  -51.1617 C.3       15 UNK         0.1400 
     86 CB          0.2251  -22.1267  -51.1782 C.3       15 UNK        -0.1800 
     87 C          -1.7923  -23.5058  -51.8463 C.2       15 UNK         0.5000 
     88 O          -1.9108  -22.9463  -52.9366 O.2       15 UNK        -0.5000 
     89 N          -2.8036  -24.0928  -51.1850 N.am      16 UNK        -0.5000 
     90 CA         -4.2108  -24.1848  -51.5826 C.3       16 UNK         0.1400 
     91 CB         -4.3600  -25.1062  -52.8110 C.3       16 UNK        -0.1800 
     92 C          -4.8979  -22.8195  -51.7952 C.2       16 UNK         0.5000 
     93 O          -5.8965  -22.7569  -52.5147 O.2       16 UNK        -0.5000 
     94 N          -4.3861  -21.7524  -51.1602 N.am      17 UNK        -0.5000 
     95 CA         -4.7800  -20.3640  -51.4188 C.3       17 UNK         0.1400 
     96 CB         -3.8486  -19.4048  -50.6634 C.3       17 UNK        -0.1800 
     97 C          -6.2620  -20.0386  -51.1513 C.2       17 UNK         0.5000 
     98 O          -6.7855  -19.1072  -51.7628 O.2       17 UNK        -0.5000 
     99 N          -6.9145  -20.8199  -50.2812 N.am      18 UNK        -0.5000 
    100 CA        -8.3402  -20.7074  -49.9704 C.3       18 UNK         0.1400 
    101 CB        -8.5054  -20.7653  -48.4434 C.3       18 UNK        -0.1800 
    102 C         -9.1823  -21.8110  -50.6425 C.2       18 UNK         0.5000 
    103 O        -10.4064  -21.7866  -50.5055 O.2       18 UNK        -0.5000 
    104 N         -8.5357  -22.7676  -51.3231 N.am      19 UNK        -0.5000 
    105 CA        -9.1650  -23.9725  -51.8640 C.3       19 UNK         0.1400 
    106 CB        -8.4117  -25.2038  -51.3345 C.3       19 UNK        -0.1800 
    107 C         -9.1974  -23.9850  -53.4006 C.2       19 UNK         0.5000 
    108 O        -10.2154  -24.3775  -53.9727 O.2       19 UNK        -0.5000 
    109 N         -8.0959  -23.5792  -54.0453 N.am      20 UNK        -0.5000 
    110 CA        -7.9034  -23.6789  -55.4956 C.3       20 UNK         0.1400 
    111 CB        -7.3546  -25.0778  -55.8415 C.3       20 UNK        -0.1800 
    112 C         -7.0151  -22.5477  -56.0486 C.2       20 UNK         0.5000 
    113 O         -6.4369  -22.7070  -57.1253 O.2       20 UNK        -0.5000 
    114 N         -6.9351  -21.4310  -55.3090 N.am      21 UNK        -0.5000 
    115 CA        -6.0664  -20.2639  -55.5138 C.3       21 UNK         0.1400 
    116 CB        -6.2713  -19.6291  -56.9052 C.3       21 UNK        -0.1800 
    117 C         -4.5789  -20.5603  -55.2260 C.2       21 UNK         0.5000 
    118 O         -4.1735  -21.7183  -55.1242 O.2       21 UNK        -0.5000 
    119 N         -3.8088  -19.4829  -55.0281 N.am      22 UNK        -0.5000 
    120 CA        -2.4138  -19.4973  -54.5592 C.3       22 UNK         0.1400 
    121 C         -1.4498  -20.2457  -55.5236 C.2       22 UNK         0.5000 
    122 N         -0.9498  -21.4134  -55.1447 N.am      22 UNK        -0.7600 
    123 O         -1.1362  -19.7581  -56.6071 O.2       22 UNK        -0.5000 
    124 C124       -1.9222  -18.0504  -54.2529 C.3       23 UNK        -0.0398 
    125 S125       -1.0606  -17.9123  -52.6544 S.3       23 UNK        -0.2404 
    126 C126        0.6869  -18.0071  -53.1602 C.3       23 UNK        -0.0205 
    127 H127        5.0724   -9.5965  -47.0429 H         1 UNK         0.0600 
    128 H128        3.3672   -9.1603  -46.8896 H         1 UNK         0.0600 
    129 H129        4.0007   -9.7172  -48.4419 H         1 UNK         0.0600 
    130 H130        3.4349  -11.8066  -48.8861 H         1 UNK         0.3000 
    131 H131        4.0592  -14.0743  -47.5276 H         1 UNK         0.0600 
    132 H132        2.3786  -15.2443  -48.9864 H         1 UNK         0.0800 
    133 H133        1.6734  -13.7235  -49.4197 H         1 UNK         0.0800 
    134 H134        5.0965  -15.6640  -51.6452 H         1 UNK         0.0800 
    135 H135        5.1804  -15.8277  -49.9108 H         1 UNK         0.0800 
    136 H136        2.6923  -16.1734  -52.7411 H         1 UNK         0.1150 
    137 H137        0.7485  -19.5255  -50.9195 H         1 UNK         0.1150 
    138 H138        3.9775  -17.5806  -48.9045 H         1 UNK         0.1150 
    139 H139        1.7956  -20.5712  -48.9286 H         1 UNK         0.0800 
    140 H140        3.1905  -19.8327  -48.1941 H         1 UNK         0.0800 
    141 H141       -1.1994  -18.6108  -47.4786 H         1 UNK         0.0800 
    142 H142       -0.5526  -19.3808  -48.9031 H         1 UNK         0.0800 
    143 H143       -0.2169  -21.5028  -47.6129 H         1 UNK         0.0600 
    144 H144       -0.5474  -19.9690  -45.3222 H         1 UNK         0.3000 
    145 H145       -1.2158  -22.6361  -43.0088 H         1 UNK         0.0600 
    146 H146        0.7198  -21.4036  -42.0721 H         1 UNK         0.0600 
    147 H147        1.1971  -22.3218  -43.4919 H         1 UNK         0.0600 
    148 H148        0.9808  -20.5816  -43.6063 H         1 UNK         0.0600 
    149 H149       -1.2563  -19.6995  -42.9655 H         1 UNK         0.3000 
    150 H150       -4.7927  -19.4796  -42.9425 H         1 UNK         0.0600 
    151 H151       -4.4519  -20.1098  -40.5420 H         1 UNK         0.0600 
    152 H152       -4.5811  -18.3691  -40.7335 H         1 UNK         0.0600 
    153 H153       -3.0022  -19.1143  -40.4781 H         1 UNK         0.0600 
    154 H154       -2.8468  -17.5117  -42.3561 H         1 UNK         0.3000 
    155 H155       -1.6365  -16.7978  -45.5720 H         1 UNK         0.0600 
    156 H156       -2.7012  -14.5705  -45.2129 H         1 UNK         0.0600 
    157 H157       -3.7754  -15.2558  -43.9996 H         1 UNK         0.0600 
    158 H158       -3.9108  -15.7489  -45.6828 H         1 UNK         0.0600 
    159 H159       -1.3261  -15.2639  -43.2815 H         1 UNK         0.3000 
    160 H160        0.8545  -15.3103  -42.3677 H         1 UNK         0.0600 
    161 H161       -0.5401  -17.1609  -40.3613 H         1 UNK         0.0600 
    162 H162       -1.0543  -15.5509  -40.8385 H         1 UNK         0.0600 
    163 H163        0.4307  -15.7536  -39.9268 H         1 UNK         0.0600 
    164 H164        2.6928  -16.4233  -42.1749 H         1 UNK         0.3000 
    165 H165        4.1337  -18.1401  -40.4785 H         1 UNK         0.0600 
    166 H166        3.4004  -20.6060  -42.1417 H         1 UNK         0.0600 
    167 H167        4.9590  -20.3431  -41.3595 H         1 UNK         0.0600 
    168 H168        3.5037  -20.5102  -40.3915 H         1 UNK         0.0600 
    169 H169        5.1000  -17.2790  -42.2802 H         1 UNK         0.3000 
    170 H170        5.9921  -17.6325  -44.7479 H         1 UNK         0.0600 
    171 H171        4.6134  -18.4894  -46.5883 H         1 UNK         0.0600 
    172 H172        3.4610  -17.1754  -46.3905 H         1 UNK         0.0600 
    173 H173        5.1070  -16.8366  -46.9250 H         1 UNK         0.0600 
    174 H174        4.1570  -15.3306  -44.8886 H         1 UNK         0.3000 
    175 H175        6.1185  -13.4607  -42.5417 H         1 UNK         0.0600 
    176 H176        6.0520  -13.2854  -45.5988 H         1 UNK         0.0600 
    177 H177        6.4869  -11.9813  -44.4954 H         1 UNK         0.0600 
    178 H178        7.5043  -13.4089  -44.6125 H         1 UNK         0.0600 
    179 H179        4.0900  -12.5431  -44.2489 H         1 UNK         0.3000 
    180 H180        1.4415  -12.9146  -41.8218 H         1 UNK         0.0600 
    181 H181        3.1244  -10.5919  -42.9049 H         1 UNK         0.0600 
    182 H182        2.9139  -11.0016  -41.2053 H         1 UNK         0.0600 
    183 H183        1.5363  -10.4614  -42.1530 H         1 UNK         0.0600 
    184 H184        2.1466  -12.2854  -44.6681 H         1 UNK         0.3000 
    185 H185       -0.4960  -14.1517  -45.8006 H         1 UNK         0.0600 
    186 H186       -1.4839  -12.2620  -47.0617 H         1 UNK         0.0600 
    187 H187       -1.9794  -12.1603  -45.3809 H         1 UNK         0.0600 
    188 H188       -0.7151  -11.0967  -45.9824 H         1 UNK         0.0600 
    189 H189        1.0205  -12.2850  -47.2589 H         1 UNK         0.3000 
    190 H190       -3.2351  -20.3181  -46.2321 H         1 UNK         0.3000 
    191 H191       -5.1260  -20.7548  -48.1611 H         1 UNK         0.0600 
    192 H192       -6.6434  -21.2902  -46.1972 H         1 UNK         0.0600 
    193 H193       -5.6646  -19.8529  -45.9593 H         1 UNK         0.0600 
    194 H194       -5.2235  -21.3648  -45.1676 H         1 UNK         0.0600 
    195 H195       -3.4833  -23.2592  -46.2612 H         1 UNK         0.3000 
    196 H196       -4.9274  -25.4278  -47.7328 H         1 UNK         0.0600 
    197 H197       -4.1294  -26.8759  -45.8682 H         1 UNK         0.0600 
    198 H198       -5.1299  -25.5614  -45.2697 H         1 UNK         0.0600 
    199 H199       -3.3790  -25.4873  -45.0876 H         1 UNK         0.0600 
    200 H200       -1.6604  -24.3458  -46.6046 H         1 UNK         0.3000 
    201 H201       -0.2544  -26.5112  -47.7166 H         1 UNK         0.0600 
    202 H202        0.5682  -25.0933  -45.8415 H         1 UNK         0.0600 
    203 H203        0.7664  -23.7281  -46.9393 H         1 UNK         0.0600 
    204 H204        1.7533  -25.1699  -47.1360 H         1 UNK         0.0600 
    205 H205       -1.1195  -23.4041  -49.1790 H         1 UNK         0.3000 
    206 H206        0.2187  -24.1956  -51.7424 H         1 UNK         0.0600 
    207 H207        1.2028  -22.1367  -50.6973 H         1 UNK         0.0600 
    208 H208        0.3701  -21.7665  -52.1976 H         1 UNK         0.0600 
    209 H209       -0.4039  -21.4041  -50.6591 H         1 UNK         0.0600 
    210 H210       -2.5769  -24.5519  -50.3130 H         1 UNK         0.3000 
    211 H211       -4.7310  -24.6566  -50.7479 H         1 UNK         0.0600 
    212 H212       -3.9281  -24.6555  -53.7055 H         1 UNK         0.0600 
    213 H213       -5.4082  -25.3131  -53.0270 H         1 UNK         0.0600 
    214 H214       -3.8699  -26.0658  -52.6469 H         1 UNK         0.0600 
    215 H215       -3.5947  -21.8911  -50.5410 H         1 UNK         0.3000 
    216 H216       -4.6177  -20.1938  -52.4799 H         1 UNK         0.0600 
    217 H217       -4.0012  -18.3774  -50.9961 H         1 UNK         0.0600 
    218 H218       -2.8011  -19.6493  -50.8401 H         1 UNK         0.0600 
    219 H219       -4.0195  -19.4232  -49.5892 H         1 UNK         0.0600 
    220 H220       -6.4191  -21.5899  -49.8464 H         1 UNK         0.3000 
    221 H221       -8.7335  -19.7487  -50.3142 H         1 UNK         0.0600 
    222 H222       -8.1777  -21.7249  -48.0421 H         1 UNK         0.0600 
    223 H223       -7.9300  -19.9784  -47.9555 H         1 UNK         0.0600 
    224 H224       -9.5482  -20.6283  -48.1547 H         1 UNK         0.0600 
    225 H225       -7.5370  -22.6757  -51.4711 H         1 UNK         0.3000 
    226 H226      -10.1985  -24.0511  -51.5200 H         1 UNK         0.0600 
    227 H227       -8.4596  -25.2541  -50.2465 H         1 UNK         0.0600 
    228 H228       -8.8456  -26.1263  -51.7224 H         1 UNK         0.0600 
    229 H229       -7.3600  -25.1890  -51.6197 H         1 UNK         0.0600 
    230 H230       -7.2807  -23.2831  -53.5091 H         1 UNK         0.3000 
    231 H231       -8.8673  -23.5590  -55.9942 H         1 UNK         0.0600 
    232 H232       -7.2641  -25.2126  -56.9199 H         1 UNK         0.0600 
    233 H233       -8.0133  -25.8653  -55.4753 H         1 UNK         0.0600 
    234 H234       -6.3678  -25.2355  -55.4051 H         1 UNK         0.0600 
    235 H235       -7.4480  -21.4295  -54.4395 H         1 UNK         0.3000 
    236 H236       -6.3906  -19.5360  -54.7681 H         1 UNK         0.0600 
    237 H237       -7.3293  -19.4757  -57.1182 H         1 UNK         0.0600 
    238 H238       -5.7861  -18.6546  -56.9654 H         1 UNK         0.0600 
    239 H239       -5.8527  -20.2440  -57.7022 H         1 UNK         0.0600 
    240 H240       -4.2144  -18.5694  -55.1669 H         1 UNK         0.3000 
    241 H241       -2.4337  -20.0572  -53.6214 H         1 UNK         0.0600 
    242 H242       -1.2974  -21.8862  -54.3111 H         1 UNK         0.3800 
    243 H243       -0.3232  -21.9025  -55.7627 H         1 UNK         0.3800 
    244 H244       -1.3000  -17.6389  -55.0498 H         1 UNK         0.0800 
    245 H245       -2.7689  -17.3663  -54.1830 H         1 UNK         0.0800 
    246 H246        0.8906  -17.2270  -53.8953 H         1 UNK         0.0800 
    247 H247        0.8703  -18.9627  -53.6537 H         1 UNK         0.0800 
@<TRIPOS>BOND
     1    1    2 1    
     2    1  127 1    
     3    1  128 1    
     4    1  129 1    
     5    2    3 2    
     6    2    4 am   BACKBONE|DICT|INTERRES
     7    4    5 1    
     8    4  130 1    
     9    5    6 1    
    10    5   65 1    
    11    5  131 1    
    12    6    7 1    
    13    6  132 1    
    14    6  133 1    
    15    7    8 1    
    16    8    9 1    
    17    8  134 1    
    18    8  135 1    
    19    9   10 ar   
    20    9   14 ar   
    21   10   11 ar   
    22   10  136 1    
    23   11   12 ar   
    24   11  126 1    
    25   12   13 ar   
    26   12  137 1    
    27   13   14 ar   
    28   13   15 1    
    29   14  138 1    
    30   15   16 1    
    31   15  139 1    
    32   15  140 1    
    33   16   17 1    
    34   17   18 1    
    35   17  141 1    
    36   17  142 1    
    37   18   19 1    
    38   18   67 1    
    39   18  143 1    
    40   19   20 am   BACKBONE|DICT|INTERRES
    41   19  144 1    
    42   20   21 2    
    43   20   22 1    
    44   22   23 1    
    45   22   24 1    
    46   22  145 1    
    47   23  146 1    
    48   23  147 1    
    49   23  148 1    
    50   24   25 am   BACKBONE|DICT|INTERRES
    51   24  149 1    
    52   25   26 2    
    53   25   27 1    
    54   27   28 1    
    55   27   29 1    
    56   27  150 1    
    57   28  151 1    
    58   28  152 1    
    59   28  153 1    
    60   29   30 am   BACKBONE|DICT|INTERRES
    61   29  154 1    
    62   30   31 2    
    63   30   32 1    
    64   32   33 1    
    65   32   34 1    
    66   32  155 1    
    67   33  156 1    
    68   33  157 1    
    69   33  158 1    
    70   34   35 am   BACKBONE|DICT|INTERRES
    71   34  159 1    
    72   35   36 2    
    73   35   37 1    
    74   37   38 1    
    75   37   39 1    
    76   37  160 1    
    77   38  161 1    
    78   38  162 1    
    79   38  163 1    
    80   39   40 am   BACKBONE|DICT|INTERRES
    81   39  164 1    
    82   40   41 2    
    83   40   42 1    
    84   42   43 1    
    85   42   44 1    
    86   42  165 1    
    87   43  166 1    
    88   43  167 1    
    89   43  168 1    
    90   44   45 am   BACKBONE|DICT|INTERRES
    91   44  169 1    
    92   45   46 2    
    93   45   47 1    
    94   47   48 1    
    95   47   49 1    
    96   47  170 1    
    97   48  171 1    
    98   48  172 1    
    99   48  173 1    
   100   49   50 am   BACKBONE|DICT|INTERRES
   101   49  174 1    
   102   50   51 2    
   103   50   52 1    
   104   52   53 1    
   105   52   54 1    
   106   52  175 1    
   107   53  176 1    
   108   53  177 1    
   109   53  178 1    
   110   54   55 am   BACKBONE|DICT|INTERRES
   111   54  179 1    
   112   55   56 2    
   113   55   57 1    
   114   57   58 1    
   115   57   59 1    
   116   57  180 1    
   117   58  181 1    
   118   58  182 1    
   119   58  183 1    
   120   59   60 am   BACKBONE|DICT|INTERRES
   121   59  184 1    
   122   60   61 2    
   123   60   62 1    
   124   62   63 1    
   125   62   64 1    
   126   62  185 1    
   127   63  186 1    
   128   63  187 1    
   129   63  188 1    
   130   64   65 am   BACKBONE|DICT|INTERRES
   131   64  189 1    
   132   65   66 2    
   133   67   68 2    
   134   67   69 am   BACKBONE|DICT|INTERRES
   135   69   70 1    
   136   69  190 1    
   137   70   71 1    
   138   70   72 1    
   139   70  191 1    
   140   71  192 1    
   141   71  193 1    
   142   71  194 1    
   143   72   73 2    
   144   72   74 am   BACKBONE|DICT|INTERRES
   145   74   75 1    
   146   74  195 1    
   147   75   76 1    
   148   75   77 1    
   149   75  196 1    
   150   76  197 1    
   151   76  198 1    
   152   76  199 1    
   153   77   78 2    
   154   77   79 am   BACKBONE|DICT|INTERRES
   155   79   80 1    
   156   79  200 1    
   157   80   81 1    
   158   80   82 1    
   159   80  201 1    
   160   81  202 1    
   161   81  203 1    
   162   81  204 1    
   163   82   83 2    
   164   82   84 am   BACKBONE|DICT|INTERRES
   165   84   85 1    
   166   84  205 1    
   167   85   86 1    
   168   85   87 1    
   169   85  206 1    
   170   86  207 1    
   171   86  208 1    
   172   86  209 1    
   173   87   88 2    
   174   87   89 am   BACKBONE|DICT|INTERRES
   175   89   90 1    
   176   89  210 1    
   177   90   91 1    
   178   90   92 1    
   179   90  211 1    
   180   91  212 1    
   181   91  213 1    
   182   91  214 1    
   183   92   93 2    
   184   92   94 am   BACKBONE|DICT|INTERRES
   185   94   95 1    
   186   94  215 1    
   187   95   96 1    
   188   95   97 1    
   189   95  216 1    
   190   96  217 1    
   191   96  218 1    
   192   96  219 1    
   193   97   98 2    
   194   97   99 am   BACKBONE|DICT|INTERRES
   195   99  100 1    
   196   99  220 1    
   197  100  101 1    
   198  100  102 1    
   199  100  221 1    
   200  101  222 1    
   201  101  223 1    
   202  101  224 1    
   203  102  103 2    
   204  102  104 am   BACKBONE|DICT|INTERRES
   205  104  105 1    
   206  104  225 1    
   207  105  106 1    
   208  105  107 1    
   209  105  226 1    
   210  106  227 1    
   211  106  228 1    
   212  106  229 1    
   213  107  108 2    
   214  107  109 am   BACKBONE|DICT|INTERRES
   215  109  110 1    
   216  109  230 1    
   217  110  111 1    
   218  110  112 1    
   219  110  231 1    
   220  111  232 1    
   221  111  233 1    
   222  111  234 1    
   223  112  113 2    
   224  112  114 am   BACKBONE|DICT|INTERRES
   225  114  115 1    
   226  114  235 1    
   227  115  116 1    
   228  115  117 1    
   229  115  236 1    
   230  116  237 1    
   231  116  238 1    
   232  116  239 1    
   233  117  118 2    
   234  117  119 am   BACKBONE|DICT|INTERRES
   235  119  120 1    
   236  119  240 1    
   237  120  121 1    
   238  120  124 1    
   239  120  241 1    
   240  121  122 am   BACKBONE|DICT|INTERRES
   241  121  123 2    
   242  122  242 1    
   243  122  243 1    
   244  124  125 1    
   245  124  244 1    
   246  124  245 1    
   247  125  126 1    
   248  126  246 1    
   249  126  247 1    
@<TRIPOS>SUBSTRUCTURE
     1 UNK         1 GROUP             0       ****    0 ROOT    
