@<TRIPOS>MOLECULE
3R540
247   249    1
SMALL
USER_CHARGES


@<TRIPOS>ATOM
      1 CA          2.8625  -16.9258  -41.1001 C.3       0 UNK        -0.1800 
      2 C           2.0282  -15.7733  -41.6409 C.2       0 UNK         0.5000 
      3 O           1.9720  -14.7134  -41.0153 O.2       0 UNK        -0.5000 
      4 N           1.3976  -15.9619  -42.8067 N.am      1 UNK        -0.5000 
      5 CA          0.5871  -14.9817  -43.5377 C.3       1 UNK         0.1400 
      6 C6         -0.3994  -15.6864  -44.5111 C.3       23 UNK        -0.0398 
      7 S7         -1.9310  -14.7248  -44.7526 S.3       23 UNK        -0.2404 
      8 C8         -1.7862  -14.1589  -46.4775 C.3       23 UNK        -0.0205 
      9 C9         -2.2761  -15.1918  -47.4836 C.ar      23 UNK        -0.0193 
     10 C10        -3.6335  -15.5221  -47.5399 C.ar      23 UNK        -0.1150 
     11 C11        -4.1135  -16.4124  -48.5049 C.ar      23 UNK        -0.0193 
     12 C12        -3.2209  -16.9717  -49.4233 C.ar      23 UNK        -0.1150 
     13 C13        -1.8652  -16.6334  -49.3933 C.ar      23 UNK        -0.0193 
     14 C14        -1.3941  -15.7610  -48.4072 C.ar      23 UNK        -0.1150 
     15 C15        -0.9266  -17.1463  -50.4742 C.3       23 UNK        -0.0205 
     16 S16         0.0176  -18.6136  -49.9656 S.3       23 UNK        -0.2404 
     17 C17        -1.2343  -19.9356  -49.9675 C.3       23 UNK        -0.0398 
     18 CA         -1.4294  -20.5170  -48.5516 C.3       11 UNK         0.1400 
     19 N          -1.9836  -19.5353  -47.6032 N.am      11 UNK        -0.5000 
     20 C          -2.0991  -19.7506  -46.2868 C.2       10 UNK         0.5000 
     21 O          -1.7141  -20.7883  -45.7408 O.2       10 UNK        -0.5000 
     22 CA         -2.8352  -18.6922  -45.4550 C.3       10 UNK         0.1400 
     23 CB         -4.3431  -18.7510  -45.7777 C.3       10 UNK        -0.1800 
     24 N          -2.5979  -19.0345  -44.0584 N.am      10 UNK        -0.5000 
     25 C          -3.1193  -18.4905  -42.9555 C.2       9 UNK         0.5000 
     26 O          -3.8205  -17.4792  -42.9401 O.2       9 UNK        -0.5000 
     27 CA         -2.8235  -19.2339  -41.6407 C.3       9 UNK         0.1400 
     28 CB         -3.9581  -20.2198  -41.3204 C.3       9 UNK        -0.1800 
     29 N          -1.5553  -19.9687  -41.6865 N.am      9 UNK        -0.5000 
     30 C          -0.3692  -19.4042  -41.4305 C.2       8 UNK         0.5000 
     31 O          -0.2358  -18.2229  -41.1135 O.2       8 UNK        -0.5000 
     32 CA          0.8715  -20.3179  -41.4951 C.3       8 UNK         0.1400 
     33 CB          0.6453  -21.6469  -40.7509 C.3       8 UNK        -0.1800 
     34 N           1.3848  -20.6079  -42.8388 N.am      8 UNK        -0.5000 
     35 C           1.6459  -19.7323  -43.8200 C.2       7 UNK         0.5000 
     36 O           1.2961  -18.5521  -43.8251 O.2       7 UNK        -0.5000 
     37 CA          2.4764  -20.2654  -45.0022 C.3       7 UNK         0.1400 
     38 CB          1.5735  -20.6179  -46.1910 C.3       7 UNK        -0.1800 
     39 N           3.4738  -19.2876  -45.4424 N.am      7 UNK        -0.5000 
     40 C           4.5261  -18.8689  -44.7219 C.2       6 UNK         0.5000 
     41 O           4.7968  -19.3015  -43.6009 O.2       6 UNK        -0.5000 
     42 CA          5.4493  -17.8096  -45.3609 C.3       6 UNK         0.1400 
     43 CB          6.7942  -18.4408  -45.7559 C.3       6 UNK        -0.1800 
     44 N           4.8545  -17.1951  -46.5509 N.am      6 UNK        -0.5000 
     45 C           4.1302  -16.0693  -46.5451 C.2       5 UNK         0.5000 
     46 O           3.9847  -15.3564  -45.5537 O.2       5 UNK        -0.5000 
     47 CA          3.4459  -15.7165  -47.8740 C.3       5 UNK         0.1400 
     48 CB          2.3744  -16.7643  -48.2233 C.3       5 UNK        -0.1800 
     49 N           2.8185  -14.3910  -47.8595 N.am      5 UNK        -0.5000 
     50 C           2.6465  -13.6570  -48.9696 C.2       4 UNK         0.5000 
     51 O           3.1159  -13.9853  -50.0610 O.2       4 UNK        -0.5000 
     52 CA          1.8124  -12.3630  -48.9158 C.3       4 UNK         0.1400 
     53 CB          0.4407  -12.5652  -49.5883 C.3       4 UNK        -0.1800 
     54 N           1.6251  -11.7888  -47.5817 N.am      4 UNK        -0.5000 
     55 C           1.4522  -10.4734  -47.3673 C.2       3 UNK         0.5000 
     56 O           1.4707   -9.6300  -48.2656 O.2       3 UNK        -0.5000 
     57 CA          1.2101   -9.9957  -45.9198 C.3       3 UNK         0.1400 
     58 CB         -0.2949   -9.8226  -45.6619 C.3       3 UNK        -0.1800 
     59 N           1.7564  -10.8940  -44.9079 N.am      3 UNK        -0.5000 
     60 C           3.0531  -11.1793  -44.7426 C.2       2 UNK         0.5000 
     61 O           3.9612  -10.5903  -45.3304 O.2       2 UNK        -0.5000 
     62 CA          3.3975  -12.3336  -43.7818 C.3       2 UNK         0.1400 
     63 CB          4.0339  -11.7887  -42.4937 C.3       2 UNK        -0.1800 
     64 N           2.2864  -13.2189  -43.4110 N.am      2 UNK        -0.5000 
     65 C           1.4847  -13.9236  -44.2231 C.2       1 UNK         0.5000 
     66 O           1.4595  -13.7748  -45.4472 O.2       1 UNK        -0.5000 
     67 C          -2.2332  -21.8356  -48.5973 C.2       11 UNK         0.5000 
     68 O          -1.6554  -22.8850  -48.8730 O.2       11 UNK        -0.5000 
     69 N          -3.5217  -21.7804  -48.2306 N.am      12 UNK        -0.5000 
     70 CA         -4.3890  -22.9403  -48.0167 C.3       12 UNK         0.1400 
     71 CB         -5.8069  -22.4375  -47.7048 C.3       12 UNK        -0.1800 
     72 C          -3.9052  -23.8984  -46.9049 C.2       12 UNK         0.5000 
     73 O          -4.2821  -25.0703  -46.9191 O.2       12 UNK        -0.5000 
     74 N          -3.0803  -23.4021  -45.9687 N.am      13 UNK        -0.5000 
     75 CA         -2.4541  -24.2054  -44.9182 C.3       13 UNK         0.1400 
     76 CB         -2.0302  -23.2920  -43.7556 C.3       13 UNK        -0.1800 
     77 C          -1.2478  -25.0148  -45.4318 C.2       13 UNK         0.5000 
     78 O          -0.8926  -26.0130  -44.8039 O.2       13 UNK        -0.5000 
     79 N          -0.6345  -24.5840  -46.5458 N.am      14 UNK        -0.5000 
     80 CA          0.4822  -25.2838  -47.1817 C.3       14 UNK         0.1400 
     81 CB          1.2720  -24.3154  -48.0768 C.3       14 UNK        -0.1800 
     82 C          -0.0040  -26.5052  -47.9796 C.2       14 UNK         0.5000 
     83 O           0.5984  -27.5746  -47.8768 O.2       14 UNK        -0.5000 
     84 N          -1.0991  -26.3327  -48.7294 N.am      15 UNK        -0.5000 
     85 CA         -1.7790  -27.3699  -49.4978 C.3       15 UNK         0.1400 
     86 CB         -0.9396  -27.7781  -50.7254 C.3       15 UNK        -0.1800 
     87 C          -3.1434  -26.8358  -49.9473 C.2       15 UNK         0.5000 
     88 O          -3.3050  -25.6235  -50.0999 O.2       15 UNK        -0.5000 
     89 N          -4.0834  -27.7485  -50.2229 N.am      16 UNK        -0.5000 
     90 CA         -5.4097  -27.4246  -50.7585 C.3       16 UNK         0.1400 
     91 CB         -6.2871  -28.6852  -50.7431 C.3       16 UNK        -0.1800 
     92 C          -5.3536  -26.8191  -52.1751 C.2       16 UNK         0.5000 
     93 O          -6.1675  -25.9564  -52.5004 O.2       16 UNK        -0.5000 
     94 N          -4.3698  -27.2508  -52.9772 N.am      17 UNK        -0.5000 
     95 CA         -4.0839  -26.7040  -54.3052 C.3       17 UNK         0.1400 
     96 CB         -3.1690  -27.6780  -55.0626 C.3       17 UNK        -0.1800 
     97 C          -3.4448  -25.3031  -54.2445 C.2       17 UNK         0.5000 
     98 O          -3.6726  -24.4905  -55.1409 O.2       17 UNK        -0.5000 
     99 N          -2.6749  -25.0355  -53.1795 N.am      18 UNK        -0.5000 
    100 CA        -2.0026  -23.7579  -52.9362 C.3       18 UNK         0.1400 
    101 CB        -0.8485  -23.9626  -51.9435 C.3       18 UNK        -0.1800 
    102 C         -2.9596  -22.6471  -52.4655 C.2       18 UNK         0.5000 
    103 O         -2.5933  -21.4753  -52.5384 O.2       18 UNK        -0.5000 
    104 N         -4.1846  -23.0068  -52.0509 N.am      19 UNK        -0.5000 
    105 CA        -5.2617  -22.0787  -51.6888 C.3       19 UNK         0.1400 
    106 CB        -6.4930  -22.8808  -51.2434 C.3       19 UNK        -0.1800 
    107 C         -5.6502  -21.1080  -52.8231 C.2       19 UNK         0.5000 
    108 O         -6.0897  -19.9930  -52.5427 O.2       19 UNK        -0.5000 
    109 N         -5.4342  -21.5253  -54.0800 N.am      20 UNK        -0.5000 
    110 CA        -5.6324  -20.7244  -55.2897 C.3       20 UNK         0.1400 
    111 CB        -5.3820  -21.6108  -56.5184 C.3       20 UNK        -0.1800 
    112 C         -4.7547  -19.4572  -55.3527 C.2       20 UNK         0.5000 
    113 O         -5.1523  -18.4818  -55.9919 O.2       20 UNK        -0.5000 
    114 N         -3.6069  -19.4619  -54.6551 N.am      21 UNK        -0.5000 
    115 CA        -2.7008  -18.3160  -54.5331 C.3       21 UNK         0.1400 
    116 CB        -1.3672  -18.7835  -53.9304 C.3       21 UNK        -0.1800 
    117 C         -3.2924  -17.1385  -53.7282 C.2       21 UNK         0.5000 
    118 O         -2.7500  -16.0354  -53.7974 O.2       21 UNK        -0.5000 
    119 N         -4.3969  -17.3758  -53.0049 N.am      22 UNK        -0.5000 
    120 CA        -5.2245  -16.3351  -52.3754 C.3       22 UNK         0.1400 
    121 C         -6.0048  -15.4423  -53.3908 C.2       22 UNK         0.5000 
    122 N         -6.1507  -15.8339  -54.6532 N.am      22 UNK        -0.7600 
    123 O         -6.4788  -14.3682  -53.0324 O.2       22 UNK        -0.5000 
    124 C124       -6.1793  -16.9534  -51.3180 C.3       23 UNK        -0.0398 
    125 S125       -6.4719  -15.8686  -49.8776 S.3       23 UNK        -0.2404 
    126 C126       -5.5957  -16.7592  -48.5520 C.3       23 UNK        -0.0205 
    127 H127        2.3930  -17.3423  -40.2092 H         1 UNK         0.0600 
    128 H128        3.8590  -16.5756  -40.8316 H         1 UNK         0.0600 
    129 H129        2.9741  -17.7233  -41.8344 H         1 UNK         0.0600 
    130 H130        1.4514  -16.8833  -43.2408 H         1 UNK         0.3000 
    131 H131       -0.0063  -14.4511  -42.7899 H         1 UNK         0.0600 
    132 H132        0.0650  -15.9385  -45.4661 H         1 UNK         0.0800 
    133 H133       -0.7134  -16.6400  -44.0841 H         1 UNK         0.0800 
    134 H134       -2.3850  -13.2546  -46.5933 H         1 UNK         0.0800 
    135 H135       -0.7595  -13.8635  -46.6892 H         1 UNK         0.0800 
    136 H136       -4.3186  -15.0727  -46.8346 H         1 UNK         0.1150 
    137 H137       -3.5867  -17.6422  -50.1865 H         1 UNK         0.1150 
    138 H138       -0.3473  -15.4934  -48.3878 H         1 UNK         0.1150 
    139 H139       -1.4824  -17.3633  -51.3849 H         1 UNK         0.0800 
    140 H140       -0.2214  -16.3573  -50.7399 H         1 UNK         0.0800 
    141 H141       -0.8717  -20.7072  -50.6488 H         1 UNK         0.0800 
    142 H142       -2.1770  -19.5807  -50.3852 H         1 UNK         0.0800 
    143 H143       -0.4425  -20.7963  -48.1791 H         1 UNK         0.0600 
    144 H144       -2.2827  -18.6523  -47.9943 H         1 UNK         0.3000 
    145 H145       -2.4253  -17.7059  -45.6758 H         1 UNK         0.0600 
    146 H146       -4.8749  -17.9011  -45.3504 H         1 UNK         0.0600 
    147 H147       -4.5245  -18.7313  -46.8502 H         1 UNK         0.0600 
    148 H148       -4.8013  -19.6629  -45.3924 H         1 UNK         0.0600 
    149 H149       -2.0168  -19.8587  -43.9631 H         1 UNK         0.3000 
    150 H150       -2.7869  -18.4929  -40.8388 H         1 UNK         0.0600 
    151 H151       -4.0658  -20.9792  -42.0954 H         1 UNK         0.0600 
    152 H152       -4.9134  -19.6997  -41.2380 H         1 UNK         0.0600 
    153 H153       -3.7834  -20.7285  -40.3721 H         1 UNK         0.0600 
    154 H154       -1.5968  -20.9505  -41.9143 H         1 UNK         0.3000 
    155 H155        1.6680  -19.7884  -40.9692 H         1 UNK         0.0600 
    156 H156       -0.0326  -22.3089  -41.2908 H         1 UNK         0.0600 
    157 H157        0.2223  -21.4767  -39.7597 H         1 UNK         0.0600 
    158 H158        1.5852  -22.1809  -40.6097 H         1 UNK         0.0600 
    159 H159        1.7013  -21.5570  -42.9717 H         1 UNK         0.3000 
    160 H160        3.0071  -21.1669  -44.6891 H         1 UNK         0.0600 
    161 H161        2.1543  -20.9882  -47.0358 H         1 UNK         0.0600 
    162 H162        1.0052  -19.7505  -46.5295 H         1 UNK         0.0600 
    163 H163        0.8620  -21.3989  -45.9206 H         1 UNK         0.0600 
    164 H164        3.3052  -18.8504  -46.3338 H         1 UNK         0.3000 
    165 H165        5.6435  -17.0462  -44.6043 H         1 UNK         0.0600 
    166 H166        7.2882  -18.8841  -44.8902 H         1 UNK         0.0600 
    167 H167        6.6677  -19.2278  -46.5004 H         1 UNK         0.0600 
    168 H168        7.4735  -17.6943  -46.1679 H         1 UNK         0.0600 
    169 H169        4.9625  -17.7048  -47.4163 H         1 UNK         0.3000 
    170 H170        4.2278  -15.7404  -48.6361 H         1 UNK         0.0600 
    171 H171        2.7980  -17.7640  -48.3199 H         1 UNK         0.0600 
    172 H172        1.5915  -16.8081  -47.4649 H         1 UNK         0.0600 
    173 H173        1.9033  -16.5291  -49.1769 H         1 UNK         0.0600 
    174 H174        2.4423  -14.1012  -46.9591 H         1 UNK         0.3000 
    175 H175        2.3758  -11.6493  -49.5211 H         1 UNK         0.0600 
    176 H176       -0.0612  -11.6123  -49.7560 H         1 UNK         0.0600 
    177 H177        0.5400  -13.0504  -50.5601 H         1 UNK         0.0600 
    178 H178       -0.2170  -13.1819  -48.9785 H         1 UNK         0.0600 
    179 H179        1.5933  -12.4306  -46.7945 H         1 UNK         0.3000 
    180 H180        1.6952   -9.0241  -45.8057 H         1 UNK         0.0600 
    181 H181       -0.8277  -10.7713  -45.7428 H         1 UNK         0.0600 
    182 H182       -0.7386   -9.1345  -46.3826 H         1 UNK         0.0600 
    183 H183       -0.4816   -9.4151  -44.6682 H         1 UNK         0.0600 
    184 H184        1.0904  -11.4435  -44.3858 H         1 UNK         0.3000 
    185 H185        4.1391  -12.9512  -44.2910 H         1 UNK         0.0600 
    186 H186        4.8949  -11.1567  -42.7156 H         1 UNK         0.0600 
    187 H187        3.3252  -11.1904  -41.9198 H         1 UNK         0.0600 
    188 H188        4.3847  -12.5989  -41.8539 H         1 UNK         0.0600 
    189 H189        2.2303  -13.4576  -42.4246 H         1 UNK         0.3000 
    190 H190       -3.9123  -20.8806  -47.9986 H         1 UNK         0.3000 
    191 H191       -4.4153  -23.5078  -48.9478 H         1 UNK         0.0600 
    192 H192       -6.1816  -21.7851  -48.4932 H         1 UNK         0.0600 
    193 H193       -6.5047  -23.2710  -47.6147 H         1 UNK         0.0600 
    194 H194       -5.8377  -21.8802  -46.7676 H         1 UNK         0.0600 
    195 H195       -2.7879  -22.4317  -46.0187 H         1 UNK         0.3000 
    196 H196       -3.1927  -24.9132  -44.5356 H         1 UNK         0.0600 
    197 H197       -1.7110  -23.8840  -42.8970 H         1 UNK         0.0600 
    198 H198       -2.8550  -22.6602  -43.4275 H         1 UNK         0.0600 
    199 H199       -1.1953  -22.6467  -44.0298 H         1 UNK         0.0600 
    200 H200       -1.0143  -23.7890  -47.0444 H         1 UNK         0.3000 
    201 H201        1.1597  -25.6381  -46.4016 H         1 UNK         0.0600 
    202 H202        2.1644  -24.7998  -48.4744 H         1 UNK         0.0600 
    203 H203        0.6856  -23.9723  -48.9289 H         1 UNK         0.0600 
    204 H204        1.5997  -23.4389  -47.5185 H         1 UNK         0.0600 
    205 H205       -1.5493  -25.4242  -48.7644 H         1 UNK         0.3000 
    206 H206       -1.9393  -28.2368  -48.8536 H         1 UNK         0.0600 
    207 H207        0.0105  -28.2239  -50.4319 H         1 UNK         0.0600 
    208 H208       -1.4618  -28.5182  -51.3327 H         1 UNK         0.0600 
    209 H209       -0.7206  -26.9233  -51.3653 H         1 UNK         0.0600 
    210 H210       -3.8806  -28.7275  -50.0794 H         1 UNK         0.3000 
    211 H211       -5.8663  -26.6815  -50.1009 H         1 UNK         0.0600 
    212 H212       -5.8684  -29.4764  -51.3662 H         1 UNK         0.0600 
    213 H213       -7.2886  -28.4678  -51.1171 H         1 UNK         0.0600 
    214 H214       -6.3977  -29.0763  -49.7315 H         1 UNK         0.0600 
    215 H215       -3.7563  -27.9774  -52.6397 H         1 UNK         0.3000 
    216 H216       -5.0233  -26.6183  -54.8558 H         1 UNK         0.0600 
    217 H217       -2.9531  -27.3097  -56.0665 H         1 UNK         0.0600 
    218 H218       -3.6379  -28.6562  -55.1708 H         1 UNK         0.0600 
    219 H219       -2.2153  -27.8166  -54.5516 H         1 UNK         0.0600 
    220 H220       -2.5890  -25.7318  -52.4545 H         1 UNK         0.3000 
    221 H221       -1.5682  -23.4168  -53.8783 H         1 UNK         0.0600 
    222 H222       -1.1973  -24.3644  -50.9940 H         1 UNK         0.0600 
    223 H223       -0.1027  -24.6494  -52.3432 H         1 UNK         0.0600 
    224 H224       -0.3404  -23.0213  -51.7310 H         1 UNK         0.0600 
    225 H225       -4.4000  -23.9928  -52.0034 H         1 UNK         0.3000 
    226 H226       -4.9100  -21.4810  -50.8460 H         1 UNK         0.0600 
    227 H227       -7.2599  -22.2210  -50.8359 H         1 UNK         0.0600 
    228 H228       -6.9403  -23.4221  -52.0777 H         1 UNK         0.0600 
    229 H229       -6.2444  -23.6092  -50.4722 H         1 UNK         0.0600 
    230 H230       -5.0562  -22.4530  -54.2149 H         1 UNK         0.3000 
    231 H231       -6.6749  -20.4003  -55.3051 H         1 UNK         0.0600 
    232 H232       -4.3577  -21.9856  -56.5406 H         1 UNK         0.0600 
    233 H233       -5.5499  -21.0563  -57.4427 H         1 UNK         0.0600 
    234 H234       -6.0527  -22.4702  -56.5291 H         1 UNK         0.0600 
    235 H235       -3.3624  -20.2829  -54.1125 H         1 UNK         0.3000 
    236 H236       -2.4999  -17.9437  -55.5397 H         1 UNK         0.0600 
    237 H237       -0.9207  -19.5790  -54.5270 H         1 UNK         0.0600 
    238 H238       -0.6472  -17.9653  -53.8886 H         1 UNK         0.0600 
    239 H239       -1.4933  -19.1587  -52.9159 H         1 UNK         0.0600 
    240 H240       -4.7887  -18.3098  -53.0081 H         1 UNK         0.3000 
    241 H241       -4.5313  -15.6696  -51.8570 H         1 UNK         0.0600 
    242 H242       -6.6525  -15.2416  -55.2959 H         1 UNK         0.3800 
    243 H243       -5.7667  -16.7112  -54.9824 H         1 UNK         0.3800 
    244 H244       -5.7774  -17.8974  -50.9517 H         1 UNK         0.0800 
    245 H245       -7.1412  -17.2191  -51.7607 H         1 UNK         0.0800 
    246 H246       -6.0659  -16.5035  -47.6012 H         1 UNK         0.0800 
    247 H247       -5.7314  -17.8348  -48.6686 H         1 UNK         0.0800 
@<TRIPOS>BOND
     1    1    2 1    
     2    1  127 1    
     3    1  128 1    
     4    1  129 1    
     5    2    3 2    
     6    2    4 am   BACKBONE|DICT|INTERRES
     7    4    5 1    
     8    4  130 1    
     9    5    6 1    
    10    5   65 1    
    11    5  131 1    
    12    6    7 1    
    13    6  132 1    
    14    6  133 1    
    15    7    8 1    
    16    8    9 1    
    17    8  134 1    
    18    8  135 1    
    19    9   10 ar   
    20    9   14 ar   
    21   10   11 ar   
    22   10  136 1    
    23   11   12 ar   
    24   11  126 1    
    25   12   13 ar   
    26   12  137 1    
    27   13   14 ar   
    28   13   15 1    
    29   14  138 1    
    30   15   16 1    
    31   15  139 1    
    32   15  140 1    
    33   16   17 1    
    34   17   18 1    
    35   17  141 1    
    36   17  142 1    
    37   18   19 1    
    38   18   67 1    
    39   18  143 1    
    40   19   20 am   BACKBONE|DICT|INTERRES
    41   19  144 1    
    42   20   21 2    
    43   20   22 1    
    44   22   23 1    
    45   22   24 1    
    46   22  145 1    
    47   23  146 1    
    48   23  147 1    
    49   23  148 1    
    50   24   25 am   BACKBONE|DICT|INTERRES
    51   24  149 1    
    52   25   26 2    
    53   25   27 1    
    54   27   28 1    
    55   27   29 1    
    56   27  150 1    
    57   28  151 1    
    58   28  152 1    
    59   28  153 1    
    60   29   30 am   BACKBONE|DICT|INTERRES
    61   29  154 1    
    62   30   31 2    
    63   30   32 1    
    64   32   33 1    
    65   32   34 1    
    66   32  155 1    
    67   33  156 1    
    68   33  157 1    
    69   33  158 1    
    70   34   35 am   BACKBONE|DICT|INTERRES
    71   34  159 1    
    72   35   36 2    
    73   35   37 1    
    74   37   38 1    
    75   37   39 1    
    76   37  160 1    
    77   38  161 1    
    78   38  162 1    
    79   38  163 1    
    80   39   40 am   BACKBONE|DICT|INTERRES
    81   39  164 1    
    82   40   41 2    
    83   40   42 1    
    84   42   43 1    
    85   42   44 1    
    86   42  165 1    
    87   43  166 1    
    88   43  167 1    
    89   43  168 1    
    90   44   45 am   BACKBONE|DICT|INTERRES
    91   44  169 1    
    92   45   46 2    
    93   45   47 1    
    94   47   48 1    
    95   47   49 1    
    96   47  170 1    
    97   48  171 1    
    98   48  172 1    
    99   48  173 1    
   100   49   50 am   BACKBONE|DICT|INTERRES
   101   49  174 1    
   102   50   51 2    
   103   50   52 1    
   104   52   53 1    
   105   52   54 1    
   106   52  175 1    
   107   53  176 1    
   108   53  177 1    
   109   53  178 1    
   110   54   55 am   BACKBONE|DICT|INTERRES
   111   54  179 1    
   112   55   56 2    
   113   55   57 1    
   114   57   58 1    
   115   57   59 1    
   116   57  180 1    
   117   58  181 1    
   118   58  182 1    
   119   58  183 1    
   120   59   60 am   BACKBONE|DICT|INTERRES
   121   59  184 1    
   122   60   61 2    
   123   60   62 1    
   124   62   63 1    
   125   62   64 1    
   126   62  185 1    
   127   63  186 1    
   128   63  187 1    
   129   63  188 1    
   130   64   65 am   BACKBONE|DICT|INTERRES
   131   64  189 1    
   132   65   66 2    
   133   67   68 2    
   134   67   69 am   BACKBONE|DICT|INTERRES
   135   69   70 1    
   136   69  190 1    
   137   70   71 1    
   138   70   72 1    
   139   70  191 1    
   140   71  192 1    
   141   71  193 1    
   142   71  194 1    
   143   72   73 2    
   144   72   74 am   BACKBONE|DICT|INTERRES
   145   74   75 1    
   146   74  195 1    
   147   75   76 1    
   148   75   77 1    
   149   75  196 1    
   150   76  197 1    
   151   76  198 1    
   152   76  199 1    
   153   77   78 2    
   154   77   79 am   BACKBONE|DICT|INTERRES
   155   79   80 1    
   156   79  200 1    
   157   80   81 1    
   158   80   82 1    
   159   80  201 1    
   160   81  202 1    
   161   81  203 1    
   162   81  204 1    
   163   82   83 2    
   164   82   84 am   BACKBONE|DICT|INTERRES
   165   84   85 1    
   166   84  205 1    
   167   85   86 1    
   168   85   87 1    
   169   85  206 1    
   170   86  207 1    
   171   86  208 1    
   172   86  209 1    
   173   87   88 2    
   174   87   89 am   BACKBONE|DICT|INTERRES
   175   89   90 1    
   176   89  210 1    
   177   90   91 1    
   178   90   92 1    
   179   90  211 1    
   180   91  212 1    
   181   91  213 1    
   182   91  214 1    
   183   92   93 2    
   184   92   94 am   BACKBONE|DICT|INTERRES
   185   94   95 1    
   186   94  215 1    
   187   95   96 1    
   188   95   97 1    
   189   95  216 1    
   190   96  217 1    
   191   96  218 1    
   192   96  219 1    
   193   97   98 2    
   194   97   99 am   BACKBONE|DICT|INTERRES
   195   99  100 1    
   196   99  220 1    
   197  100  101 1    
   198  100  102 1    
   199  100  221 1    
   200  101  222 1    
   201  101  223 1    
   202  101  224 1    
   203  102  103 2    
   204  102  104 am   BACKBONE|DICT|INTERRES
   205  104  105 1    
   206  104  225 1    
   207  105  106 1    
   208  105  107 1    
   209  105  226 1    
   210  106  227 1    
   211  106  228 1    
   212  106  229 1    
   213  107  108 2    
   214  107  109 am   BACKBONE|DICT|INTERRES
   215  109  110 1    
   216  109  230 1    
   217  110  111 1    
   218  110  112 1    
   219  110  231 1    
   220  111  232 1    
   221  111  233 1    
   222  111  234 1    
   223  112  113 2    
   224  112  114 am   BACKBONE|DICT|INTERRES
   225  114  115 1    
   226  114  235 1    
   227  115  116 1    
   228  115  117 1    
   229  115  236 1    
   230  116  237 1    
   231  116  238 1    
   232  116  239 1    
   233  117  118 2    
   234  117  119 am   BACKBONE|DICT|INTERRES
   235  119  120 1    
   236  119  240 1    
   237  120  121 1    
   238  120  124 1    
   239  120  241 1    
   240  121  122 am   BACKBONE|DICT|INTERRES
   241  121  123 2    
   242  122  242 1    
   243  122  243 1    
   244  124  125 1    
   245  124  244 1    
   246  124  245 1    
   247  125  126 1    
   248  126  246 1    
   249  126  247 1    
@<TRIPOS>SUBSTRUCTURE
     1 UNK         1 GROUP             0       ****    0 ROOT    
