@<TRIPOS>MOLECULE
3R540
247   249    1
SMALL
USER_CHARGES


@<TRIPOS>ATOM
      1 CA          4.1490   -9.6601  -50.0671 C.3       0 UNK        -0.1800 
      2 C           5.3958  -10.2998  -49.4732 C.2       0 UNK         0.5000 
      3 O           6.3995   -9.6169  -49.2697 O.2       0 UNK        -0.5000 
      4 N           5.3343  -11.6071  -49.1911 N.am      1 UNK        -0.5000 
      5 CA          6.4159  -12.3913  -48.5786 C.3       1 UNK         0.1400 
      6 C6          6.3051  -13.8977  -48.9270 C.3       23 UNK        -0.0398 
      7 S7          4.7199  -14.6823  -48.4558 S.3       23 UNK        -0.2404 
      8 C8          3.9302  -14.8795  -50.0836 C.3       23 UNK        -0.0205 
      9 C9          2.6836  -15.7446  -49.9934 C.ar      23 UNK        -0.0193 
     10 C10         1.4659  -15.1919  -49.5879 C.ar      23 UNK        -0.1150 
     11 C11         0.3146  -15.9818  -49.5050 C.ar      23 UNK        -0.0193 
     12 C12         0.3975  -17.3426  -49.8279 C.ar      23 UNK        -0.1150 
     13 C13         1.6013  -17.8987  -50.2679 C.ar      23 UNK        -0.0193 
     14 C14         2.7439  -17.0978  -50.3346 C.ar      23 UNK        -0.1150 
     15 C15         1.6638  -19.3514  -50.7124 C.3       23 UNK        -0.0205 
     16 S16         1.6995  -20.4942  -49.2997 S.3       23 UNK        -0.2404 
     17 C17        -0.0022  -21.1539  -49.3230 C.3       23 UNK        -0.0398 
     18 CA         -0.1023  -22.4556  -48.4954 C.3       11 UNK         0.1400 
     19 N           0.0647  -22.2183  -47.0619 N.am      11 UNK        -0.5000 
     20 C           0.2449  -23.1784  -46.1463 C.2       10 UNK         0.5000 
     21 O           0.3071  -24.3789  -46.4126 O.2       10 UNK        -0.5000 
     22 CA          0.3204  -22.7191  -44.6814 C.3       10 UNK         0.1400 
     23 CB          1.6963  -22.1144  -44.3620 C.3       10 UNK        -0.1800 
     24 N          -0.7283  -21.7527  -44.3572 N.am      10 UNK        -0.5000 
     25 C          -2.0369  -22.0391  -44.3199 C.2       9 UNK         0.5000 
     26 O          -2.5022  -23.1569  -44.5405 O.2       9 UNK        -0.5000 
     27 CA         -2.9875  -20.8680  -44.0197 C.3       9 UNK         0.1400 
     28 CB         -3.0481  -20.5874  -42.5109 C.3       9 UNK        -0.1800 
     29 N          -2.6114  -19.6438  -44.7255 N.am      9 UNK        -0.5000 
     30 C          -2.6543  -19.4950  -46.0568 C.2       8 UNK         0.5000 
     31 O          -3.0005  -20.3778  -46.8388 O.2       8 UNK        -0.5000 
     32 CA         -2.1915  -18.1390  -46.6098 C.3       8 UNK         0.1400 
     33 CB         -3.3142  -17.1037  -46.4382 C.3       8 UNK        -0.1800 
     34 N          -0.9572  -17.6468  -45.9907 N.am      8 UNK        -0.5000 
     35 C           0.2047  -18.3216  -45.9458 C.2       7 UNK         0.5000 
     36 O           0.3429  -19.4632  -46.3814 O.2       7 UNK        -0.5000 
     37 CA          1.4183  -17.6367  -45.2877 C.3       7 UNK         0.1400 
     38 CB          2.3786  -17.1069  -46.3633 C.3       7 UNK        -0.1800 
     39 N           1.0656  -16.5392  -44.3892 N.am      7 UNK        -0.5000 
     40 C           0.3842  -16.6570  -43.2411 C.2       6 UNK         0.5000 
     41 O           0.0195  -17.7339  -42.7674 O.2       6 UNK        -0.5000 
     42 CA          0.0116  -15.3405  -42.5303 C.3       6 UNK         0.1400 
     43 CB          1.0320  -15.0115  -41.4305 C.3       6 UNK        -0.1800 
     44 N          -0.0866  -14.1970  -43.4434 N.am      6 UNK        -0.5000 
     45 C          -0.9743  -14.0631  -44.4369 C.2       5 UNK         0.5000 
     46 O          -1.8267  -14.9153  -44.6848 O.2       5 UNK        -0.5000 
     47 CA         -0.8727  -12.7899  -45.3099 C.3       5 UNK         0.1400 
     48 CB         -2.1073  -12.5939  -46.2090 C.3       5 UNK        -0.1800 
     49 N          -0.6476  -11.5584  -44.5434 N.am      5 UNK        -0.5000 
     50 C           0.5063  -11.1959  -43.9719 C.2       4 UNK         0.5000 
     51 O           1.5147  -11.9076  -43.9666 O.2       4 UNK        -0.5000 
     52 CA          0.5335   -9.8379  -43.2594 C.3       4 UNK         0.1400 
     53 CB         -0.0547   -9.9445  -41.8430 C.3       4 UNK        -0.1800 
     54 N           1.9249   -9.4159  -43.1759 N.am      4 UNK        -0.5000 
     55 C           2.3887   -8.1768  -43.3593 C.2       3 UNK         0.5000 
     56 O           1.6655   -7.1890  -43.4960 O.2       3 UNK        -0.5000 
     57 CA          3.9223   -8.0095  -43.4097 C.3       3 UNK         0.1400 
     58 CB          4.4447   -7.4588  -42.0735 C.3       3 UNK        -0.1800 
     59 N           4.6544   -9.2413  -43.7326 N.am      3 UNK        -0.5000 
     60 C           4.6158   -9.8728  -44.9136 C.2       2 UNK         0.5000 
     61 O           3.9319   -9.4971  -45.8707 O.2       2 UNK        -0.5000 
     62 CA          5.4877  -11.1323  -45.0418 C.3       2 UNK         0.1400 
     63 CB          4.9315  -12.3069  -44.2170 C.3       2 UNK        -0.1800 
     64 N           5.5489  -11.5118  -46.4466 N.am      2 UNK        -0.5000 
     65 C           6.5498  -12.1560  -47.0551 C.2       1 UNK         0.5000 
     66 O           7.5582  -12.5518  -46.4677 O.2       1 UNK        -0.5000 
     67 C          -1.4000  -23.2279  -48.7990 C.2       11 UNK         0.5000 
     68 O          -1.3644  -24.1518  -49.6106 O.2       11 UNK        -0.5000 
     69 N          -2.5064  -22.8840  -48.1220 N.am      12 UNK        -0.5000 
     70 CA         -3.7772  -23.6030  -48.2198 C.3       12 UNK         0.1400 
     71 CB         -4.8865  -22.8413  -47.4818 C.3       12 UNK        -0.1800 
     72 C          -3.6726  -25.0470  -47.7078 C.2       12 UNK         0.5000 
     73 O          -4.1637  -25.9517  -48.3793 O.2       12 UNK        -0.5000 
     74 N          -3.0030  -25.2511  -46.5638 N.am      13 UNK        -0.5000 
     75 CA         -2.7334  -26.5724  -45.9924 C.3       13 UNK         0.1400 
     76 CB         -2.0850  -26.4246  -44.6081 C.3       13 UNK        -0.1800 
     77 C          -1.8709  -27.4526  -46.9152 C.2       13 UNK         0.5000 
     78 O          -2.2154  -28.6141  -47.1368 O.2       13 UNK        -0.5000 
     79 N          -0.8053  -26.8704  -47.4846 N.am      14 UNK        -0.5000 
     80 CA          0.0705  -27.5131  -48.4691 C.3       14 UNK         0.1400 
     81 CB          1.2691  -26.5974  -48.7592 C.3       14 UNK        -0.1800 
     82 C          -0.6565  -27.8874  -49.7765 C.2       14 UNK         0.5000 
     83 O          -0.3527  -28.9240  -50.3673 O.2       14 UNK        -0.5000 
     84 N          -1.6274  -27.0583  -50.1799 N.am      15 UNK        -0.5000 
     85 CA         -2.5003  -27.2659  -51.3357 C.3       15 UNK         0.1400 
     86 CB         -2.9504  -25.8930  -51.8587 C.3       15 UNK        -0.1800 
     87 C          -3.7131  -28.1789  -51.0444 C.2       15 UNK         0.5000 
     88 O          -4.5585  -28.3389  -51.9250 O.2       15 UNK        -0.5000 
     89 N          -3.7857  -28.7595  -49.8364 N.am      16 UNK        -0.5000 
     90 CA         -4.8266  -29.6689  -49.3450 C.3       16 UNK         0.1400 
     91 CB         -4.8614  -30.9752  -50.1668 C.3       16 UNK        -0.1800 
     92 C          -6.2058  -28.9898  -49.2093 C.2       16 UNK         0.5000 
     93 O          -7.2193  -29.5388  -49.6457 O.2       16 UNK        -0.5000 
     94 N          -6.2036  -27.8071  -48.5802 N.am      17 UNK        -0.5000 
     95 CA         -7.3467  -26.9494  -48.2540 C.3       17 UNK         0.1400 
     96 CB         -8.3578  -27.6749  -47.3407 C.3       17 UNK        -0.1800 
     97 C          -7.9913  -26.2993  -49.4938 C.2       17 UNK         0.5000 
     98 O          -9.2091  -26.1104  -49.5304 O.2       17 UNK        -0.5000 
     99 N          -7.1610  -25.9497  -50.4849 N.am      18 UNK        -0.5000 
    100 CA        -7.5710  -25.2006  -51.6718 C.3       18 UNK         0.1400 
    101 CB        -6.4806  -25.3132  -52.7461 C.3       18 UNK        -0.1800 
    102 C         -7.8275  -23.7204  -51.3357 C.2       18 UNK         0.5000 
    103 O         -7.0937  -23.1359  -50.5339 O.2       18 UNK        -0.5000 
    104 N         -8.8417  -23.1359  -51.9821 N.am      19 UNK        -0.5000 
    105 CA        -9.1480  -21.7080  -51.9164 C.3       19 UNK         0.1400 
    106 CB       -10.6121  -21.4955  -52.3325 C.3       19 UNK        -0.1800 
    107 C         -8.2066  -20.8999  -52.8286 C.2       19 UNK         0.5000 
    108 O         -7.7388  -21.4248  -53.8425 O.2       19 UNK        -0.5000 
    109 N         -7.9785  -19.6296  -52.4623 N.am      20 UNK        -0.5000 
    110 CA        -7.1549  -18.6405  -53.1740 C.3       20 UNK         0.1400 
    111 CB        -7.8117  -18.2473  -54.5141 C.3       20 UNK        -0.1800 
    112 C         -5.6794  -19.0708  -53.3310 C.2       20 UNK         0.5000 
    113 O         -5.0563  -18.8023  -54.3607 O.2       20 UNK        -0.5000 
    114 N         -5.1417  -19.7243  -52.2903 N.am      21 UNK        -0.5000 
    115 CA        -3.7993  -20.3151  -52.2497 C.3       21 UNK         0.1400 
    116 CB        -3.6448  -21.0974  -50.9383 C.3       21 UNK        -0.1800 
    117 C         -2.6402  -19.3115  -52.4234 C.2       21 UNK         0.5000 
    118 O         -1.5439  -19.7196  -52.8070 O.2       21 UNK        -0.5000 
    119 N         -2.9045  -18.0263  -52.1591 N.am      22 UNK        -0.5000 
    120 CA        -1.9874  -16.9047  -52.4189 C.3       22 UNK         0.1400 
    121 C         -1.8791  -16.5039  -53.9209 C.2       22 UNK         0.5000 
    122 N         -2.7148  -17.0157  -54.8185 N.am      22 UNK        -0.7600 
    123 O         -1.0130  -15.7123  -54.2822 O.2       22 UNK        -0.5000 
    124 C124       -2.3195  -15.6644  -51.5456 C.3       23 UNK        -0.0398 
    125 S125       -2.5052  -16.0520  -49.7699 S.3       23 UNK        -0.2404 
    126 C126       -0.9899  -15.3383  -49.0412 C.3       23 UNK        -0.0205 
    127 H127        3.3535  -10.3893  -50.2226 H         1 UNK         0.0600 
    128 H128        4.3829   -9.2021  -51.0281 H         1 UNK         0.0600 
    129 H129        3.7732   -8.8842  -49.3999 H         1 UNK         0.0600 
    130 H130        4.4792  -12.1154  -49.3643 H         1 UNK         0.3000 
    131 H131        7.3567  -12.0431  -49.0107 H         1 UNK         0.0600 
    132 H132        6.4653  -14.0262  -49.9980 H         1 UNK         0.0800 
    133 H133        7.1135  -14.4573  -48.4531 H         1 UNK         0.0800 
    134 H134        3.6735  -13.9006  -50.4904 H         1 UNK         0.0800 
    135 H135        4.6395  -15.3266  -50.7819 H         1 UNK         0.0800 
    136 H136        1.4197  -14.1435  -49.3282 H         1 UNK         0.1150 
    137 H137       -0.4782  -17.9717  -49.7626 H         1 UNK         0.1150 
    138 H138        3.6804  -17.5257  -50.6639 H         1 UNK         0.1150 
    139 H139        0.8199  -19.5680  -51.3684 H         1 UNK         0.0800 
    140 H140        2.5577  -19.5221  -51.3140 H         1 UNK         0.0800 
    141 H141       -0.2781  -21.3438  -50.3619 H         1 UNK         0.0800 
    142 H142       -0.6915  -20.3954  -48.9474 H         1 UNK         0.0800 
    143 H143        0.7167  -23.1079  -48.8073 H         1 UNK         0.0600 
    144 H144        0.0680  -21.2441  -46.7652 H         1 UNK         0.3000 
    145 H145        0.1795  -23.5976  -44.0481 H         1 UNK         0.0600 
    146 H146        1.7727  -21.8427  -43.3091 H         1 UNK         0.0600 
    147 H147        2.4928  -22.8292  -44.5720 H         1 UNK         0.0600 
    148 H148        1.8947  -21.2204  -44.9542 H         1 UNK         0.0600 
    149 H149       -0.4395  -20.7957  -44.2175 H         1 UNK         0.3000 
    150 H150       -3.9863  -21.1572  -44.3536 H         1 UNK         0.0600 
    151 H151       -3.3317  -21.4840  -41.9581 H         1 UNK         0.0600 
    152 H152       -3.7866  -19.8186  -42.2827 H         1 UNK         0.0600 
    153 H153       -2.0849  -20.2523  -42.1234 H         1 UNK         0.0600 
    154 H154       -2.2782  -18.8732  -44.1638 H         1 UNK         0.3000 
    155 H155       -1.9937  -18.2638  -47.6759 H         1 UNK         0.0600 
    156 H156       -3.0323  -16.1318  -46.8396 H         1 UNK         0.0600 
    157 H157       -3.5757  -16.9614  -45.3890 H         1 UNK         0.0600 
    158 H158       -4.2172  -17.4192  -46.9623 H         1 UNK         0.0600 
    159 H159       -1.0075  -16.7284  -45.5673 H         1 UNK         0.3000 
    160 H160        1.9416  -18.3966  -44.7039 H         1 UNK         0.0600 
    161 H161        1.9281  -16.2985  -46.9394 H         1 UNK         0.0600 
    162 H162        2.6544  -17.8931  -47.0682 H         1 UNK         0.0600 
    163 H163        3.3009  -16.7292  -45.9219 H         1 UNK         0.0600 
    164 H164        1.3255  -15.6114  -44.6889 H         1 UNK         0.3000 
    165 H165       -0.9654  -15.4837  -42.0644 H         1 UNK         0.0600 
    166 H166        2.0249  -14.8307  -41.8446 H         1 UNK         0.0600 
    167 H167        0.7357  -14.1240  -40.8708 H         1 UNK         0.0600 
    168 H168        1.1168  -15.8322  -40.7170 H         1 UNK         0.0600 
    169 H169        0.6099  -13.4639  -43.3439 H         1 UNK         0.3000 
    170 H170       -0.0138  -12.9391  -45.9677 H         1 UNK         0.0600 
    171 H171       -2.2705  -13.4588  -46.8533 H         1 UNK         0.0600 
    172 H172       -3.0133  -12.4489  -45.6194 H         1 UNK         0.0600 
    173 H173       -1.9877  -11.7284  -46.8609 H         1 UNK         0.0600 
    174 H174       -1.4423  -10.9404  -44.4621 H         1 UNK         0.3000 
    175 H175       -0.0452   -9.1245  -43.8500 H         1 UNK         0.0600 
    176 H176       -0.0194   -8.9834  -41.3297 H         1 UNK         0.0600 
    177 H177       -1.0988  -10.2584  -41.8735 H         1 UNK         0.0600 
    178 H178        0.4895  -10.6685  -41.2350 H         1 UNK         0.0600 
    179 H179        2.5854  -10.1819  -43.1456 H         1 UNK         0.3000 
    180 H180        4.1410   -7.2764  -44.1890 H         1 UNK         0.0600 
    181 H181        4.2730   -8.1595  -41.2554 H         1 UNK         0.0600 
    182 H182        3.9469   -6.5235  -41.8140 H         1 UNK         0.0600 
    183 H183        5.5141   -7.2524  -42.1218 H         1 UNK         0.0600 
    184 H184        5.2387   -9.6157  -42.9986 H         1 UNK         0.3000 
    185 H185        6.4895  -10.8792  -44.6884 H         1 UNK         0.0600 
    186 H186        5.6078  -13.1613  -44.2469 H         1 UNK         0.0600 
    187 H187        4.7998  -12.0358  -43.1691 H         1 UNK         0.0600 
    188 H188        3.9654  -12.6389  -44.5974 H         1 UNK         0.0600 
    189 H189        4.7847  -11.1520  -47.0044 H         1 UNK         0.3000 
    190 H190       -2.4907  -22.0769  -47.5036 H         1 UNK         0.3000 
    191 H191       -4.0530  -23.6525  -49.2748 H         1 UNK         0.0600 
    192 H192       -5.0410  -21.8548  -47.9191 H         1 UNK         0.0600 
    193 H193       -5.8360  -23.3742  -47.5478 H         1 UNK         0.0600 
    194 H194       -4.6522  -22.7091  -46.4251 H         1 UNK         0.0600 
    195 H195       -2.6587  -24.4514  -46.0409 H         1 UNK         0.3000 
    196 H196       -3.6934  -27.0760  -45.8613 H         1 UNK         0.0600 
    197 H197       -1.8800  -27.4002  -44.1659 H         1 UNK         0.0600 
    198 H198       -2.7415  -25.8889  -43.9223 H         1 UNK         0.0600 
    199 H199       -1.1413  -25.8814  -44.6589 H         1 UNK         0.0600 
    200 H200       -0.5683  -25.9181  -47.2189 H         1 UNK         0.3000 
    201 H201        0.4470  -28.4367  -48.0250 H         1 UNK         0.0600 
    202 H202        1.8332  -26.3866  -47.8504 H         1 UNK         0.0600 
    203 H203        0.9530  -25.6446  -49.1846 H         1 UNK         0.0600 
    204 H204        1.9550  -27.0630  -49.4679 H         1 UNK         0.0600 
    205 H205       -1.7715  -26.1970  -49.6637 H         1 UNK         0.3000 
    206 H206       -1.9234  -27.7491  -52.1266 H         1 UNK         0.0600 
    207 H207       -2.0945  -25.2563  -52.0832 H         1 UNK         0.0600 
    208 H208       -3.5233  -25.9941  -52.7806 H         1 UNK         0.0600 
    209 H209       -3.5723  -25.3716  -51.1305 H         1 UNK         0.0600 
    210 H210       -3.0595  -28.5388  -49.1658 H         1 UNK         0.3000 
    211 H211       -4.5283  -29.9383  -48.3307 H         1 UNK         0.0600 
    212 H212       -5.2079  -30.8080  -51.1868 H         1 UNK         0.0600 
    213 H213       -5.5336  -31.7029  -49.7110 H         1 UNK         0.0600 
    214 H214       -3.8742  -31.4344  -50.2182 H         1 UNK         0.0600 
    215 H215       -5.3005  -27.3885  -48.3664 H         1 UNK         0.3000 
    216 H216       -6.9341  -26.1219  -47.6752 H         1 UNK         0.0600 
    217 H217       -7.8631  -28.1119  -46.4734 H         1 UNK         0.0600 
    218 H218       -8.8831  -28.4725  -47.8664 H         1 UNK         0.0600 
    219 H219       -9.1120  -26.9816  -46.9669 H         1 UNK         0.0600 
    220 H220       -6.1726  -26.1181  -50.3674 H         1 UNK         0.3000 
    221 H221       -8.4879  -25.6472  -52.0625 H         1 UNK         0.0600 
    222 H222       -5.5670  -24.8046  -52.4393 H         1 UNK         0.0600 
    223 H223       -6.2373  -26.3537  -52.9616 H         1 UNK         0.0600 
    224 H224       -6.8075  -24.8543  -53.6800 H         1 UNK         0.0600 
    225 H225       -9.3646  -23.6714  -52.6596 H         1 UNK         0.3000 
    226 H226       -9.0254  -21.3648  -50.8866 H         1 UNK         0.0600 
    227 H227      -11.2911  -22.0476  -51.6823 H         1 UNK         0.0600 
    228 H228      -10.8885  -20.4422  -52.2695 H         1 UNK         0.0600 
    229 H229      -10.7909  -21.8202  -53.3585 H         1 UNK         0.0600 
    230 H230       -8.4145  -19.2943  -51.6142 H         1 UNK         0.3000 
    231 H231       -7.1395  -17.7485  -52.5463 H         1 UNK         0.0600 
    232 H232       -7.2814  -17.4165  -54.9811 H         1 UNK         0.0600 
    233 H233       -8.8444  -17.9302  -54.3691 H         1 UNK         0.0600 
    234 H234       -7.8114  -19.0747  -55.2243 H         1 UNK         0.0600 
    235 H235       -5.7288  -19.8993  -51.4881 H         1 UNK         0.3000 
    236 H236       -3.7350  -21.0249  -53.0770 H         1 UNK         0.0600 
    237 H237       -2.6986  -21.6375  -50.9235 H         1 UNK         0.0600 
    238 H238       -3.6664  -20.4415  -50.0667 H         1 UNK         0.0600 
    239 H239       -4.4386  -21.8359  -50.8247 H         1 UNK         0.0600 
    240 H240       -3.8262  -17.7821  -51.8308 H         1 UNK         0.3000 
    241 H241       -0.9862  -17.2366  -52.1445 H         1 UNK         0.0600 
    242 H242       -2.6240  -16.7452  -55.7848 H         1 UNK         0.3800 
    243 H243       -3.4458  -17.6681  -54.5522 H         1 UNK         0.3800 
    244 H244       -1.5506  -14.8991  -51.6647 H         1 UNK         0.0800 
    245 H245       -3.2526  -15.2086  -51.8807 H         1 UNK         0.0800 
    246 H246       -0.9808  -14.2680  -49.2534 H         1 UNK         0.0800 
    247 H247       -1.0441  -15.4342  -47.9571 H         1 UNK         0.0800 
@<TRIPOS>BOND
     1    1    2 1    
     2    1  127 1    
     3    1  128 1    
     4    1  129 1    
     5    2    3 2    
     6    2    4 am   BACKBONE|DICT|INTERRES
     7    4    5 1    
     8    4  130 1    
     9    5    6 1    
    10    5   65 1    
    11    5  131 1    
    12    6    7 1    
    13    6  132 1    
    14    6  133 1    
    15    7    8 1    
    16    8    9 1    
    17    8  134 1    
    18    8  135 1    
    19    9   10 ar   
    20    9   14 ar   
    21   10   11 ar   
    22   10  136 1    
    23   11   12 ar   
    24   11  126 1    
    25   12   13 ar   
    26   12  137 1    
    27   13   14 ar   
    28   13   15 1    
    29   14  138 1    
    30   15   16 1    
    31   15  139 1    
    32   15  140 1    
    33   16   17 1    
    34   17   18 1    
    35   17  141 1    
    36   17  142 1    
    37   18   19 1    
    38   18   67 1    
    39   18  143 1    
    40   19   20 am   BACKBONE|DICT|INTERRES
    41   19  144 1    
    42   20   21 2    
    43   20   22 1    
    44   22   23 1    
    45   22   24 1    
    46   22  145 1    
    47   23  146 1    
    48   23  147 1    
    49   23  148 1    
    50   24   25 am   BACKBONE|DICT|INTERRES
    51   24  149 1    
    52   25   26 2    
    53   25   27 1    
    54   27   28 1    
    55   27   29 1    
    56   27  150 1    
    57   28  151 1    
    58   28  152 1    
    59   28  153 1    
    60   29   30 am   BACKBONE|DICT|INTERRES
    61   29  154 1    
    62   30   31 2    
    63   30   32 1    
    64   32   33 1    
    65   32   34 1    
    66   32  155 1    
    67   33  156 1    
    68   33  157 1    
    69   33  158 1    
    70   34   35 am   BACKBONE|DICT|INTERRES
    71   34  159 1    
    72   35   36 2    
    73   35   37 1    
    74   37   38 1    
    75   37   39 1    
    76   37  160 1    
    77   38  161 1    
    78   38  162 1    
    79   38  163 1    
    80   39   40 am   BACKBONE|DICT|INTERRES
    81   39  164 1    
    82   40   41 2    
    83   40   42 1    
    84   42   43 1    
    85   42   44 1    
    86   42  165 1    
    87   43  166 1    
    88   43  167 1    
    89   43  168 1    
    90   44   45 am   BACKBONE|DICT|INTERRES
    91   44  169 1    
    92   45   46 2    
    93   45   47 1    
    94   47   48 1    
    95   47   49 1    
    96   47  170 1    
    97   48  171 1    
    98   48  172 1    
    99   48  173 1    
   100   49   50 am   BACKBONE|DICT|INTERRES
   101   49  174 1    
   102   50   51 2    
   103   50   52 1    
   104   52   53 1    
   105   52   54 1    
   106   52  175 1    
   107   53  176 1    
   108   53  177 1    
   109   53  178 1    
   110   54   55 am   BACKBONE|DICT|INTERRES
   111   54  179 1    
   112   55   56 2    
   113   55   57 1    
   114   57   58 1    
   115   57   59 1    
   116   57  180 1    
   117   58  181 1    
   118   58  182 1    
   119   58  183 1    
   120   59   60 am   BACKBONE|DICT|INTERRES
   121   59  184 1    
   122   60   61 2    
   123   60   62 1    
   124   62   63 1    
   125   62   64 1    
   126   62  185 1    
   127   63  186 1    
   128   63  187 1    
   129   63  188 1    
   130   64   65 am   BACKBONE|DICT|INTERRES
   131   64  189 1    
   132   65   66 2    
   133   67   68 2    
   134   67   69 am   BACKBONE|DICT|INTERRES
   135   69   70 1    
   136   69  190 1    
   137   70   71 1    
   138   70   72 1    
   139   70  191 1    
   140   71  192 1    
   141   71  193 1    
   142   71  194 1    
   143   72   73 2    
   144   72   74 am   BACKBONE|DICT|INTERRES
   145   74   75 1    
   146   74  195 1    
   147   75   76 1    
   148   75   77 1    
   149   75  196 1    
   150   76  197 1    
   151   76  198 1    
   152   76  199 1    
   153   77   78 2    
   154   77   79 am   BACKBONE|DICT|INTERRES
   155   79   80 1    
   156   79  200 1    
   157   80   81 1    
   158   80   82 1    
   159   80  201 1    
   160   81  202 1    
   161   81  203 1    
   162   81  204 1    
   163   82   83 2    
   164   82   84 am   BACKBONE|DICT|INTERRES
   165   84   85 1    
   166   84  205 1    
   167   85   86 1    
   168   85   87 1    
   169   85  206 1    
   170   86  207 1    
   171   86  208 1    
   172   86  209 1    
   173   87   88 2    
   174   87   89 am   BACKBONE|DICT|INTERRES
   175   89   90 1    
   176   89  210 1    
   177   90   91 1    
   178   90   92 1    
   179   90  211 1    
   180   91  212 1    
   181   91  213 1    
   182   91  214 1    
   183   92   93 2    
   184   92   94 am   BACKBONE|DICT|INTERRES
   185   94   95 1    
   186   94  215 1    
   187   95   96 1    
   188   95   97 1    
   189   95  216 1    
   190   96  217 1    
   191   96  218 1    
   192   96  219 1    
   193   97   98 2    
   194   97   99 am   BACKBONE|DICT|INTERRES
   195   99  100 1    
   196   99  220 1    
   197  100  101 1    
   198  100  102 1    
   199  100  221 1    
   200  101  222 1    
   201  101  223 1    
   202  101  224 1    
   203  102  103 2    
   204  102  104 am   BACKBONE|DICT|INTERRES
   205  104  105 1    
   206  104  225 1    
   207  105  106 1    
   208  105  107 1    
   209  105  226 1    
   210  106  227 1    
   211  106  228 1    
   212  106  229 1    
   213  107  108 2    
   214  107  109 am   BACKBONE|DICT|INTERRES
   215  109  110 1    
   216  109  230 1    
   217  110  111 1    
   218  110  112 1    
   219  110  231 1    
   220  111  232 1    
   221  111  233 1    
   222  111  234 1    
   223  112  113 2    
   224  112  114 am   BACKBONE|DICT|INTERRES
   225  114  115 1    
   226  114  235 1    
   227  115  116 1    
   228  115  117 1    
   229  115  236 1    
   230  116  237 1    
   231  116  238 1    
   232  116  239 1    
   233  117  118 2    
   234  117  119 am   BACKBONE|DICT|INTERRES
   235  119  120 1    
   236  119  240 1    
   237  120  121 1    
   238  120  124 1    
   239  120  241 1    
   240  121  122 am   BACKBONE|DICT|INTERRES
   241  121  123 2    
   242  122  242 1    
   243  122  243 1    
   244  124  125 1    
   245  124  244 1    
   246  124  245 1    
   247  125  126 1    
   248  126  246 1    
   249  126  247 1    
@<TRIPOS>SUBSTRUCTURE
     1 UNK         1 GROUP             0       ****    0 ROOT    
