@<TRIPOS>MOLECULE
3R540
247   249    1
SMALL
USER_CHARGES


@<TRIPOS>ATOM
      1 CA         -5.3813  -15.4737  -44.8836 C.3       0 UNK        -0.1800 
      2 C          -3.9395  -15.2298  -45.3046 C.2       0 UNK         0.5000 
      3 O          -3.0231  -15.7298  -44.6566 O.2       0 UNK        -0.5000 
      4 N          -3.7385  -14.4527  -46.3766 N.am      1 UNK        -0.5000 
      5 CA         -2.4592  -14.0751  -47.0013 C.3       1 UNK         0.1400 
      6 C6         -1.5968  -15.2741  -47.4803 C.3       23 UNK        -0.0398 
      7 S7         -2.4382  -16.2039  -48.8071 S.3       23 UNK        -0.2404 
      8 C8         -1.5374  -15.6284  -50.2902 C.3       23 UNK        -0.0205 
      9 C9         -0.4612  -16.6022  -50.7643 C.ar      23 UNK        -0.0193 
     10 C10        -0.3572  -16.9138  -52.1246 C.ar      23 UNK        -0.1150 
     11 C11         0.6069  -17.8193  -52.5796 C.ar      23 UNK        -0.0193 
     12 C12         1.4768  -18.4142  -51.6629 C.ar      23 UNK        -0.1150 
     13 C13         1.3658  -18.1359  -50.3003 C.ar      23 UNK        -0.0193 
     14 C14         0.4199  -17.2056  -49.8608 C.ar      23 UNK        -0.1150 
     15 C15         2.2129  -18.8990  -49.2930 C.3       23 UNK        -0.0205 
     16 S16         1.6667  -20.6350  -49.1169 S.3       23 UNK        -0.2404 
     17 C17        -0.1473  -20.4528  -48.9964 C.3       23 UNK        -0.0398 
     18 CA         -0.8287  -21.4999  -48.0915 C.3       11 UNK         0.1400 
     19 N          -0.3246  -21.4541  -46.7162 N.am      11 UNK        -0.5000 
     20 C          -0.6059  -22.3594  -45.7681 C.2       10 UNK         0.5000 
     21 O          -1.3056  -23.3521  -45.9596 O.2       10 UNK        -0.5000 
     22 CA         -0.0690  -22.0761  -44.3526 C.3       10 UNK         0.1400 
     23 CB          1.3327  -22.6766  -44.1774 C.3       10 UNK        -0.1800 
     24 N          -0.0407  -20.6461  -44.0380 N.am      10 UNK        -0.5000 
     25 C          -1.1313  -19.8659  -43.9755 C.2       9 UNK         0.5000 
     26 O          -2.2749  -20.2975  -44.1203 O.2       9 UNK        -0.5000 
     27 CA         -0.9249  -18.3538  -43.7646 C.3       9 UNK         0.1400 
     28 CB         -1.3106  -17.9431  -42.3374 C.3       9 UNK        -0.1800 
     29 N           0.4357  -17.8953  -44.0489 N.am      9 UNK        -0.5000 
     30 C           0.9945  -17.8781  -45.2671 C.2       8 UNK         0.5000 
     31 O           0.4131  -18.2395  -46.2900 O.2       8 UNK        -0.5000 
     32 CA          2.4641  -17.4284  -45.3387 C.3       8 UNK         0.1400 
     33 CB          2.5530  -15.9160  -45.5825 C.3       8 UNK        -0.1800 
     34 N           3.2086  -17.7702  -44.1254 N.am      8 UNK        -0.5000 
     35 C           3.5636  -19.0145  -43.7777 C.2       7 UNK         0.5000 
     36 O           3.3036  -20.0038  -44.4626 O.2       7 UNK        -0.5000 
     37 CA          4.3085  -19.1712  -42.4341 C.3       7 UNK         0.1400 
     38 CB          5.0147  -20.5354  -42.2913 C.3       7 UNK        -0.1800 
     39 N           5.2380  -18.0694  -42.1614 N.am      7 UNK        -0.5000 
     40 C           6.2938  -17.6837  -42.8934 C.2       6 UNK         0.5000 
     41 O           6.6743  -18.2678  -43.9095 O.2       6 UNK        -0.5000 
     42 CA          7.0157  -16.4024  -42.4183 C.3       6 UNK         0.1400 
     43 CB          8.1094  -15.9363  -43.3966 C.3       6 UNK        -0.1800 
     44 N           6.0699  -15.3017  -42.2151 N.am      6 UNK        -0.5000 
     45 C           5.3087  -15.1217  -41.1287 C.2       5 UNK         0.5000 
     46 O           5.3787  -15.8477  -40.1340 O.2       5 UNK        -0.5000 
     47 CA          4.2730  -13.9756  -41.1617 C.3       5 UNK         0.1400 
     48 CB          4.0438  -13.3729  -42.5649 C.3       5 UNK        -0.1800 
     49 N           2.9929  -14.3770  -40.5699 N.am      5 UNK        -0.5000 
     50 C           2.2253  -15.4228  -40.9077 C.2       4 UNK         0.5000 
     51 O           2.4650  -16.1852  -41.8459 O.2       4 UNK        -0.5000 
     52 CA          0.9576  -15.6466  -40.0643 C.3       4 UNK         0.1400 
     53 CB          1.2897  -16.0547  -38.6160 C.3       4 UNK        -0.1800 
     54 N           0.0252  -14.5169  -40.1275 N.am      4 UNK        -0.5000 
     55 C           0.1594  -13.2772  -39.6372 C.2       3 UNK         0.5000 
     56 O           1.1109  -12.9078  -38.9455 O.2       3 UNK        -0.5000 
     57 CA         -0.9292  -12.2714  -40.0695 C.3       3 UNK         0.1400 
     58 CB         -0.8480  -10.9409  -39.3000 C.3       3 UNK        -0.1800 
     59 N          -0.8247  -11.9948  -41.5044 N.am      3 UNK        -0.5000 
     60 C          -1.2212  -12.8224  -42.4791 C.2       2 UNK         0.5000 
     61 O          -1.8318  -13.8744  -42.2708 O.2       2 UNK        -0.5000 
     62 CA         -0.8056  -12.4398  -43.9059 C.3       2 UNK         0.1400 
     63 CB          0.7205  -12.5773  -44.0724 C.3       2 UNK        -0.1800 
     64 N          -1.4973  -13.3031  -44.8582 N.am      2 UNK        -0.5000 
     65 C          -1.6313  -13.0729  -46.1676 C.2       1 UNK         0.5000 
     66 O          -1.1485  -12.0894  -46.7310 O.2       1 UNK        -0.5000 
     67 C          -2.3572  -21.3003  -48.1498 C.2       11 UNK         0.5000 
     68 O          -3.0185  -21.9106  -48.9913 O.2       11 UNK        -0.5000 
     69 N          -2.8887  -20.4517  -47.2590 N.am      12 UNK        -0.5000 
     70 CA         -4.3204  -20.2057  -47.1097 C.3       12 UNK         0.1400 
     71 CB         -4.5462  -18.8692  -46.3876 C.3       12 UNK        -0.1800 
     72 C          -5.0144  -21.3652  -46.3775 C.2       12 UNK         0.5000 
     73 O          -6.0815  -21.7966  -46.8119 O.2       12 UNK        -0.5000 
     74 N          -4.3784  -21.8821  -45.3157 N.am      13 UNK        -0.5000 
     75 CA         -4.8493  -23.0261  -44.5292 C.3       13 UNK         0.1400 
     76 CB         -3.9488  -23.2064  -43.2985 C.3       13 UNK        -0.1800 
     77 C          -4.9241  -24.3318  -45.3441 C.2       13 UNK         0.5000 
     78 O          -5.8829  -25.0894  -45.1932 O.2       13 UNK        -0.5000 
     79 N          -3.9345  -24.5501  -46.2212 N.am      14 UNK        -0.5000 
     80 CA         -3.8894  -25.6600  -47.1769 C.3       14 UNK         0.1400 
     81 CB         -2.4416  -25.8296  -47.6653 C.3       14 UNK        -0.1800 
     82 C          -4.8333  -25.4722  -48.3830 C.2       14 UNK         0.5000 
     83 O          -5.0137  -26.4161  -49.1524 O.2       14 UNK        -0.5000 
     84 N          -5.3822  -24.2584  -48.5467 N.am      15 UNK        -0.5000 
     85 CA         -6.2290  -23.7850  -49.6476 C.3       15 UNK         0.1400 
     86 CB         -7.5387  -24.5936  -49.7414 C.3       15 UNK        -0.1800 
     87 C          -5.4990  -23.6865  -51.0031 C.2       15 UNK         0.5000 
     88 O          -6.1508  -23.4944  -52.0295 O.2       15 UNK        -0.5000 
     89 N          -4.1610  -23.7576  -50.9920 N.am      16 UNK        -0.5000 
     90 CA         -3.3030  -23.6057  -52.1658 C.3       16 UNK         0.1400 
     91 CB         -1.8601  -23.9862  -51.8027 C.3       16 UNK        -0.1800 
     92 C          -3.3583  -22.1814  -52.7376 C.2       16 UNK         0.5000 
     93 O          -3.3652  -22.0190  -53.9573 O.2       16 UNK        -0.5000 
     94 N          -3.4403  -21.1835  -51.8471 N.am      17 UNK        -0.5000 
     95 CA         -3.6229  -19.7772  -52.2045 C.3       17 UNK         0.1400 
     96 CB         -3.3539  -18.8989  -50.9767 C.3       17 UNK        -0.1800 
     97 C          -5.0201  -19.4881  -52.7821 C.2       17 UNK         0.5000 
     98 O          -5.1429  -18.6681  -53.6914 O.2       17 UNK        -0.5000 
     99 N          -6.0420  -20.1804  -52.2587 N.am      18 UNK        -0.5000 
    100 CA        -7.4325  -20.0717  -52.7029 C.3       18 UNK         0.1400 
    101 CB        -8.3594  -20.6808  -51.6391 C.3       18 UNK        -0.1800 
    102 C         -7.6553  -20.7339  -54.0741 C.2       18 UNK         0.5000 
    103 O         -8.3426  -20.1651  -54.9227 O.2       18 UNK        -0.5000 
    104 N         -7.0468  -21.9108  -54.2727 N.am      19 UNK        -0.5000 
    105 CA        -7.0724  -22.6660  -55.5263 C.3       19 UNK         0.1400 
    106 CB        -6.6491  -24.1141  -55.2308 C.3       19 UNK        -0.1800 
    107 C         -6.1696  -22.0692  -56.6244 C.2       19 UNK         0.5000 
    108 O         -6.3274  -22.4337  -57.7901 O.2       19 UNK        -0.5000 
    109 N         -5.2226  -21.2039  -56.2287 N.am      20 UNK        -0.5000 
    110 CA        -4.1220  -20.6537  -57.0303 C.3       20 UNK         0.1400 
    111 CB        -4.6463  -19.7711  -58.1815 C.3       20 UNK        -0.1800 
    112 C         -3.1336  -21.7462  -57.4974 C.2       20 UNK         0.5000 
    113 O         -2.5136  -21.6231  -58.5549 O.2       20 UNK        -0.5000 
    114 N         -2.9981  -22.7946  -56.6762 N.am      21 UNK        -0.5000 
    115 CA        -2.0838  -23.9208  -56.8577 C.3       21 UNK         0.1400 
    116 CB        -2.7061  -25.1591  -56.1931 C.3       21 UNK        -0.1800 
    117 C         -0.6884  -23.6345  -56.2693 C.2       21 UNK         0.5000 
    118 O          0.2408  -24.4054  -56.5109 O.2       21 UNK        -0.5000 
    119 N         -0.5689  -22.5417  -55.5051 N.am      22 UNK        -0.5000 
    120 CA         0.6603  -22.0556  -54.8636 C.3       22 UNK         0.1400 
    121 C          1.7951  -21.5850  -55.8247 C.2       22 UNK         0.5000 
    122 N          1.5439  -21.3928  -57.1141 N.am      22 UNK        -0.7600 
    123 O          2.9278  -21.3979  -55.3891 O.2       22 UNK        -0.5000 
    124 C124        0.3304  -20.9802  -53.7984 C.3       23 UNK        -0.0398 
    125 S125       -0.4879  -19.4947  -54.4905 S.3       23 UNK        -0.2404 
    126 C126        0.6889  -18.1745  -54.0565 C.3       23 UNK        -0.0205 
    127 H127       -6.0893  -15.0820  -45.6142 H         1 UNK         0.0600 
    128 H128       -5.5762  -14.9929  -43.9250 H         1 UNK         0.0600 
    129 H129       -5.5648  -16.5420  -44.7719 H         1 UNK         0.0600 
    130 H130       -4.5496  -14.0636  -46.8362 H         1 UNK         0.3000 
    131 H131       -2.7483  -13.5212  -47.8964 H         1 UNK         0.0600 
    132 H132       -0.6256  -14.9342  -47.8437 H         1 UNK         0.0800 
    133 H133       -1.3786  -15.9585  -46.6597 H         1 UNK         0.0800 
    134 H134       -1.0886  -14.6505  -50.1134 H         1 UNK         0.0800 
    135 H135       -2.2751  -15.4807  -51.0802 H         1 UNK         0.0800 
    136 H136       -1.0373  -16.4630  -52.8337 H         1 UNK         0.1150 
    137 H137        2.2166  -19.1263  -51.9986 H         1 UNK         0.1150 
    138 H138        0.3370  -16.9938  -48.8045 H         1 UNK         0.1150 
    139 H139        2.1715  -18.4137  -48.3192 H         1 UNK         0.0800 
    140 H140        3.2587  -18.8804  -49.6020 H         1 UNK         0.0800 
    141 H141       -0.5433  -20.5061  -50.0125 H         1 UNK         0.0800 
    142 H142       -0.3830  -19.4555  -48.6235 H         1 UNK         0.0800 
    143 H143       -0.6142  -22.4925  -48.4933 H         1 UNK         0.0600 
    144 H144        0.2438  -20.6525  -46.4766 H         1 UNK         0.3000 
    145 H145       -0.7355  -22.5594  -43.6364 H         1 UNK         0.0600 
    146 H146        1.3079  -23.7598  -44.3022 H         1 UNK         0.0600 
    147 H147        1.7328  -22.4720  -43.1841 H         1 UNK         0.0600 
    148 H148        2.0349  -22.2814  -44.9120 H         1 UNK         0.0600 
    149 H149        0.8704  -20.2203  -43.9428 H         1 UNK         0.3000 
    150 H150       -1.5975  -17.8502  -44.4598 H         1 UNK         0.0600 
    151 H151       -0.6490  -18.3923  -41.5961 H         1 UNK         0.0600 
    152 H152       -2.3290  -18.2561  -42.1034 H         1 UNK         0.0600 
    153 H153       -1.2752  -16.8596  -42.2212 H         1 UNK         0.0600 
    154 H154        0.9874  -17.5724  -43.2658 H         1 UNK         0.3000 
    155 H155        2.9338  -17.9406  -46.1798 H         1 UNK         0.0600 
    156 H156        3.5883  -15.5936  -45.6938 H         1 UNK         0.0600 
    157 H157        2.1133  -15.3562  -44.7581 H         1 UNK         0.0600 
    158 H158        2.0224  -15.6339  -46.4930 H         1 UNK         0.0600 
    159 H159        3.3596  -17.0250  -43.4540 H         1 UNK         0.3000 
    160 H160        3.5416  -19.1165  -41.6602 H         1 UNK         0.0600 
    161 H161        5.7605  -20.6894  -43.0716 H         1 UNK         0.0600 
    162 H162        4.2986  -21.3554  -42.3585 H         1 UNK         0.0600 
    163 H163        5.5149  -20.6215  -41.3268 H         1 UNK         0.0600 
    164 H164        5.0130  -17.4970  -41.3546 H         1 UNK         0.3000 
    165 H165        7.5008  -16.6396  -41.4691 H         1 UNK         0.0600 
    166 H166        8.8645  -16.7105  -43.5384 H         1 UNK         0.0600 
    167 H167        7.6969  -15.6942  -44.3769 H         1 UNK         0.0600 
    168 H168        8.6227  -15.0511  -43.0207 H         1 UNK         0.0600 
    169 H169        5.9316  -14.6853  -43.0027 H         1 UNK         0.3000 
    170 H170        4.6732  -13.1879  -40.5223 H         1 UNK         0.0600 
    171 H171        3.3171  -12.5629  -42.5195 H         1 UNK         0.0600 
    172 H172        3.6721  -14.1137  -43.2731 H         1 UNK         0.0600 
    173 H173        4.9607  -12.9465  -42.9730 H         1 UNK         0.0600 
    174 H174        2.6642  -13.8065  -39.7970 H         1 UNK         0.3000 
    175 H175        0.4307  -16.4871  -40.5146 H         1 UNK         0.0600 
    176 H176        1.9043  -16.9555  -38.6011 H         1 UNK         0.0600 
    177 H177        1.8400  -15.2810  -38.0807 H         1 UNK         0.0600 
    178 H178        0.3827  -16.2710  -38.0516 H         1 UNK         0.0600 
    179 H179       -0.7634  -14.6546  -40.7528 H         1 UNK         0.3000 
    180 H180       -1.9020  -12.7208  -39.8586 H         1 UNK         0.0600 
    181 H181        0.0939  -10.4226  -39.4841 H         1 UNK         0.0600 
    182 H182       -0.9277  -11.1069  -38.2249 H         1 UNK         0.0600 
    183 H183       -1.6597  -10.2715  -39.5852 H         1 UNK         0.0600 
    184 H184       -0.3048  -11.1661  -41.7549 H         1 UNK         0.3000 
    185 H185       -1.1060  -11.4055  -44.0855 H         1 UNK         0.0600 
    186 H186        1.2449  -11.8462  -43.4572 H         1 UNK         0.0600 
    187 H187        1.0644  -13.5663  -43.7698 H         1 UNK         0.0600 
    188 H188        1.0381  -12.4112  -45.1015 H         1 UNK         0.0600 
    189 H189       -1.9480  -14.1217  -44.4513 H         1 UNK         0.3000 
    190 H190       -2.2803  -20.0090  -46.5857 H         1 UNK         0.3000 
    191 H191       -4.7665  -20.1272  -48.1030 H         1 UNK         0.0600 
    192 H192       -4.0875  -18.0451  -46.9339 H         1 UNK         0.0600 
    193 H193       -5.6111  -18.6495  -46.3033 H         1 UNK         0.0600 
    194 H194       -4.1318  -18.8713  -45.3795 H         1 UNK         0.0600 
    195 H195       -3.5284  -21.4283  -44.9914 H         1 UNK         0.3000 
    196 H196       -5.8578  -22.7935  -44.1813 H         1 UNK         0.0600 
    197 H197       -4.3208  -24.0065  -42.6574 H         1 UNK         0.0600 
    198 H198       -3.9118  -22.2973  -42.6979 H         1 UNK         0.0600 
    199 H199       -2.9286  -23.4628  -43.5829 H         1 UNK         0.0600 
    200 H200       -3.1361  -23.9208  -46.2258 H         1 UNK         0.3000 
    201 H201       -4.1887  -26.5761  -46.6638 H         1 UNK         0.0600 
    202 H202       -2.3529  -26.6714  -48.3532 H         1 UNK         0.0600 
    203 H203       -1.7647  -26.0204  -46.8324 H         1 UNK         0.0600 
    204 H204       -2.0872  -24.9395  -48.1874 H         1 UNK         0.0600 
    205 H205       -5.1824  -23.5607  -47.8414 H         1 UNK         0.3000 
    206 H206       -6.5003  -22.7609  -49.3886 H         1 UNK         0.0600 
    207 H207       -8.0412  -24.6423  -48.7753 H         1 UNK         0.0600 
    208 H208       -8.2338  -24.1325  -50.4439 H         1 UNK         0.0600 
    209 H209       -7.3642  -25.6140  -50.0827 H         1 UNK         0.0600 
    210 H210       -3.6996  -23.8147  -50.0947 H         1 UNK         0.3000 
    211 H211       -3.6598  -24.2916  -52.9362 H         1 UNK         0.0600 
    212 H212       -1.8037  -25.0122  -51.4386 H         1 UNK         0.0600 
    213 H213       -1.2074  -23.9145  -52.6738 H         1 UNK         0.0600 
    214 H214       -1.4519  -23.3335  -51.0299 H         1 UNK         0.0600 
    215 H215       -3.4087  -21.4142  -50.8585 H         1 UNK         0.3000 
    216 H216       -2.8929  -19.5184  -52.9711 H         1 UNK         0.0600 
    217 H217       -4.0255  -19.1350  -50.1518 H         1 UNK         0.0600 
    218 H218       -3.4909  -17.8447  -51.2193 H         1 UNK         0.0600 
    219 H219       -2.3304  -19.0156  -50.6229 H         1 UNK         0.0600 
    220 H220       -5.8448  -20.8577  -51.5387 H         1 UNK         0.3000 
    221 H221       -7.6797  -19.0121  -52.7988 H         1 UNK         0.0600 
    222 H222       -8.1701  -21.7445  -51.4950 H         1 UNK         0.0600 
    223 H223       -8.2357  -20.1844  -50.6765 H         1 UNK         0.0600 
    224 H224       -9.4055  -20.5722  -51.9281 H         1 UNK         0.0600 
    225 H225       -6.5628  -22.3503  -53.4938 H         1 UNK         0.3000 
    226 H226       -8.0957  -22.6765  -55.9072 H         1 UNK         0.0600 
    227 H227       -7.3121  -24.5773  -54.4998 H         1 UNK         0.0600 
    228 H228       -6.6816  -24.7263  -56.1330 H         1 UNK         0.0600 
    229 H229       -5.6328  -24.1621  -54.8372 H         1 UNK         0.0600 
    230 H230       -5.1722  -21.0028  -55.2392 H         1 UNK         0.3000 
    231 H231       -3.5569  -20.0089  -56.3553 H         1 UNK         0.0600 
    232 H232       -5.1508  -20.3583  -58.9490 H         1 UNK         0.0600 
    233 H233       -3.8279  -19.2379  -58.6663 H         1 UNK         0.0600 
    234 H234       -5.3482  -19.0222  -57.8146 H         1 UNK         0.0600 
    235 H235       -3.4787  -22.7474  -55.7836 H         1 UNK         0.3000 
    236 H236       -1.9630  -24.1230  -57.9238 H         1 UNK         0.0600 
    237 H237       -2.8258  -25.0211  -55.1183 H         1 UNK         0.0600 
    238 H238       -3.6870  -25.3813  -56.6139 H         1 UNK         0.0600 
    239 H239       -2.0810  -26.0402  -56.3436 H         1 UNK         0.0600 
    240 H240       -1.3935  -21.9780  -55.3511 H         1 UNK         0.3000 
    241 H241        1.0785  -22.9104  -54.3289 H         1 UNK         0.0600 
    242 H242        0.6174  -21.5371  -57.4823 H         1 UNK         0.3800 
    243 H243        2.2865  -21.0927  -57.7258 H         1 UNK         0.3800 
    244 H244       -0.3319  -21.4013  -53.0413 H         1 UNK         0.0800 
    245 H245        1.2373  -20.7032  -53.2633 H         1 UNK         0.0800 
    246 H246        1.7016  -18.4769  -54.3282 H         1 UNK         0.0800 
    247 H247        0.4639  -17.2918  -54.6568 H         1 UNK         0.0800 
@<TRIPOS>BOND
     1    1    2 1    
     2    1  127 1    
     3    1  128 1    
     4    1  129 1    
     5    2    3 2    
     6    2    4 am   BACKBONE|DICT|INTERRES
     7    4    5 1    
     8    4  130 1    
     9    5    6 1    
    10    5   65 1    
    11    5  131 1    
    12    6    7 1    
    13    6  132 1    
    14    6  133 1    
    15    7    8 1    
    16    8    9 1    
    17    8  134 1    
    18    8  135 1    
    19    9   10 ar   
    20    9   14 ar   
    21   10   11 ar   
    22   10  136 1    
    23   11   12 ar   
    24   11  126 1    
    25   12   13 ar   
    26   12  137 1    
    27   13   14 ar   
    28   13   15 1    
    29   14  138 1    
    30   15   16 1    
    31   15  139 1    
    32   15  140 1    
    33   16   17 1    
    34   17   18 1    
    35   17  141 1    
    36   17  142 1    
    37   18   19 1    
    38   18   67 1    
    39   18  143 1    
    40   19   20 am   BACKBONE|DICT|INTERRES
    41   19  144 1    
    42   20   21 2    
    43   20   22 1    
    44   22   23 1    
    45   22   24 1    
    46   22  145 1    
    47   23  146 1    
    48   23  147 1    
    49   23  148 1    
    50   24   25 am   BACKBONE|DICT|INTERRES
    51   24  149 1    
    52   25   26 2    
    53   25   27 1    
    54   27   28 1    
    55   27   29 1    
    56   27  150 1    
    57   28  151 1    
    58   28  152 1    
    59   28  153 1    
    60   29   30 am   BACKBONE|DICT|INTERRES
    61   29  154 1    
    62   30   31 2    
    63   30   32 1    
    64   32   33 1    
    65   32   34 1    
    66   32  155 1    
    67   33  156 1    
    68   33  157 1    
    69   33  158 1    
    70   34   35 am   BACKBONE|DICT|INTERRES
    71   34  159 1    
    72   35   36 2    
    73   35   37 1    
    74   37   38 1    
    75   37   39 1    
    76   37  160 1    
    77   38  161 1    
    78   38  162 1    
    79   38  163 1    
    80   39   40 am   BACKBONE|DICT|INTERRES
    81   39  164 1    
    82   40   41 2    
    83   40   42 1    
    84   42   43 1    
    85   42   44 1    
    86   42  165 1    
    87   43  166 1    
    88   43  167 1    
    89   43  168 1    
    90   44   45 am   BACKBONE|DICT|INTERRES
    91   44  169 1    
    92   45   46 2    
    93   45   47 1    
    94   47   48 1    
    95   47   49 1    
    96   47  170 1    
    97   48  171 1    
    98   48  172 1    
    99   48  173 1    
   100   49   50 am   BACKBONE|DICT|INTERRES
   101   49  174 1    
   102   50   51 2    
   103   50   52 1    
   104   52   53 1    
   105   52   54 1    
   106   52  175 1    
   107   53  176 1    
   108   53  177 1    
   109   53  178 1    
   110   54   55 am   BACKBONE|DICT|INTERRES
   111   54  179 1    
   112   55   56 2    
   113   55   57 1    
   114   57   58 1    
   115   57   59 1    
   116   57  180 1    
   117   58  181 1    
   118   58  182 1    
   119   58  183 1    
   120   59   60 am   BACKBONE|DICT|INTERRES
   121   59  184 1    
   122   60   61 2    
   123   60   62 1    
   124   62   63 1    
   125   62   64 1    
   126   62  185 1    
   127   63  186 1    
   128   63  187 1    
   129   63  188 1    
   130   64   65 am   BACKBONE|DICT|INTERRES
   131   64  189 1    
   132   65   66 2    
   133   67   68 2    
   134   67   69 am   BACKBONE|DICT|INTERRES
   135   69   70 1    
   136   69  190 1    
   137   70   71 1    
   138   70   72 1    
   139   70  191 1    
   140   71  192 1    
   141   71  193 1    
   142   71  194 1    
   143   72   73 2    
   144   72   74 am   BACKBONE|DICT|INTERRES
   145   74   75 1    
   146   74  195 1    
   147   75   76 1    
   148   75   77 1    
   149   75  196 1    
   150   76  197 1    
   151   76  198 1    
   152   76  199 1    
   153   77   78 2    
   154   77   79 am   BACKBONE|DICT|INTERRES
   155   79   80 1    
   156   79  200 1    
   157   80   81 1    
   158   80   82 1    
   159   80  201 1    
   160   81  202 1    
   161   81  203 1    
   162   81  204 1    
   163   82   83 2    
   164   82   84 am   BACKBONE|DICT|INTERRES
   165   84   85 1    
   166   84  205 1    
   167   85   86 1    
   168   85   87 1    
   169   85  206 1    
   170   86  207 1    
   171   86  208 1    
   172   86  209 1    
   173   87   88 2    
   174   87   89 am   BACKBONE|DICT|INTERRES
   175   89   90 1    
   176   89  210 1    
   177   90   91 1    
   178   90   92 1    
   179   90  211 1    
   180   91  212 1    
   181   91  213 1    
   182   91  214 1    
   183   92   93 2    
   184   92   94 am   BACKBONE|DICT|INTERRES
   185   94   95 1    
   186   94  215 1    
   187   95   96 1    
   188   95   97 1    
   189   95  216 1    
   190   96  217 1    
   191   96  218 1    
   192   96  219 1    
   193   97   98 2    
   194   97   99 am   BACKBONE|DICT|INTERRES
   195   99  100 1    
   196   99  220 1    
   197  100  101 1    
   198  100  102 1    
   199  100  221 1    
   200  101  222 1    
   201  101  223 1    
   202  101  224 1    
   203  102  103 2    
   204  102  104 am   BACKBONE|DICT|INTERRES
   205  104  105 1    
   206  104  225 1    
   207  105  106 1    
   208  105  107 1    
   209  105  226 1    
   210  106  227 1    
   211  106  228 1    
   212  106  229 1    
   213  107  108 2    
   214  107  109 am   BACKBONE|DICT|INTERRES
   215  109  110 1    
   216  109  230 1    
   217  110  111 1    
   218  110  112 1    
   219  110  231 1    
   220  111  232 1    
   221  111  233 1    
   222  111  234 1    
   223  112  113 2    
   224  112  114 am   BACKBONE|DICT|INTERRES
   225  114  115 1    
   226  114  235 1    
   227  115  116 1    
   228  115  117 1    
   229  115  236 1    
   230  116  237 1    
   231  116  238 1    
   232  116  239 1    
   233  117  118 2    
   234  117  119 am   BACKBONE|DICT|INTERRES
   235  119  120 1    
   236  119  240 1    
   237  120  121 1    
   238  120  124 1    
   239  120  241 1    
   240  121  122 am   BACKBONE|DICT|INTERRES
   241  121  123 2    
   242  122  242 1    
   243  122  243 1    
   244  124  125 1    
   245  124  244 1    
   246  124  245 1    
   247  125  126 1    
   248  126  246 1    
   249  126  247 1    
@<TRIPOS>SUBSTRUCTURE
     1 UNK         1 GROUP             0       ****    0 ROOT    
