@<TRIPOS>MOLECULE
3R540
247   249    1
SMALL
USER_CHARGES


@<TRIPOS>ATOM
      1 CA         -2.6388  -12.1716  -51.3880 C.3       0 UNK        -0.1800 
      2 C          -2.0730  -12.6543  -50.0597 C.2       0 UNK         0.5000 
      3 O          -1.9601  -11.8686  -49.1184 O.2       0 UNK        -0.5000 
      4 N          -1.7074  -13.9390  -49.9871 N.am      1 UNK        -0.5000 
      5 CA         -1.2275  -14.6203  -48.7817 C.3       1 UNK         0.1400 
      6 C6         -0.5405  -15.9749  -49.1060 C.3       23 UNK        -0.0398 
      7 S7         -1.4216  -17.0124  -50.3326 S.3       23 UNK        -0.2404 
      8 C8         -0.3189  -16.9299  -51.7862 C.3       23 UNK        -0.0205 
      9 C9          0.6965  -18.0661  -51.7989 C.ar      23 UNK        -0.0193 
     10 C10         0.5509  -19.1365  -52.6882 C.ar      23 UNK        -0.1150 
     11 C11         1.4520  -20.2059  -52.6687 C.ar      23 UNK        -0.0193 
     12 C12         2.5169  -20.1917  -51.7626 C.ar      23 UNK        -0.1150 
     13 C13         2.6856  -19.1195  -50.8832 C.ar      23 UNK        -0.0193 
     14 C14         1.7817  -18.0545  -50.9186 C.ar      23 UNK        -0.1150 
     15 C15         3.8412  -19.1062  -49.8913 C.3       23 UNK        -0.0205 
     16 S16         3.6093  -20.2806  -48.5144 S.3       23 UNK        -0.2404 
     17 C17         2.0555  -19.7047  -47.7487 C.3       23 UNK        -0.0398 
     18 CA          1.0793  -20.8827  -47.4844 C.3       11 UNK         0.1400 
     19 N           1.1384  -21.3420  -46.0942 N.am      11 UNK        -0.5000 
     20 C           0.4996  -22.4147  -45.6060 C.2       10 UNK         0.5000 
     21 O          -0.1529  -23.2005  -46.2938 O.2       10 UNK        -0.5000 
     22 CA          0.5438  -22.6003  -44.0777 C.3       10 UNK         0.1400 
     23 CB          1.8660  -23.2433  -43.6340 C.3       10 UNK        -0.1800 
     24 N           0.3389  -21.3401  -43.3598 N.am      10 UNK        -0.5000 
     25 C          -0.7860  -20.6121  -43.4227 C.2       9 UNK         0.5000 
     26 O          -1.7900  -20.9575  -44.0428 O.2       9 UNK        -0.5000 
     27 CA         -0.7771  -19.2504  -42.7108 C.3       9 UNK         0.1400 
     28 CB         -1.0055  -19.4349  -41.2019 C.3       9 UNK        -0.1800 
     29 N           0.4635  -18.5102  -42.9378 N.am      9 UNK        -0.5000 
     30 C           0.9013  -18.0693  -44.1264 C.2       8 UNK         0.5000 
     31 O           0.2746  -18.1939  -45.1766 O.2       8 UNK        -0.5000 
     32 CA          2.3102  -17.4490  -44.1598 C.3       8 UNK         0.1400 
     33 CB          2.2878  -15.9644  -43.7704 C.3       8 UNK        -0.1800 
     34 N           3.2410  -18.1691  -43.2926 N.am      8 UNK        -0.5000 
     35 C           3.6785  -19.4150  -43.5222 C.2       7 UNK         0.5000 
     36 O           3.3593  -20.0816  -44.5066 O.2       7 UNK        -0.5000 
     37 CA          4.5927  -20.0278  -42.4462 C.3       7 UNK         0.1400 
     38 CB          6.0495  -19.5905  -42.6591 C.3       7 UNK        -0.1800 
     39 N           4.1700  -19.6701  -41.0904 N.am      7 UNK        -0.5000 
     40 C           3.0452  -20.1161  -40.5138 C.2       6 UNK         0.5000 
     41 O           2.2691  -20.9049  -41.0540 O.2       6 UNK        -0.5000 
     42 CA          2.7092  -19.5432  -39.1223 C.3       6 UNK         0.1400 
     43 CB          3.4625  -20.3093  -38.0248 C.3       6 UNK        -0.1800 
     44 N           2.9853  -18.1061  -38.9940 N.am      6 UNK        -0.5000 
     45 C           2.3966  -17.1590  -39.7351 C.2       5 UNK         0.5000 
     46 O           1.5873  -17.4084  -40.6323 O.2       5 UNK        -0.5000 
     47 CA          2.7869  -15.6983  -39.4637 C.3       5 UNK         0.1400 
     48 CB          4.2173  -15.4062  -39.9523 C.3       5 UNK        -0.1800 
     49 N           1.8364  -14.8647  -40.1879 N.am      5 UNK        -0.5000 
     50 C           1.5442  -13.5772  -39.9875 C.2       4 UNK         0.5000 
     51 O           2.0872  -12.8758  -39.1333 O.2       4 UNK        -0.5000 
     52 CA          0.4586  -12.9711  -40.9034 C.3       4 UNK         0.1400 
     53 CB          1.1063  -12.1466  -42.0264 C.3       4 UNK        -0.1800 
     54 N          -0.4084  -13.9848  -41.5128 N.am      4 UNK        -0.5000 
     55 C          -1.3784  -14.6563  -40.8821 C.2       3 UNK         0.5000 
     56 O          -1.7133  -14.4244  -39.7194 O.2       3 UNK        -0.5000 
     57 CA         -2.0700  -15.7809  -41.6864 C.3       3 UNK         0.1400 
     58 CB         -3.1459  -16.5214  -40.8715 C.3       3 UNK        -0.1800 
     59 N          -2.6683  -15.3350  -42.9479 N.am      3 UNK        -0.5000 
     60 C          -2.0007  -15.0073  -44.0599 C.2       2 UNK         0.5000 
     61 O          -0.7696  -14.9794  -44.1325 O.2       2 UNK        -0.5000 
     62 CA         -2.8456  -14.6340  -45.2862 C.3       2 UNK         0.1400 
     63 CB         -3.5295  -13.2676  -45.0985 C.3       2 UNK        -0.1800 
     64 N          -1.9710  -14.5894  -46.4528 N.am      2 UNK        -0.5000 
     65 C          -2.3455  -14.7583  -47.7243 C.2       1 UNK         0.5000 
     66 O          -3.5028  -15.0079  -48.0693 O.2       1 UNK        -0.5000 
     67 C          -0.3637  -20.5394  -47.9069 C.2       11 UNK         0.5000 
     68 O          -0.8276  -21.0557  -48.9197 O.2       11 UNK        -0.5000 
     69 N          -1.0640  -19.7249  -47.1050 N.am      12 UNK        -0.5000 
     70 CA         -2.4554  -19.3265  -47.3284 C.3       12 UNK         0.1400 
     71 CB         -2.8707  -18.2947  -46.2712 C.3       12 UNK        -0.1800 
     72 C          -3.4389  -20.5104  -47.3496 C.2       12 UNK         0.5000 
     73 O          -4.3561  -20.5160  -48.1714 O.2       12 UNK        -0.5000 
     74 N          -3.2187  -21.4974  -46.4705 N.am      13 UNK        -0.5000 
     75 CA         -3.9733  -22.7477  -46.4147 C.3       13 UNK         0.1400 
     76 CB         -3.6166  -23.5159  -45.1331 C.3       13 UNK        -0.1800 
     77 C          -3.7504  -23.6188  -47.6628 C.2       13 UNK         0.5000 
     78 O          -4.7265  -24.0727  -48.2610 O.2       13 UNK        -0.5000 
     79 N          -2.4820  -23.7977  -48.0635 N.am      14 UNK        -0.5000 
     80 CA         -2.0877  -24.5135  -49.2826 C.3       14 UNK         0.1400 
     81 CB         -0.5575  -24.6446  -49.3316 C.3       14 UNK        -0.1800 
     82 C          -2.6142  -23.8417  -50.5651 C.2       14 UNK         0.5000 
     83 O          -3.0258  -24.5334  -51.4964 O.2       14 UNK        -0.5000 
     84 N          -2.6293  -22.5046  -50.5591 N.am      15 UNK        -0.5000 
     85 CA         -3.1486  -21.6473  -51.6183 C.3       15 UNK         0.1400 
     86 CB         -2.5263  -20.2543  -51.4545 C.3       15 UNK        -0.1800 
     87 C          -4.6807  -21.5249  -51.6274 C.2       15 UNK         0.5000 
     88 O          -5.1945  -20.8073  -52.4830 O.2       15 UNK        -0.5000 
     89 N          -5.3794  -22.1584  -50.6733 N.am      16 UNK        -0.5000 
     90 CA         -6.8348  -22.1459  -50.4947 C.3       16 UNK         0.1400 
     91 CB         -7.5125  -22.9768  -51.6036 C.3       16 UNK        -0.1800 
     92 C          -7.4102  -20.7177  -50.3703 C.2       16 UNK         0.5000 
     93 O          -8.3719  -20.3738  -51.0599 O.2       16 UNK        -0.5000 
     94 N          -6.7806  -19.9120  -49.5024 N.am      17 UNK        -0.5000 
     95 CA         -7.0524  -18.4945  -49.2473 C.3       17 UNK         0.1400 
     96 CB         -8.4771  -18.2793  -48.6930 C.3       17 UNK        -0.1800 
     97 C          -6.7230  -17.6142  -50.4701 C.2       17 UNK         0.5000 
     98 O          -7.5629  -16.8384  -50.9300 O.2       17 UNK        -0.5000 
     99 N          -5.4816  -17.7569  -50.9557 N.am      18 UNK        -0.5000 
    100 CA        -4.8495  -16.9739  -52.0243 C.3       18 UNK         0.1400 
    101 CB        -4.7351  -15.4856  -51.6318 C.3       18 UNK        -0.1800 
    102 C         -5.4583  -17.1811  -53.4274 C.2       18 UNK         0.5000 
    103 O         -5.3526  -16.2947  -54.2769 O.2       18 UNK        -0.5000 
    104 N         -6.0276  -18.3677  -53.6754 N.am      19 UNK        -0.5000 
    105 CA        -6.3584  -18.8551  -55.0177 C.3       19 UNK         0.1400 
    106 CB        -7.4400  -19.9410  -54.9086 C.3       19 UNK        -0.1800 
    107 C         -5.1091  -19.3959  -55.7487 C.2       19 UNK         0.5000 
    108 O         -5.0994  -19.4395  -56.9794 O.2       19 UNK        -0.5000 
    109 N         -4.0831  -19.7727  -54.9702 N.am      20 UNK        -0.5000 
    110 CA        -2.7962  -20.3442  -55.3693 C.3       20 UNK         0.1400 
    111 CB        -2.0100  -19.3887  -56.2947 C.3       20 UNK        -0.1800 
    112 C         -2.9539  -21.7821  -55.9011 C.2       20 UNK         0.5000 
    113 O         -3.8131  -22.5127  -55.4037 O.2       20 UNK        -0.5000 
    114 N         -2.0964  -22.1759  -56.8556 N.am      21 UNK        -0.5000 
    115 CA        -1.9692  -23.5260  -57.4205 C.3       21 UNK         0.1400 
    116 CB        -3.2242  -23.9067  -58.2346 C.3       21 UNK        -0.1800 
    117 C         -1.5960  -24.5685  -56.3437 C.2       21 UNK         0.5000 
    118 O         -2.2312  -25.6197  -56.2411 O.2       21 UNK        -0.5000 
    119 N         -0.5738  -24.2308  -55.5454 N.am      22 UNK        -0.5000 
    120 CA        -0.0826  -25.0210  -54.4023 C.3       22 UNK         0.1400 
    121 C          0.5496  -26.3993  -54.7641 C.2       22 UNK         0.5000 
    122 N          0.9159  -26.6603  -56.0132 N.am      22 UNK        -0.7600 
    123 O          0.7120  -27.2478  -53.8916 O.2       22 UNK        -0.5000 
    124 C124        0.9029  -24.2073  -53.5235 C.3       23 UNK        -0.0398 
    125 S125        0.1985  -22.6529  -52.8718 S.3       23 UNK        -0.2404 
    126 C126        1.2751  -21.3848  -53.6129 C.3       23 UNK        -0.0205 
    127 H127       -2.1100  -11.2782  -51.7203 H         1 UNK         0.0600 
    128 H128       -3.6945  -11.9239  -51.2772 H         1 UNK         0.0600 
    129 H129       -2.5457  -12.9286  -52.1670 H         1 UNK         0.0600 
    130 H130       -1.8592  -14.5457  -50.7794 H         1 UNK         0.3000 
    131 H131       -0.4612  -13.9751  -48.3455 H         1 UNK         0.0600 
    132 H132       -0.3850  -16.5657  -48.2009 H         1 UNK         0.0800 
    133 H133        0.4592  -15.7602  -49.4795 H         1 UNK         0.0800 
    134 H134        0.1945  -15.9682  -51.8239 H         1 UNK         0.0800 
    135 H135       -0.9372  -16.9742  -52.6840 H         1 UNK         0.0800 
    136 H136       -0.2803  -19.1525  -53.3784 H         1 UNK         0.1150 
    137 H137        3.2103  -21.0205  -51.7334 H         1 UNK         0.1150 
    138 H138        1.9160  -17.2260  -50.2408 H         1 UNK         0.1150 
    139 H139        4.7645  -19.3573  -50.4152 H         1 UNK         0.0800 
    140 H140        3.9879  -18.1053  -49.4825 H         1 UNK         0.0800 
    141 H141        1.6048  -18.9410  -48.3814 H         1 UNK         0.0800 
    142 H142        2.3034  -19.1842  -46.8248 H         1 UNK         0.0800 
    143 H143        1.3711  -21.7323  -48.1061 H         1 UNK         0.0600 
    144 H144        1.6949  -20.7813  -45.4577 H         1 UNK         0.3000 
    145 H145       -0.2694  -23.2751  -43.8023 H         1 UNK         0.0600 
    146 H146        1.8723  -23.4287  -42.5597 H         1 UNK         0.0600 
    147 H147        2.7231  -22.6122  -43.8682 H         1 UNK         0.0600 
    148 H148        2.0187  -24.2019  -44.1313 H         1 UNK         0.0600 
    149 H149        1.1043  -21.0103  -42.7820 H         1 UNK         0.3000 
    150 H150       -1.5974  -18.6534  -43.1137 H         1 UNK         0.0600 
    151 H151       -1.9844  -19.8755  -41.0095 H         1 UNK         0.0600 
    152 H152       -0.9639  -18.4872  -40.6675 H         1 UNK         0.0600 
    153 H153       -0.2590  -20.0920  -40.7566 H         1 UNK         0.0600 
    154 H154        1.0244  -18.3097  -42.1132 H         1 UNK         0.3000 
    155 H155        2.6868  -17.5172  -45.1820 H         1 UNK         0.0600 
    156 H156        1.7715  -15.3781  -44.5303 H         1 UNK         0.0600 
    157 H157        3.2954  -15.5577  -43.6833 H         1 UNK         0.0600 
    158 H158        1.7743  -15.8002  -42.8247 H         1 UNK         0.0600 
    159 H159        3.5140  -17.7115  -42.4368 H         1 UNK         0.3000 
    160 H160        4.5440  -21.1143  -42.5465 H         1 UNK         0.0600 
    161 H161        6.1689  -18.5120  -42.5488 H         1 UNK         0.0600 
    162 H162        6.3945  -19.8587  -43.6586 H         1 UNK         0.0600 
    163 H163        6.7150  -20.0769  -41.9456 H         1 UNK         0.0600 
    164 H164        4.7544  -19.0252  -40.5793 H         1 UNK         0.3000 
    165 H165        1.6388  -19.6884  -38.9617 H         1 UNK         0.0600 
    166 H166        3.1548  -19.9803  -37.0321 H         1 UNK         0.0600 
    167 H167        3.2612  -21.3797  -38.0875 H         1 UNK         0.0600 
    168 H168        4.5417  -20.1729  -38.1048 H         1 UNK         0.0600 
    169 H169        3.6448  -17.8343  -38.2791 H         1 UNK         0.3000 
    170 H170        2.7029  -15.5033  -38.3930 H         1 UNK         0.0600 
    171 H171        4.3238  -15.5981  -41.0208 H         1 UNK         0.0600 
    172 H172        4.4917  -14.3667  -39.7727 H         1 UNK         0.0600 
    173 H173        4.9480  -16.0253  -39.4308 H         1 UNK         0.0600 
    174 H174        1.2959  -15.3853  -40.8668 H         1 UNK         0.3000 
    175 H175       -0.1555  -12.3039  -40.2951 H         1 UNK         0.0600 
    176 H176        1.7253  -12.7683  -42.6749 H         1 UNK         0.0600 
    177 H177        0.3510  -11.6636  -42.6466 H         1 UNK         0.0600 
    178 H178        1.7428  -11.3605  -41.6182 H         1 UNK         0.0600 
    179 H179       -0.2370  -14.2183  -42.4876 H         1 UNK         0.3000 
    180 H180       -1.2853  -16.4985  -41.9261 H         1 UNK         0.0600 
    181 H181       -3.9816  -15.8669  -40.6210 H         1 UNK         0.0600 
    182 H182       -2.7381  -16.9054  -39.9356 H         1 UNK         0.0600 
    183 H183       -3.5405  -17.3746  -41.4235 H         1 UNK         0.0600 
    184 H184       -3.6768  -15.2872  -42.9597 H         1 UNK         0.3000 
    185 H185       -3.6020  -15.4088  -45.4266 H         1 UNK         0.0600 
    186 H186       -2.7989  -12.4727  -44.9430 H         1 UNK         0.0600 
    187 H187       -4.1292  -13.0029  -45.9696 H         1 UNK         0.0600 
    188 H188       -4.1985  -13.2734  -44.2374 H         1 UNK         0.0600 
    189 H189       -0.9952  -14.4561  -46.2163 H         1 UNK         0.3000 
    190 H190       -0.5993  -19.3089  -46.2999 H         1 UNK         0.3000 
    191 H191       -2.5029  -18.8448  -48.3054 H         1 UNK         0.0600 
    192 H192       -2.1827  -17.4507  -46.2602 H         1 UNK         0.0600 
    193 H193       -2.8849  -18.7248  -45.2698 H         1 UNK         0.0600 
    194 H194       -3.8671  -17.9027  -46.4785 H         1 UNK         0.0600 
    195 H195       -2.4861  -21.3763  -45.7763 H         1 UNK         0.3000 
    196 H196       -5.0348  -22.4949  -46.3710 H         1 UNK         0.0600 
    197 H197       -3.8544  -22.9300  -44.2451 H         1 UNK         0.0600 
    198 H198       -2.5563  -23.7658  -45.0926 H         1 UNK         0.0600 
    199 H199       -4.1776  -24.4489  -45.0676 H         1 UNK         0.0600 
    200 H200       -1.7293  -23.4010  -47.5081 H         1 UNK         0.3000 
    201 H201       -2.5156  -25.5167  -49.2331 H         1 UNK         0.0600 
    202 H202       -0.1790  -25.1820  -48.4620 H         1 UNK         0.0600 
    203 H203       -0.0709  -23.6689  -49.3595 H         1 UNK         0.0600 
    204 H204       -0.2407  -25.1933  -50.2195 H         1 UNK         0.0600 
    205 H205       -2.1803  -22.0239  -49.7826 H         1 UNK         0.3000 
    206 H206       -2.8428  -22.0593  -52.5816 H         1 UNK         0.0600 
    207 H207       -1.4421  -20.3219  -51.4011 H         1 UNK         0.0600 
    208 H208       -2.8678  -19.7704  -50.5398 H         1 UNK         0.0600 
    209 H209       -2.7728  -19.5962  -52.2864 H         1 UNK         0.0600 
    210 H210       -4.8627  -22.6889  -49.9828 H         1 UNK         0.3000 
    211 H211       -7.0320  -22.6406  -49.5426 H         1 UNK         0.0600 
    212 H212       -7.3726  -22.5291  -52.5878 H         1 UNK         0.0600 
    213 H213       -8.5860  -23.0597  -51.4303 H         1 UNK         0.0600 
    214 H214       -7.1102  -23.9892  -51.6370 H         1 UNK         0.0600 
    215 H215       -5.9643  -20.2835  -49.0177 H         1 UNK         0.3000 
    216 H216       -6.3562  -18.1937  -48.4627 H         1 UNK         0.0600 
    217 H217       -8.6178  -17.2438  -48.3810 H         1 UNK         0.0600 
    218 H218       -8.6600  -18.9082  -47.8218 H         1 UNK         0.0600 
    219 H219       -9.2451  -18.5004  -49.4343 H         1 UNK         0.0600 
    220 H220       -4.8904  -18.4488  -50.5188 H         1 UNK         0.3000 
    221 H221       -3.8324  -17.3583  -52.1007 H         1 UNK         0.0600 
    222 H222       -4.2815  -15.3725  -50.6478 H         1 UNK         0.0600 
    223 H223       -4.1100  -14.9408  -52.3396 H         1 UNK         0.0600 
    224 H224       -5.7081  -14.9946  -51.6108 H         1 UNK         0.0600 
    225 H225       -6.0395  -19.0671  -52.9395 H         1 UNK         0.3000 
    226 H226       -6.7639  -18.0311  -55.6084 H         1 UNK         0.0600 
    227 H227       -8.3226  -19.5692  -54.3880 H         1 UNK         0.0600 
    228 H228       -7.7584  -20.2730  -55.8974 H         1 UNK         0.0600 
    229 H229       -7.0793  -20.8179  -54.3707 H         1 UNK         0.0600 
    230 H230       -4.2920  -19.8349  -53.9805 H         1 UNK         0.3000 
    231 H231       -2.2171  -20.4407  -54.4511 H         1 UNK         0.0600 
    232 H232       -0.9737  -19.7087  -56.4071 H         1 UNK         0.0600 
    233 H233       -1.9850  -18.3800  -55.8818 H         1 UNK         0.0600 
    234 H234       -2.4498  -19.3281  -57.2907 H         1 UNK         0.0600 
    235 H235       -1.4353  -21.4958  -57.2034 H         1 UNK         0.3000 
    236 H236       -1.1294  -23.4923  -58.1161 H         1 UNK         0.0600 
    237 H237       -4.1061  -24.0108  -57.6019 H         1 UNK         0.0600 
    238 H238       -3.4437  -23.1559  -58.9935 H         1 UNK         0.0600 
    239 H239       -3.0799  -24.8568  -58.7503 H         1 UNK         0.0600 
    240 H240       -0.1187  -23.3433  -55.6937 H         1 UNK         0.3000 
    241 H241       -0.9553  -25.2482  -53.7863 H         1 UNK         0.0600 
    242 H242        1.3208  -27.5565  -56.2347 H         1 UNK         0.3800 
    243 H243        0.7866  -25.9760  -56.7408 H         1 UNK         0.3800 
    244 H244        1.8174  -24.0017  -54.0813 H         1 UNK         0.0800 
    245 H245        1.2100  -24.7971  -52.6578 H         1 UNK         0.0800 
    246 H246        2.2548  -21.8021  -53.8483 H         1 UNK         0.0800 
    247 H247        0.8459  -21.0531  -54.5593 H         1 UNK         0.0800 
@<TRIPOS>BOND
     1    1    2 1    
     2    1  127 1    
     3    1  128 1    
     4    1  129 1    
     5    2    3 2    
     6    2    4 am   BACKBONE|DICT|INTERRES
     7    4    5 1    
     8    4  130 1    
     9    5    6 1    
    10    5   65 1    
    11    5  131 1    
    12    6    7 1    
    13    6  132 1    
    14    6  133 1    
    15    7    8 1    
    16    8    9 1    
    17    8  134 1    
    18    8  135 1    
    19    9   10 ar   
    20    9   14 ar   
    21   10   11 ar   
    22   10  136 1    
    23   11   12 ar   
    24   11  126 1    
    25   12   13 ar   
    26   12  137 1    
    27   13   14 ar   
    28   13   15 1    
    29   14  138 1    
    30   15   16 1    
    31   15  139 1    
    32   15  140 1    
    33   16   17 1    
    34   17   18 1    
    35   17  141 1    
    36   17  142 1    
    37   18   19 1    
    38   18   67 1    
    39   18  143 1    
    40   19   20 am   BACKBONE|DICT|INTERRES
    41   19  144 1    
    42   20   21 2    
    43   20   22 1    
    44   22   23 1    
    45   22   24 1    
    46   22  145 1    
    47   23  146 1    
    48   23  147 1    
    49   23  148 1    
    50   24   25 am   BACKBONE|DICT|INTERRES
    51   24  149 1    
    52   25   26 2    
    53   25   27 1    
    54   27   28 1    
    55   27   29 1    
    56   27  150 1    
    57   28  151 1    
    58   28  152 1    
    59   28  153 1    
    60   29   30 am   BACKBONE|DICT|INTERRES
    61   29  154 1    
    62   30   31 2    
    63   30   32 1    
    64   32   33 1    
    65   32   34 1    
    66   32  155 1    
    67   33  156 1    
    68   33  157 1    
    69   33  158 1    
    70   34   35 am   BACKBONE|DICT|INTERRES
    71   34  159 1    
    72   35   36 2    
    73   35   37 1    
    74   37   38 1    
    75   37   39 1    
    76   37  160 1    
    77   38  161 1    
    78   38  162 1    
    79   38  163 1    
    80   39   40 am   BACKBONE|DICT|INTERRES
    81   39  164 1    
    82   40   41 2    
    83   40   42 1    
    84   42   43 1    
    85   42   44 1    
    86   42  165 1    
    87   43  166 1    
    88   43  167 1    
    89   43  168 1    
    90   44   45 am   BACKBONE|DICT|INTERRES
    91   44  169 1    
    92   45   46 2    
    93   45   47 1    
    94   47   48 1    
    95   47   49 1    
    96   47  170 1    
    97   48  171 1    
    98   48  172 1    
    99   48  173 1    
   100   49   50 am   BACKBONE|DICT|INTERRES
   101   49  174 1    
   102   50   51 2    
   103   50   52 1    
   104   52   53 1    
   105   52   54 1    
   106   52  175 1    
   107   53  176 1    
   108   53  177 1    
   109   53  178 1    
   110   54   55 am   BACKBONE|DICT|INTERRES
   111   54  179 1    
   112   55   56 2    
   113   55   57 1    
   114   57   58 1    
   115   57   59 1    
   116   57  180 1    
   117   58  181 1    
   118   58  182 1    
   119   58  183 1    
   120   59   60 am   BACKBONE|DICT|INTERRES
   121   59  184 1    
   122   60   61 2    
   123   60   62 1    
   124   62   63 1    
   125   62   64 1    
   126   62  185 1    
   127   63  186 1    
   128   63  187 1    
   129   63  188 1    
   130   64   65 am   BACKBONE|DICT|INTERRES
   131   64  189 1    
   132   65   66 2    
   133   67   68 2    
   134   67   69 am   BACKBONE|DICT|INTERRES
   135   69   70 1    
   136   69  190 1    
   137   70   71 1    
   138   70   72 1    
   139   70  191 1    
   140   71  192 1    
   141   71  193 1    
   142   71  194 1    
   143   72   73 2    
   144   72   74 am   BACKBONE|DICT|INTERRES
   145   74   75 1    
   146   74  195 1    
   147   75   76 1    
   148   75   77 1    
   149   75  196 1    
   150   76  197 1    
   151   76  198 1    
   152   76  199 1    
   153   77   78 2    
   154   77   79 am   BACKBONE|DICT|INTERRES
   155   79   80 1    
   156   79  200 1    
   157   80   81 1    
   158   80   82 1    
   159   80  201 1    
   160   81  202 1    
   161   81  203 1    
   162   81  204 1    
   163   82   83 2    
   164   82   84 am   BACKBONE|DICT|INTERRES
   165   84   85 1    
   166   84  205 1    
   167   85   86 1    
   168   85   87 1    
   169   85  206 1    
   170   86  207 1    
   171   86  208 1    
   172   86  209 1    
   173   87   88 2    
   174   87   89 am   BACKBONE|DICT|INTERRES
   175   89   90 1    
   176   89  210 1    
   177   90   91 1    
   178   90   92 1    
   179   90  211 1    
   180   91  212 1    
   181   91  213 1    
   182   91  214 1    
   183   92   93 2    
   184   92   94 am   BACKBONE|DICT|INTERRES
   185   94   95 1    
   186   94  215 1    
   187   95   96 1    
   188   95   97 1    
   189   95  216 1    
   190   96  217 1    
   191   96  218 1    
   192   96  219 1    
   193   97   98 2    
   194   97   99 am   BACKBONE|DICT|INTERRES
   195   99  100 1    
   196   99  220 1    
   197  100  101 1    
   198  100  102 1    
   199  100  221 1    
   200  101  222 1    
   201  101  223 1    
   202  101  224 1    
   203  102  103 2    
   204  102  104 am   BACKBONE|DICT|INTERRES
   205  104  105 1    
   206  104  225 1    
   207  105  106 1    
   208  105  107 1    
   209  105  226 1    
   210  106  227 1    
   211  106  228 1    
   212  106  229 1    
   213  107  108 2    
   214  107  109 am   BACKBONE|DICT|INTERRES
   215  109  110 1    
   216  109  230 1    
   217  110  111 1    
   218  110  112 1    
   219  110  231 1    
   220  111  232 1    
   221  111  233 1    
   222  111  234 1    
   223  112  113 2    
   224  112  114 am   BACKBONE|DICT|INTERRES
   225  114  115 1    
   226  114  235 1    
   227  115  116 1    
   228  115  117 1    
   229  115  236 1    
   230  116  237 1    
   231  116  238 1    
   232  116  239 1    
   233  117  118 2    
   234  117  119 am   BACKBONE|DICT|INTERRES
   235  119  120 1    
   236  119  240 1    
   237  120  121 1    
   238  120  124 1    
   239  120  241 1    
   240  121  122 am   BACKBONE|DICT|INTERRES
   241  121  123 2    
   242  122  242 1    
   243  122  243 1    
   244  124  125 1    
   245  124  244 1    
   246  124  245 1    
   247  125  126 1    
   248  126  246 1    
   249  126  247 1    
@<TRIPOS>SUBSTRUCTURE
     1 UNK         1 GROUP             0       ****    0 ROOT    
