@<TRIPOS>MOLECULE
3R540
247   249    1
SMALL
USER_CHARGES


@<TRIPOS>ATOM
      1 CA          2.1989  -10.9181  -51.5946 C.3       0 UNK        -0.1800 
      2 C           1.3964  -11.4122  -50.3997 C.2       0 UNK         0.5000 
      3 O           1.9796  -11.8272  -49.3980 O.2       0 UNK        -0.5000 
      4 N           0.0614  -11.3559  -50.4913 N.am      1 UNK        -0.5000 
      5 CA         -0.8981  -11.7810  -49.4635 C.3       1 UNK         0.1400 
      6 C6         -2.2613  -12.1482  -50.1089 C.3       23 UNK        -0.0398 
      7 S7         -3.2374  -13.3285  -49.1140 S.3       23 UNK        -0.2404 
      8 C8         -2.8506  -14.8867  -49.9673 C.3       23 UNK        -0.0205 
      9 C9         -3.7476  -16.0260  -49.5105 C.ar      23 UNK        -0.0193 
     10 C10        -4.7552  -16.5107  -50.3471 C.ar      23 UNK        -0.1150 
     11 C11        -5.5314  -17.6073  -49.9627 C.ar      23 UNK        -0.0193 
     12 C12        -5.2963  -18.2206  -48.7281 C.ar      23 UNK        -0.1150 
     13 C13        -4.2993  -17.7372  -47.8744 C.ar      23 UNK        -0.0193 
     14 C14        -3.5439  -16.6277  -48.2679 C.ar      23 UNK        -0.1150 
     15 C15        -4.0430  -18.4096  -46.5310 C.3       23 UNK        -0.0205 
     16 S16        -2.2914  -18.8598  -46.3193 S.3       23 UNK        -0.2404 
     17 C17        -2.3334  -19.8083  -44.7667 C.3       23 UNK        -0.0398 
     18 CA         -2.0179  -21.3074  -45.0197 C.3       11 UNK         0.1400 
     19 N          -0.8367  -21.7609  -44.2778 N.am      11 UNK        -0.5000 
     20 C          -0.2511  -22.9596  -44.4051 C.2       10 UNK         0.5000 
     21 O          -0.6821  -23.8477  -45.1371 O.2       10 UNK        -0.5000 
     22 CA          0.9997  -23.2230  -43.5516 C.3       10 UNK         0.1400 
     23 CB          2.2682  -22.7630  -44.2865 C.3       10 UNK        -0.1800 
     24 N           0.9185  -22.5644  -42.2482 N.am      10 UNK        -0.5000 
     25 C           0.1525  -22.9908  -41.2337 C.2       9 UNK         0.5000 
     26 O          -0.5337  -24.0119  -41.2774 O.2       9 UNK        -0.5000 
     27 CA          0.1351  -22.1186  -39.9645 C.3       9 UNK         0.1400 
     28 CB          1.2683  -22.5297  -39.0124 C.3       9 UNK        -0.1800 
     29 N           0.2492  -20.6893  -40.2597 N.am      9 UNK        -0.5000 
     30 C          -0.7114  -19.9569  -40.8400 C.2       8 UNK         0.5000 
     31 O          -1.8142  -20.3998  -41.1626 O.2       8 UNK        -0.5000 
     32 CA         -0.3553  -18.4924  -41.1594 C.3       8 UNK         0.1400 
     33 CB         -0.6018  -17.5924  -39.9397 C.3       8 UNK        -0.1800 
     34 N           1.0227  -18.3076  -41.6315 N.am      8 UNK        -0.5000 
     35 C           1.5203  -18.8673  -42.7407 C.2       7 UNK         0.5000 
     36 O           0.8939  -19.6658  -43.4412 O.2       7 UNK        -0.5000 
     37 CA          2.9467  -18.4850  -43.1466 C.3       7 UNK         0.1400 
     38 CB          3.9741  -19.4016  -42.4602 C.3       7 UNK        -0.1800 
     39 N           3.0328  -18.6261  -44.5958 N.am      7 UNK        -0.5000 
     40 C           3.9248  -18.0342  -45.3973 C.2       6 UNK         0.5000 
     41 O           4.8253  -17.2956  -44.9985 O.2       6 UNK        -0.5000 
     42 CA          3.7483  -18.2813  -46.9014 C.3       6 UNK         0.1400 
     43 CB          4.0570  -19.7430  -47.2755 C.3       6 UNK        -0.1800 
     44 N           2.3892  -17.9209  -47.3000 N.am      6 UNK        -0.5000 
     45 C           2.0204  -17.5341  -48.5279 C.2       5 UNK         0.5000 
     46 O           2.7851  -17.4974  -49.4920 O.2       5 UNK        -0.5000 
     47 CA          0.5496  -17.1082  -48.7148 C.3       5 UNK         0.1400 
     48 CB         -0.2586  -18.2471  -49.3556 C.3       5 UNK        -0.1800 
     49 N          -0.1012  -16.7168  -47.4621 N.am      5 UNK        -0.5000 
     50 C           0.1035  -15.5595  -46.8216 C.2       4 UNK         0.5000 
     51 O           0.8604  -14.6725  -47.2238 O.2       4 UNK        -0.5000 
     52 CA         -0.6539  -15.3760  -45.4981 C.3       4 UNK         0.1400 
     53 CB         -0.1020  -16.3114  -44.4092 C.3       4 UNK        -0.1800 
     54 N          -0.5180  -13.9922  -45.0616 N.am      4 UNK        -0.5000 
     55 C          -1.3685  -13.3417  -44.2582 C.2       3 UNK         0.5000 
     56 O          -2.3872  -13.8468  -43.7863 O.2       3 UNK        -0.5000 
     57 CA         -1.0315  -11.8788  -43.9365 C.3       3 UNK         0.1400 
     58 CB         -0.0843  -11.7941  -42.7246 C.3       3 UNK        -0.1800 
     59 N          -0.4459  -11.2170  -45.1013 N.am      3 UNK        -0.5000 
     60 C          -0.3572   -9.8954  -45.2865 C.2       2 UNK         0.5000 
     61 O          -0.7308   -9.0588  -44.4632 O.2       2 UNK        -0.5000 
     62 CA          0.2488   -9.4263  -46.6234 C.3       2 UNK         0.1400 
     63 CB          1.7339   -9.0750  -46.4464 C.3       2 UNK        -0.1800 
     64 N           0.1237  -10.4172  -47.6955 N.am      2 UNK        -0.5000 
     65 C          -1.0122  -10.7275  -48.3333 C.2       1 UNK         0.5000 
     66 O          -2.0927  -10.1942  -48.0761 O.2       1 UNK        -0.5000 
     67 C          -3.2630  -22.1964  -44.8138 C.2       11 UNK         0.5000 
     68 O          -4.0790  -22.3171  -45.7289 O.2       11 UNK        -0.5000 
     69 N          -3.3555  -22.8433  -43.6435 N.am      12 UNK        -0.5000 
     70 CA         -4.3734  -23.8412  -43.3140 C.3       12 UNK         0.1400 
     71 CB         -4.2543  -24.2007  -41.8256 C.3       12 UNK        -0.1800 
     72 C          -4.2932  -25.1123  -44.1854 C.2       12 UNK         0.5000 
     73 O          -5.3216  -25.7487  -44.4178 O.2       12 UNK        -0.5000 
     74 N          -3.0946  -25.4460  -44.6847 N.am      13 UNK        -0.5000 
     75 CA         -2.8434  -26.5536  -45.6038 C.3       13 UNK         0.1400 
     76 CB         -1.4455  -27.1371  -45.3267 C.3       13 UNK        -0.1800 
     77 C          -3.0163  -26.0790  -47.0586 C.2       13 UNK         0.5000 
     78 O          -2.0555  -26.0752  -47.8306 O.2       13 UNK        -0.5000 
     79 N          -4.2476  -25.6649  -47.3920 N.am      14 UNK        -0.5000 
     80 CA         -4.7173  -25.2436  -48.7165 C.3       14 UNK         0.1400 
     81 CB         -4.8224  -26.4677  -49.6503 C.3       14 UNK        -0.1800 
     82 C          -3.8745  -24.1043  -49.3252 C.2       14 UNK         0.5000 
     83 O          -3.3554  -24.2464  -50.4334 O.2       14 UNK        -0.5000 
     84 N          -3.7238  -23.0081  -48.5672 N.am      15 UNK        -0.5000 
     85 CA         -2.9397  -21.8166  -48.9121 C.3       15 UNK         0.1400 
     86 CB         -3.5687  -21.0639  -50.1013 C.3       15 UNK        -0.1800 
     87 C          -1.4476  -22.1410  -49.1262 C.2       15 UNK         0.5000 
     88 O          -0.8518  -21.6852  -50.1033 O.2       15 UNK        -0.5000 
     89 N          -0.8905  -22.9552  -48.2155 N.am      16 UNK        -0.5000 
     90 CA          0.4850  -23.4614  -48.2062 C.3       16 UNK         0.1400 
     91 CB          1.4831  -22.3130  -47.9531 C.3       16 UNK        -0.1800 
     92 C           0.7991  -24.2979  -49.4612 C.2       16 UNK         0.5000 
     93 O           1.7948  -24.0501  -50.1426 O.2       16 UNK        -0.5000 
     94 N          -0.0884  -25.2646  -49.7409 N.am      17 UNK        -0.5000 
     95 CA         -0.1116  -26.1380  -50.9171 C.3       17 UNK         0.1400 
     96 CB          1.0790  -27.1191  -50.8952 C.3       17 UNK        -0.1800 
     97 C          -0.2249  -25.3377  -52.2317 C.2       17 UNK         0.5000 
     98 O           0.5397  -25.5690  -53.1706 O.2       17 UNK        -0.5000 
     99 N          -1.1853  -24.4028  -52.2541 N.am      18 UNK        -0.5000 
    100 CA        -1.5011  -23.4692  -53.3356 C.3       18 UNK         0.1400 
    101 CB        -2.1025  -24.2185  -54.5426 C.3       18 UNK        -0.1800 
    102 C         -0.3155  -22.5566  -53.7119 C.2       18 UNK         0.5000 
    103 O          0.0049  -22.4096  -54.8938 O.2       18 UNK        -0.5000 
    104 N          0.3104  -21.9414  -52.6975 N.am      19 UNK        -0.5000 
    105 CA         1.3162  -20.8905  -52.8757 C.3       19 UNK         0.1400 
    106 CB         2.0840  -20.6756  -51.5634 C.3       19 UNK        -0.1800 
    107 C          0.6784  -19.5758  -53.3666 C.2       19 UNK         0.5000 
    108 O          1.3148  -18.8316  -54.1136 O.2       19 UNK        -0.5000 
    109 N         -0.5826  -19.3493  -52.9783 N.am      20 UNK        -0.5000 
    110 CA        -1.4885  -18.3800  -53.5832 C.3       20 UNK         0.1400 
    111 CB        -2.2189  -17.6108  -52.4732 C.3       20 UNK        -0.1800 
    112 C         -2.4912  -19.1466  -54.4611 C.2       20 UNK         0.5000 
    113 O         -2.8506  -20.2800  -54.1313 O.2       20 UNK        -0.5000 
    114 N         -2.9243  -18.5196  -55.5621 N.am      21 UNK        -0.5000 
    115 CA        -3.8673  -19.1061  -56.5191 C.3       21 UNK         0.1400 
    116 CB        -3.8142  -18.3108  -57.8328 C.3       21 UNK        -0.1800 
    117 C         -5.3104  -19.1695  -55.9838 C.2       21 UNK         0.5000 
    118 O         -6.0349  -20.1106  -56.3093 O.2       21 UNK        -0.5000 
    119 N         -5.6910  -18.1679  -55.1779 N.am      22 UNK        -0.5000 
    120 CA        -6.9952  -18.0362  -54.4984 C.3       22 UNK         0.1400 
    121 C         -8.2194  -17.8330  -55.4452 C.2       22 UNK         0.5000 
    122 N         -8.0274  -17.4462  -56.7005 N.am      22 UNK        -0.7600 
    123 O         -9.3653  -17.9922  -55.0325 O.2       22 UNK        -0.5000 
    124 C124       -7.2390  -19.1434  -53.4321 C.3       23 UNK        -0.0398 
    125 S125       -5.9133  -19.1984  -52.1798 S.3       23 UNK        -0.2404 
    126 C126       -6.6158  -18.1233  -50.8932 C.3       23 UNK        -0.0205 
    127 H127        2.8325  -11.7184  -51.9769 H         1 UNK         0.0600 
    128 H128        2.8388  -10.0870  -51.2984 H         1 UNK         0.0600 
    129 H129        1.5533  -10.5788  -52.4050 H         1 UNK         0.0600 
    130 H130       -0.3484  -10.9634  -51.3272 H         1 UNK         0.3000 
    131 H131       -0.4974  -12.6886  -49.0055 H         1 UNK         0.0600 
    132 H132       -2.0979  -12.5922  -51.0916 H         1 UNK         0.0800 
    133 H133       -2.8658  -11.2601  -50.3014 H         1 UNK         0.0800 
    134 H134       -1.8073  -15.1481  -49.7848 H         1 UNK         0.0800 
    135 H135       -2.9500  -14.7493  -51.0450 H         1 UNK         0.0800 
    136 H136       -4.9238  -16.0499  -51.3102 H         1 UNK         0.1150 
    137 H137       -5.8887  -19.0760  -48.4353 H         1 UNK         0.1150 
    138 H138       -2.7782  -16.2412  -47.6157 H         1 UNK         0.1150 
    139 H139       -4.3435  -17.7330  -45.7299 H         1 UNK         0.0800 
    140 H140       -4.6522  -19.3098  -46.4318 H         1 UNK         0.0800 
    141 H141       -3.2912  -19.6575  -44.2644 H         1 UNK         0.0800 
    142 H142       -1.5998  -19.3588  -44.0991 H         1 UNK         0.0800 
    143 H143       -1.7407  -21.4380  -46.0654 H         1 UNK         0.0600 
    144 H144       -0.3645  -21.0613  -43.7127 H         1 UNK         0.3000 
    145 H145        1.0738  -24.3010  -43.3926 H         1 UNK         0.0600 
    146 H146        2.2421  -21.6992  -44.5218 H         1 UNK         0.0600 
    147 H147        3.1606  -22.9527  -43.6901 H         1 UNK         0.0600 
    148 H148        2.3874  -23.3029  -45.2264 H         1 UNK         0.0600 
    149 H149        1.4105  -21.6891  -42.1502 H         1 UNK         0.3000 
    150 H150       -0.8166  -22.2895  -39.4567 H         1 UNK         0.0600 
    151 H151        1.1983  -23.5879  -38.7567 H         1 UNK         0.0600 
    152 H152        1.2228  -21.9677  -38.0794 H         1 UNK         0.0600 
    153 H153        2.2502  -22.3638  -39.4575 H         1 UNK         0.0600 
    154 H154        1.1241  -20.2416  -40.0295 H         1 UNK         0.3000 
    155 H155       -1.0240  -18.1650  -41.9578 H         1 UNK         0.0600 
    156 H156       -1.6252  -17.6976  -39.5769 H         1 UNK         0.0600 
    157 H157       -0.4541  -16.5416  -40.1895 H         1 UNK         0.0600 
    158 H158        0.0667  -17.8395  -39.1141 H         1 UNK         0.0600 
    159 H159        1.5982  -17.6701  -41.1000 H         1 UNK         0.3000 
    160 H160        3.1271  -17.4444  -42.8692 H         1 UNK         0.0600 
    161 H161        4.9929  -19.1306  -42.7376 H         1 UNK         0.0600 
    162 H162        3.8233  -20.4477  -42.7293 H         1 UNK         0.0600 
    163 H163        3.9045  -19.3264  -41.3744 H         1 UNK         0.0600 
    164 H164        2.3113  -19.2219  -44.9814 H         1 UNK         0.3000 
    165 H165        4.4540  -17.6319  -47.4241 H         1 UNK         0.0600 
    166 H166        3.3828  -20.4390  -46.7770 H         1 UNK         0.0600 
    167 H167        3.9686  -19.9054  -48.3499 H         1 UNK         0.0600 
    168 H168        5.0746  -20.0108  -46.9890 H         1 UNK         0.0600 
    169 H169        1.7051  -17.8668  -46.5607 H         1 UNK         0.3000 
    170 H170        0.5340  -16.2533  -49.3942 H         1 UNK         0.0600 
    171 H171       -0.2126  -19.1611  -48.7621 H         1 UNK         0.0600 
    172 H172       -1.3077  -17.9788  -49.4745 H         1 UNK         0.0600 
    173 H173        0.1255  -18.4789  -50.3480 H         1 UNK         0.0600 
    174 H174       -0.7464  -17.3921  -47.0702 H         1 UNK         0.3000 
    175 H175       -1.7079  -15.5998  -45.6721 H         1 UNK         0.0600 
    176 H176        0.9510  -16.1120  -44.2073 H         1 UNK         0.0600 
    177 H177       -0.6487  -16.1947  -43.4736 H         1 UNK         0.0600 
    178 H178       -0.1904  -17.3564  -44.7035 H         1 UNK         0.0600 
    179 H179        0.3059  -13.5322  -45.4249 H         1 UNK         0.3000 
    180 H180       -1.9687  -11.3765  -43.6872 H         1 UNK         0.0600 
    181 H181        0.8879  -12.2369  -42.9438 H         1 UNK         0.0600 
    182 H182       -0.5007  -12.3226  -41.8660 H         1 UNK         0.0600 
    183 H183        0.0802  -10.7615  -42.4171 H         1 UNK         0.0600 
    184 H184       -0.1705  -11.8143  -45.8664 H         1 UNK         0.3000 
    185 H185       -0.2825   -8.5219  -46.9270 H         1 UNK         0.0600 
    186 H186        2.1570   -8.6750  -47.3682 H         1 UNK         0.0600 
    187 H187        1.8676   -8.3177  -45.6727 H         1 UNK         0.0600 
    188 H188        2.3219   -9.9473  -46.1581 H         1 UNK         0.0600 
    189 H189        0.9753  -10.8769  -48.0061 H         1 UNK         0.3000 
    190 H190       -2.6356  -22.6850  -42.9521 H         1 UNK         0.3000 
    191 H191       -5.3529  -23.3885  -43.4812 H         1 UNK         0.0600 
    192 H192       -3.2860  -24.6479  -41.5969 H         1 UNK         0.0600 
    193 H193       -4.3739  -23.3192  -41.1953 H         1 UNK         0.0600 
    194 H194       -5.0240  -24.9162  -41.5334 H         1 UNK         0.0600 
    195 H195       -2.3061  -24.8268  -44.5286 H         1 UNK         0.3000 
    196 H196       -3.5693  -27.3505  -45.4293 H         1 UNK         0.0600 
    197 H197       -1.3528  -27.4622  -44.2905 H         1 UNK         0.0600 
    198 H198       -0.6529  -26.4152  -45.5227 H         1 UNK         0.0600 
    199 H199       -1.2566  -28.0059  -45.9583 H         1 UNK         0.0600 
    200 H200       -4.9470  -25.6687  -46.6595 H         1 UNK         0.3000 
    201 H201       -5.7231  -24.8438  -48.5801 H         1 UNK         0.0600 
    202 H202       -5.2519  -26.1893  -50.6134 H         1 UNK         0.0600 
    203 H203       -5.4632  -27.2375  -49.2206 H         1 UNK         0.0600 
    204 H204       -3.8464  -26.9144  -49.8442 H         1 UNK         0.0600 
    205 H205       -4.1410  -22.9915  -47.6413 H         1 UNK         0.3000 
    206 H206       -2.9951  -21.1522  -48.0514 H         1 UNK         0.0600 
    207 H207       -4.6274  -20.8742  -49.9288 H         1 UNK         0.0600 
    208 H208       -3.4766  -21.6170  -51.0362 H         1 UNK         0.0600 
    209 H209       -3.0867  -20.0964  -50.2449 H         1 UNK         0.0600 
    210 H210       -1.4799  -23.3288  -47.4847 H         1 UNK         0.3000 
    211 H211        0.5614  -24.1525  -47.3669 H         1 UNK         0.0600 
    212 H212        1.2304  -21.7684  -47.0436 H         1 UNK         0.0600 
    213 H213        2.4970  -22.6962  -47.8353 H         1 UNK         0.0600 
    214 H214        1.4987  -21.5968  -48.7730 H         1 UNK         0.0600 
    215 H215       -0.8609  -25.4034  -49.0915 H         1 UNK         0.3000 
    216 H216       -1.0258  -26.7283  -50.8381 H         1 UNK         0.0600 
    217 H217        1.0008  -27.8440  -51.7062 H         1 UNK         0.0600 
    218 H218        2.0333  -26.6040  -51.0088 H         1 UNK         0.0600 
    219 H219        1.1093  -27.6797  -49.9610 H         1 UNK         0.0600 
    220 H220       -1.7890  -24.3187  -51.4383 H         1 UNK         0.3000 
    221 H221       -2.2766  -22.8092  -52.9443 H         1 UNK         0.0600 
    222 H222       -1.3749  -24.8790  -55.0151 H         1 UNK         0.0600 
    223 H223       -2.9600  -24.8213  -54.2434 H         1 UNK         0.0600 
    224 H224       -2.4498  -23.5159  -55.3011 H         1 UNK         0.0600 
    225 H225       -0.0230  -22.0874  -51.7469 H         1 UNK         0.3000 
    226 H226        2.0299  -21.2196  -53.6337 H         1 UNK         0.0600 
    227 H227        2.5845  -21.5901  -51.2450 H         1 UNK         0.0600 
    228 H228        2.8490  -19.9067  -51.6776 H         1 UNK         0.0600 
    229 H229        1.4229  -20.3598  -50.7581 H         1 UNK         0.0600 
    230 H230       -1.0285  -20.0564  -52.4099 H         1 UNK         0.3000 
    231 H231       -0.9389  -17.6685  -54.2027 H         1 UNK         0.0600 
    232 H232       -2.9240  -16.8927  -52.8929 H         1 UNK         0.0600 
    233 H233       -1.5167  -17.0525  -51.8547 H         1 UNK         0.0600 
    234 H234       -2.7825  -18.2794  -51.8217 H         1 UNK         0.0600 
    235 H235       -2.5815  -17.5934  -55.7729 H         1 UNK         0.3000 
    236 H236       -3.5493  -20.1294  -56.7313 H         1 UNK         0.0600 
    237 H237       -2.8133  -18.3295  -58.2645 H         1 UNK         0.0600 
    238 H238       -4.4935  -18.7351  -58.5736 H         1 UNK         0.0600 
    239 H239       -4.0977  -17.2679  -57.6864 H         1 UNK         0.0600 
    240 H240       -5.0188  -17.4436  -54.9751 H         1 UNK         0.3000 
    241 H241       -6.9322  -17.0920  -53.9568 H         1 UNK         0.0600 
    242 H242       -8.8225  -17.3056  -57.3040 H         1 UNK         0.3800 
    243 H243       -7.0961  -17.3000  -57.0552 H         1 UNK         0.3800 
    244 H244       -8.1913  -18.9939  -52.9207 H         1 UNK         0.0800 
    245 H245       -7.3056  -20.1229  -53.9071 H         1 UNK         0.0800 
    246 H246       -7.1244  -17.2758  -51.3552 H         1 UNK         0.0800 
    247 H247       -7.3745  -18.6738  -50.3351 H         1 UNK         0.0800 
@<TRIPOS>BOND
     1    1    2 1    
     2    1  127 1    
     3    1  128 1    
     4    1  129 1    
     5    2    3 2    
     6    2    4 am   BACKBONE|DICT|INTERRES
     7    4    5 1    
     8    4  130 1    
     9    5    6 1    
    10    5   65 1    
    11    5  131 1    
    12    6    7 1    
    13    6  132 1    
    14    6  133 1    
    15    7    8 1    
    16    8    9 1    
    17    8  134 1    
    18    8  135 1    
    19    9   10 ar   
    20    9   14 ar   
    21   10   11 ar   
    22   10  136 1    
    23   11   12 ar   
    24   11  126 1    
    25   12   13 ar   
    26   12  137 1    
    27   13   14 ar   
    28   13   15 1    
    29   14  138 1    
    30   15   16 1    
    31   15  139 1    
    32   15  140 1    
    33   16   17 1    
    34   17   18 1    
    35   17  141 1    
    36   17  142 1    
    37   18   19 1    
    38   18   67 1    
    39   18  143 1    
    40   19   20 am   BACKBONE|DICT|INTERRES
    41   19  144 1    
    42   20   21 2    
    43   20   22 1    
    44   22   23 1    
    45   22   24 1    
    46   22  145 1    
    47   23  146 1    
    48   23  147 1    
    49   23  148 1    
    50   24   25 am   BACKBONE|DICT|INTERRES
    51   24  149 1    
    52   25   26 2    
    53   25   27 1    
    54   27   28 1    
    55   27   29 1    
    56   27  150 1    
    57   28  151 1    
    58   28  152 1    
    59   28  153 1    
    60   29   30 am   BACKBONE|DICT|INTERRES
    61   29  154 1    
    62   30   31 2    
    63   30   32 1    
    64   32   33 1    
    65   32   34 1    
    66   32  155 1    
    67   33  156 1    
    68   33  157 1    
    69   33  158 1    
    70   34   35 am   BACKBONE|DICT|INTERRES
    71   34  159 1    
    72   35   36 2    
    73   35   37 1    
    74   37   38 1    
    75   37   39 1    
    76   37  160 1    
    77   38  161 1    
    78   38  162 1    
    79   38  163 1    
    80   39   40 am   BACKBONE|DICT|INTERRES
    81   39  164 1    
    82   40   41 2    
    83   40   42 1    
    84   42   43 1    
    85   42   44 1    
    86   42  165 1    
    87   43  166 1    
    88   43  167 1    
    89   43  168 1    
    90   44   45 am   BACKBONE|DICT|INTERRES
    91   44  169 1    
    92   45   46 2    
    93   45   47 1    
    94   47   48 1    
    95   47   49 1    
    96   47  170 1    
    97   48  171 1    
    98   48  172 1    
    99   48  173 1    
   100   49   50 am   BACKBONE|DICT|INTERRES
   101   49  174 1    
   102   50   51 2    
   103   50   52 1    
   104   52   53 1    
   105   52   54 1    
   106   52  175 1    
   107   53  176 1    
   108   53  177 1    
   109   53  178 1    
   110   54   55 am   BACKBONE|DICT|INTERRES
   111   54  179 1    
   112   55   56 2    
   113   55   57 1    
   114   57   58 1    
   115   57   59 1    
   116   57  180 1    
   117   58  181 1    
   118   58  182 1    
   119   58  183 1    
   120   59   60 am   BACKBONE|DICT|INTERRES
   121   59  184 1    
   122   60   61 2    
   123   60   62 1    
   124   62   63 1    
   125   62   64 1    
   126   62  185 1    
   127   63  186 1    
   128   63  187 1    
   129   63  188 1    
   130   64   65 am   BACKBONE|DICT|INTERRES
   131   64  189 1    
   132   65   66 2    
   133   67   68 2    
   134   67   69 am   BACKBONE|DICT|INTERRES
   135   69   70 1    
   136   69  190 1    
   137   70   71 1    
   138   70   72 1    
   139   70  191 1    
   140   71  192 1    
   141   71  193 1    
   142   71  194 1    
   143   72   73 2    
   144   72   74 am   BACKBONE|DICT|INTERRES
   145   74   75 1    
   146   74  195 1    
   147   75   76 1    
   148   75   77 1    
   149   75  196 1    
   150   76  197 1    
   151   76  198 1    
   152   76  199 1    
   153   77   78 2    
   154   77   79 am   BACKBONE|DICT|INTERRES
   155   79   80 1    
   156   79  200 1    
   157   80   81 1    
   158   80   82 1    
   159   80  201 1    
   160   81  202 1    
   161   81  203 1    
   162   81  204 1    
   163   82   83 2    
   164   82   84 am   BACKBONE|DICT|INTERRES
   165   84   85 1    
   166   84  205 1    
   167   85   86 1    
   168   85   87 1    
   169   85  206 1    
   170   86  207 1    
   171   86  208 1    
   172   86  209 1    
   173   87   88 2    
   174   87   89 am   BACKBONE|DICT|INTERRES
   175   89   90 1    
   176   89  210 1    
   177   90   91 1    
   178   90   92 1    
   179   90  211 1    
   180   91  212 1    
   181   91  213 1    
   182   91  214 1    
   183   92   93 2    
   184   92   94 am   BACKBONE|DICT|INTERRES
   185   94   95 1    
   186   94  215 1    
   187   95   96 1    
   188   95   97 1    
   189   95  216 1    
   190   96  217 1    
   191   96  218 1    
   192   96  219 1    
   193   97   98 2    
   194   97   99 am   BACKBONE|DICT|INTERRES
   195   99  100 1    
   196   99  220 1    
   197  100  101 1    
   198  100  102 1    
   199  100  221 1    
   200  101  222 1    
   201  101  223 1    
   202  101  224 1    
   203  102  103 2    
   204  102  104 am   BACKBONE|DICT|INTERRES
   205  104  105 1    
   206  104  225 1    
   207  105  106 1    
   208  105  107 1    
   209  105  226 1    
   210  106  227 1    
   211  106  228 1    
   212  106  229 1    
   213  107  108 2    
   214  107  109 am   BACKBONE|DICT|INTERRES
   215  109  110 1    
   216  109  230 1    
   217  110  111 1    
   218  110  112 1    
   219  110  231 1    
   220  111  232 1    
   221  111  233 1    
   222  111  234 1    
   223  112  113 2    
   224  112  114 am   BACKBONE|DICT|INTERRES
   225  114  115 1    
   226  114  235 1    
   227  115  116 1    
   228  115  117 1    
   229  115  236 1    
   230  116  237 1    
   231  116  238 1    
   232  116  239 1    
   233  117  118 2    
   234  117  119 am   BACKBONE|DICT|INTERRES
   235  119  120 1    
   236  119  240 1    
   237  120  121 1    
   238  120  124 1    
   239  120  241 1    
   240  121  122 am   BACKBONE|DICT|INTERRES
   241  121  123 2    
   242  122  242 1    
   243  122  243 1    
   244  124  125 1    
   245  124  244 1    
   246  124  245 1    
   247  125  126 1    
   248  126  246 1    
   249  126  247 1    
@<TRIPOS>SUBSTRUCTURE
     1 UNK         1 GROUP             0       ****    0 ROOT    
