@<TRIPOS>MOLECULE
3R540
247   249    1
SMALL
USER_CHARGES


@<TRIPOS>ATOM
      1 CA          3.6859  -18.9905  -43.1556 C.3       0 UNK        -0.1800 
      2 C           3.5160  -17.5422  -43.5830 C.2       0 UNK         0.5000 
      3 O           3.2612  -16.6836  -42.7401 O.2       0 UNK        -0.5000 
      4 N           3.6905  -17.2571  -44.8817 N.am      1 UNK        -0.5000 
      5 CA          3.5820  -15.9192  -45.4874 C.3       1 UNK         0.1400 
      6 C6          3.6055  -16.0069  -47.0361 C.3       23 UNK        -0.0398 
      7 S7          2.7987  -14.5793  -47.8367 S.3       23 UNK        -0.2404 
      8 C8          3.4630  -14.6801  -49.5261 C.3       23 UNK        -0.0205 
      9 C9          2.7106  -15.7030  -50.3617 C.ar      23 UNK        -0.0193 
     10 C10         1.5681  -15.3226  -51.0704 C.ar      23 UNK        -0.1150 
     11 C11         0.8699  -16.2511  -51.8474 C.ar      23 UNK        -0.0193 
     12 C12         1.3210  -17.5735  -51.9099 C.ar      23 UNK        -0.1150 
     13 C13         2.4687  -17.9636  -51.2117 C.ar      23 UNK        -0.0193 
     14 C14         3.1600  -17.0232  -50.4417 C.ar      23 UNK        -0.1150 
     15 C15         2.9887  -19.3896  -51.3101 C.3       23 UNK        -0.0205 
     16 S16         2.7760  -20.3002  -49.7497 S.3       23 UNK        -0.2404 
     17 C17         0.9812  -20.6209  -49.7592 C.3       23 UNK        -0.0398 
     18 CA          0.6151  -21.8396  -48.8798 C.3       11 UNK         0.1400 
     19 N           1.0045  -21.6480  -47.4811 N.am      11 UNK        -0.5000 
     20 C           1.0826  -22.6203  -46.5657 C.2       10 UNK         0.5000 
     21 O           0.8497  -23.8050  -46.8025 O.2       10 UNK        -0.5000 
     22 CA          1.4507  -22.1852  -45.1364 C.3       10 UNK         0.1400 
     23 CB          2.9739  -22.0689  -44.9847 C.3       10 UNK        -0.1800 
     24 N           0.8144  -20.9234  -44.7449 N.am      10 UNK        -0.5000 
     25 C          -0.5028  -20.7941  -44.5373 C.2       9 UNK         0.5000 
     26 O          -1.3049  -21.7179  -44.6662 O.2       9 UNK        -0.5000 
     27 CA         -1.0251  -19.3987  -44.1489 C.3       9 UNK         0.1400 
     28 CB         -0.7900  -19.1283  -42.6552 C.3       9 UNK        -0.1800 
     29 N          -0.5083  -18.2692  -44.9284 N.am      9 UNK        -0.5000 
     30 C          -0.4355  -18.1814  -46.2655 C.2       8 UNK         0.5000 
     31 O          -0.5640  -19.1364  -47.0308 O.2       8 UNK        -0.5000 
     32 CA         -0.2470  -16.7569  -46.8226 C.3       8 UNK         0.1400 
     33 CB         -0.3026  -16.6940  -48.3610 C.3       8 UNK        -0.1800 
     34 N          -1.2029  -15.8250  -46.2137 N.am      8 UNK        -0.5000 
     35 C          -2.5434  -15.9012  -46.2559 C.2       7 UNK         0.5000 
     36 O          -3.1721  -16.6995  -46.9506 O.2       7 UNK        -0.5000 
     37 CA         -3.3221  -14.9555  -45.3287 C.3       7 UNK         0.1400 
     38 CB         -3.5037  -15.6154  -43.9521 C.3       7 UNK        -0.1800 
     39 N          -2.6503  -13.6679  -45.1488 N.am      7 UNK        -0.5000 
     40 C          -3.0441  -12.5205  -45.7183 C.2       6 UNK         0.5000 
     41 O          -3.9949  -12.4335  -46.4965 O.2       6 UNK        -0.5000 
     42 CA         -2.2693  -11.2415  -45.3417 C.3       6 UNK         0.1400 
     43 CB         -3.0197  -10.4659  -44.2478 C.3       6 UNK        -0.1800 
     44 N          -0.9068  -11.5054  -44.8798 N.am      6 UNK        -0.5000 
     45 C           0.1130  -11.8355  -45.6824 C.2       5 UNK         0.5000 
     46 O           0.0219  -11.9037  -46.9080 O.2       5 UNK        -0.5000 
     47 CA          1.4571  -12.1544  -45.0005 C.3       5 UNK         0.1400 
     48 CB          2.3537  -10.9073  -44.9753 C.3       5 UNK        -0.1800 
     49 N           1.3448  -12.6871  -43.6380 N.am      5 UNK        -0.5000 
     50 C           0.7164  -13.8180  -43.2931 C.2       4 UNK         0.5000 
     51 O           0.0787  -14.5122  -44.0877 O.2       4 UNK        -0.5000 
     52 CA          0.8433  -14.2400  -41.8203 C.3       4 UNK         0.1400 
     53 CB          0.0929  -15.5487  -41.5157 C.3       4 UNK        -0.1800 
     54 N           2.2508  -14.4272  -41.4827 N.am      4 UNK        -0.5000 
     55 C           3.0307  -13.5395  -40.8556 C.2       3 UNK         0.5000 
     56 O           2.6542  -12.4136  -40.5287 O.2       3 UNK        -0.5000 
     57 CA          4.4741  -13.9757  -40.5628 C.3       3 UNK         0.1400 
     58 CB          4.5064  -15.0610  -39.4739 C.3       3 UNK        -0.1800 
     59 N           5.1187  -14.4884  -41.7713 N.am      3 UNK        -0.5000 
     60 C           6.1947  -13.9439  -42.3574 C.2       2 UNK         0.5000 
     61 O           6.7802  -12.9502  -41.9249 O.2       2 UNK        -0.5000 
     62 CA          6.7226  -14.6183  -43.6429 C.3       2 UNK         0.1400 
     63 CB          7.9251  -15.5185  -43.3200 C.3       2 UNK        -0.1800 
     64 N           5.7151  -15.4137  -44.3466 N.am      2 UNK        -0.5000 
     65 C           4.6278  -14.9103  -44.9478 C.2       1 UNK         0.5000 
     66 O           4.4191  -13.7023  -45.0444 O.2       1 UNK        -0.5000 
     67 C          -0.8854  -22.1674  -48.9803 C.2       11 UNK         0.5000 
     68 O          -1.2674  -23.0759  -49.7192 O.2       11 UNK        -0.5000 
     69 N          -1.7000  -21.4567  -48.1883 N.am      12 UNK        -0.5000 
     70 CA         -3.1343  -21.6831  -48.0477 C.3       12 UNK         0.1400 
     71 CB         -3.7481  -20.5851  -47.1671 C.3       12 UNK        -0.1800 
     72 C          -3.4570  -23.0861  -47.5019 C.2       12 UNK         0.5000 
     73 O          -4.3204  -23.7667  -48.0557 O.2       12 UNK        -0.5000 
     74 N          -2.7217  -23.5112  -46.4641 N.am      13 UNK        -0.5000 
     75 CA         -2.8103  -24.8445  -45.8680 C.3       13 UNK         0.1400 
     76 CB         -1.9944  -24.8853  -44.5675 C.3       13 UNK        -0.1800 
     77 C          -2.3622  -25.9665  -46.8219 C.2       13 UNK         0.5000 
     78 O          -2.9863  -27.0274  -46.8294 O.2       13 UNK        -0.5000 
     79 N          -1.3156  -25.7124  -47.6220 N.am      14 UNK        -0.5000 
     80 CA         -0.8100  -26.6355  -48.6415 C.3       14 UNK         0.1400 
     81 CB          0.5349  -26.1299  -49.1853 C.3       14 UNK        -0.1800 
     82 C          -1.8139  -26.8637  -49.7867 C.2       14 UNK         0.5000 
     83 O          -1.9810  -28.0013  -50.2283 O.2       14 UNK        -0.5000 
     84 N          -2.4861  -25.7890  -50.2229 N.am      15 UNK        -0.5000 
     85 CA         -3.5849  -25.8422  -51.1904 C.3       15 UNK         0.1400 
     86 CB         -3.8527  -24.4303  -51.7331 C.3       15 UNK        -0.1800 
     87 C          -4.8775  -26.4487  -50.6120 C.2       15 UNK         0.5000 
     88 O          -5.6866  -26.9786  -51.3740 O.2       15 UNK        -0.5000 
     89 N          -5.0663  -26.3224  -49.2907 N.am      16 UNK        -0.5000 
     90 CA         -6.1976  -26.7494  -48.4553 C.3       16 UNK         0.1400 
     91 CB         -6.4461  -28.2659  -48.5563 C.3       16 UNK        -0.1800 
     92 C          -7.4843  -25.9413  -48.7076 C.2       16 UNK         0.5000 
     93 O          -8.0974  -25.4571  -47.7563 O.2       16 UNK        -0.5000 
     94 N          -7.8404  -25.7658  -49.9849 N.am      17 UNK        -0.5000 
     95 CA         -8.8967  -24.8727  -50.4634 C.3       17 UNK         0.1400 
     96 CB         -9.3697  -25.3741  -51.8373 C.3       17 UNK        -0.1800 
     97 C          -8.4303  -23.4046  -50.5609 C.2       17 UNK         0.5000 
     98 O          -9.2497  -22.5295  -50.8418 O.2       17 UNK        -0.5000 
     99 N          -7.1229  -23.1670  -50.3708 N.am      18 UNK        -0.5000 
    100 CA        -6.3756  -21.9042  -50.4256 C.3       18 UNK         0.1400 
    101 CB        -6.8902  -20.8923  -49.3872 C.3       18 UNK        -0.1800 
    102 C         -6.2735  -21.2691  -51.8242 C.2       18 UNK         0.5000 
    103 O         -5.1883  -20.8264  -52.2074 O.2       18 UNK        -0.5000 
    104 N         -7.3866  -21.2684  -52.5677 N.am      19 UNK        -0.5000 
    105 CA        -7.5758  -20.6557  -53.8844 C.3       19 UNK         0.1400 
    106 CB        -8.9993  -20.9641  -54.3723 C.3       19 UNK        -0.1800 
    107 C         -6.5448  -21.0757  -54.9488 C.2       19 UNK         0.5000 
    108 O         -6.1810  -20.2593  -55.7959 O.2       19 UNK        -0.5000 
    109 N         -6.0790  -22.3289  -54.8697 N.am      20 UNK        -0.5000 
    110 CA        -5.0945  -22.9120  -55.7801 C.3       20 UNK         0.1400 
    111 CB        -5.0852  -24.4375  -55.5931 C.3       20 UNK        -0.1800 
    112 C         -3.6707  -22.3392  -55.6250 C.2       20 UNK         0.5000 
    113 O         -2.8921  -22.4404  -56.5745 O.2       20 UNK        -0.5000 
    114 N         -3.3469  -21.7672  -54.4555 N.am      21 UNK        -0.5000 
    115 CA        -2.0262  -21.2065  -54.1575 C.3       21 UNK         0.1400 
    116 CB        -1.4413  -21.8916  -52.9145 C.3       21 UNK        -0.1800 
    117 C         -2.0630  -19.6864  -53.9481 C.2       21 UNK         0.5000 
    118 O         -1.1146  -19.0102  -54.3469 O.2       21 UNK        -0.5000 
    119 N         -3.1258  -19.1698  -53.3205 N.am      22 UNK        -0.5000 
    120 CA        -3.2537  -17.7550  -52.9450 C.3       22 UNK         0.1400 
    121 C         -4.7331  -17.2783  -52.9327 C.2       22 UNK         0.5000 
    122 N         -5.5558  -17.7260  -53.8720 N.am      22 UNK        -0.7600 
    123 O         -5.1510  -16.4948  -52.0852 O.2       22 UNK        -0.5000 
    124 C124       -2.4397  -17.4184  -51.6602 C.3       23 UNK        -0.0398 
    125 S125       -1.8510  -15.6908  -51.6393 S.3       23 UNK        -0.2404 
    126 C126       -0.3410  -15.8029  -52.6515 C.3       23 UNK        -0.0205 
    127 H127        2.7189  -19.4305  -42.9154 H         1 UNK         0.0600 
    128 H128        4.1591  -19.5842  -43.9368 H         1 UNK         0.0600 
    129 H129        4.3143  -19.0458  -42.2667 H         1 UNK         0.0600 
    130 H130        3.9360  -18.0036  -45.5162 H         1 UNK         0.3000 
    131 H131        2.6058  -15.5340  -45.1854 H         1 UNK         0.0600 
    132 H132        3.0696  -16.8957  -47.3725 H         1 UNK         0.0800 
    133 H133        4.6271  -16.1154  -47.4048 H         1 UNK         0.0800 
    134 H134        3.3794  -13.6967  -49.9912 H         1 UNK         0.0800 
    135 H135        4.5290  -14.9105  -49.5004 H         1 UNK         0.0800 
    136 H136        1.2200  -14.3005  -51.0172 H         1 UNK         0.1150 
    137 H137        0.7896  -18.2926  -52.5174 H         1 UNK         0.1150 
    138 H138        4.0484  -17.3225  -49.9037 H         1 UNK         0.1150 
    139 H139        2.5042  -19.9305  -52.1245 H         1 UNK         0.0800 
    140 H140        4.0512  -19.3615  -51.5557 H         1 UNK         0.0800 
    141 H141        0.6670  -20.7926  -50.7881 H         1 UNK         0.0800 
    142 H142        0.4635  -19.7202  -49.4260 H         1 UNK         0.0800 
    143 H143        1.1595  -22.7054  -49.2632 H         1 UNK         0.0600 
    144 H144        1.1323  -20.6904  -47.1862 H         1 UNK         0.3000 
    145 H145        1.1041  -22.9664  -44.4561 H         1 UNK         0.0600 
    146 H146        3.2516  -21.8761  -43.9487 H         1 UNK         0.0600 
    147 H147        3.4665  -22.9959  -45.2812 H         1 UNK         0.0600 
    148 H148        3.3821  -21.2695  -45.6041 H         1 UNK         0.0600 
    149 H149        1.4046  -20.1126  -44.6467 H         1 UNK         0.3000 
    150 H150       -2.1041  -19.4136  -44.3138 H         1 UNK         0.0600 
    151 H151       -1.1560  -19.9543  -42.0437 H         1 UNK         0.0600 
    152 H152       -1.3169  -18.2310  -42.3303 H         1 UNK         0.0600 
    153 H153        0.2687  -18.9966  -42.4301 H         1 UNK         0.0600 
    154 H154       -0.3779  -17.4128  -44.4100 H         1 UNK         0.3000 
    155 H155        0.7429  -16.4285  -46.5101 H         1 UNK         0.0600 
    156 H156       -1.2409  -17.0843  -48.7552 H         1 UNK         0.0600 
    157 H157        0.5043  -17.2791  -48.8024 H         1 UNK         0.0600 
    158 H158       -0.1912  -15.6698  -48.7163 H         1 UNK         0.0600 
    159 H159       -0.7888  -15.1628  -45.5624 H         1 UNK         0.3000 
    160 H160       -4.3141  -14.8114  -45.7620 H         1 UNK         0.0600 
    161 H161       -4.0877  -14.9817  -43.2845 H         1 UNK         0.0600 
    162 H162       -2.5458  -15.8166  -43.4724 H         1 UNK         0.0600 
    163 H163       -4.0304  -16.5665  -44.0414 H         1 UNK         0.0600 
    164 H164       -1.8245  -13.6644  -44.5643 H         1 UNK         0.3000 
    165 H165       -2.2201  -10.6110  -46.2322 H         1 UNK         0.0600 
    166 H166       -2.5194   -9.5251  -44.0171 H         1 UNK         0.0600 
    167 H167       -4.0341  -10.2228  -44.5670 H         1 UNK         0.0600 
    168 H168       -3.0955  -11.0424  -43.3249 H         1 UNK         0.0600 
    169 H169       -0.7415  -11.4569  -43.8853 H         1 UNK         0.3000 
    170 H170        1.9463  -12.9161  -45.6068 H         1 UNK         0.0600 
    171 H171        2.4925  -10.5059  -45.9800 H         1 UNK         0.0600 
    172 H172        1.9251  -10.1156  -44.3597 H         1 UNK         0.0600 
    173 H173        3.3434  -11.1413  -44.5824 H         1 UNK         0.0600 
    174 H174        1.8509  -12.1890  -42.9189 H         1 UNK         0.3000 
    175 H175        0.4040  -13.4496  -41.2083 H         1 UNK         0.0600 
    176 H176        0.4648  -16.3755  -42.1217 H         1 UNK         0.0600 
    177 H177        0.2019  -15.8294  -40.4681 H         1 UNK         0.0600 
    178 H178       -0.9741  -15.4438  -41.7121 H         1 UNK         0.0600 
    179 H179        2.6532  -15.3099  -41.7934 H         1 UNK         0.3000 
    180 H180        5.0055  -13.1021  -40.1797 H         1 UNK         0.0600 
    181 H181        4.0099  -15.9767  -39.7979 H         1 UNK         0.0600 
    182 H182        4.0085  -14.7191  -38.5656 H         1 UNK         0.0600 
    183 H183        5.5320  -15.3156  -39.2062 H         1 UNK         0.0600 
    184 H184        4.6761  -15.2863  -42.2123 H         1 UNK         0.3000 
    185 H185        7.0586  -13.8255  -44.3146 H         1 UNK         0.0600 
    186 H186        8.7138  -14.9535  -42.8212 H         1 UNK         0.0600 
    187 H187        7.6455  -16.3424  -42.6620 H         1 UNK         0.0600 
    188 H188        8.3561  -15.9429  -44.2270 H         1 UNK         0.0600 
    189 H189        5.8189  -16.4167  -44.3045 H         1 UNK         0.3000 
    190 H190       -1.2996  -20.6994  -47.6377 H         1 UNK         0.3000 
    191 H191       -3.5631  -21.5979  -49.0451 H         1 UNK         0.0600 
    192 H192       -3.3262  -20.5907  -46.1625 H         1 UNK         0.0600 
    193 H193       -4.8259  -20.7172  -47.0702 H         1 UNK         0.0600 
    194 H194       -3.5769  -19.5961  -47.5937 H         1 UNK         0.0600 
    195 H195       -2.0673  -22.8668  -46.0291 H         1 UNK         0.3000 
    196 H196       -3.8574  -25.0257  -45.6161 H         1 UNK         0.0600 
    197 H197       -0.9419  -24.6631  -44.7461 H         1 UNK         0.0600 
    198 H198       -2.0490  -25.8697  -44.1011 H         1 UNK         0.0600 
    199 H199       -2.3711  -24.1623  -43.8439 H         1 UNK         0.0600 
    200 H200       -0.8132  -24.8386  -47.5110 H         1 UNK         0.3000 
    201 H201       -0.6353  -27.5995  -48.1593 H         1 UNK         0.0600 
    202 H202        0.4397  -25.1520  -49.6566 H         1 UNK         0.0600 
    203 H203        0.9362  -26.8159  -49.9322 H         1 UNK         0.0600 
    204 H204        1.2755  -26.0477  -48.3898 H         1 UNK         0.0600 
    205 H205       -2.2386  -24.8759  -49.8540 H         1 UNK         0.3000 
    206 H206       -3.2840  -26.4749  -52.0280 H         1 UNK         0.0600 
    207 H207       -4.8177  -24.3634  -52.2366 H         1 UNK         0.0600 
    208 H208       -3.8401  -23.6846  -50.9394 H         1 UNK         0.0600 
    209 H209       -3.0937  -24.1546  -52.4615 H         1 UNK         0.0600 
    210 H210       -4.3729  -25.7786  -48.7904 H         1 UNK         0.3000 
    211 H211       -5.8923  -26.5383  -47.4291 H         1 UNK         0.0600 
    212 H212       -6.7858  -28.5629  -49.5486 H         1 UNK         0.0600 
    213 H213       -7.2101  -28.5806  -47.8445 H         1 UNK         0.0600 
    214 H214       -5.5391  -28.8267  -48.3296 H         1 UNK         0.0600 
    215 H215       -7.2668  -26.2211  -50.6911 H         1 UNK         0.3000 
    216 H216       -9.7402  -24.9081  -49.7711 H         1 UNK         0.0600 
    217 H217      -10.1832  -24.7579  -52.2226 H         1 UNK         0.0600 
    218 H218       -9.7407  -26.3974  -51.7763 H         1 UNK         0.0600 
    219 H219       -8.5640  -25.3530  -52.5725 H         1 UNK         0.0600 
    220 H220       -6.5608  -23.9732  -50.1411 H         1 UNK         0.3000 
    221 H221       -5.3615  -22.1697  -50.1412 H         1 UNK         0.0600 
    222 H222       -7.9001  -20.5503  -49.6148 H         1 UNK         0.0600 
    223 H223       -6.9007  -21.3273  -48.3879 H         1 UNK         0.0600 
    224 H224       -6.2481  -20.0111  -49.3529 H         1 UNK         0.0600 
    225 H225       -8.2171  -21.6603  -52.1310 H         1 UNK         0.3000 
    226 H226       -7.4948  -19.5774  -53.7501 H         1 UNK         0.0600 
    227 H227       -9.7462  -20.5799  -53.6773 H         1 UNK         0.0600 
    228 H228       -9.1908  -20.5022  -55.3418 H         1 UNK         0.0600 
    229 H229       -9.1632  -22.0371  -54.4799 H         1 UNK         0.0600 
    230 H230       -6.4329  -22.9243  -54.1362 H         1 UNK         0.3000 
    231 H231       -5.4178  -22.7005  -56.8017 H         1 UNK         0.0600 
    232 H232       -6.0740  -24.8633  -55.7644 H         1 UNK         0.0600 
    233 H233       -4.7656  -24.7211  -54.5908 H         1 UNK         0.0600 
    234 H234       -4.4026  -24.9125  -56.2990 H         1 UNK         0.0600 
    235 H235       -4.0557  -21.6798  -53.7369 H         1 UNK         0.3000 
    236 H236       -1.3341  -21.3900  -54.9818 H         1 UNK         0.0600 
    237 H237       -0.4786  -21.4554  -52.6509 H         1 UNK         0.0600 
    238 H238       -2.0995  -21.7944  -52.0501 H         1 UNK         0.0600 
    239 H239       -1.2662  -22.9515  -53.0952 H         1 UNK         0.0600 
    240 H240       -3.8782  -19.7741  -52.9980 H         1 UNK         0.3000 
    241 H241       -2.8205  -17.1792  -53.7647 H         1 UNK         0.0600 
    242 H242       -6.5072  -17.3959  -53.8805 H         1 UNK         0.3800 
    243 H243       -5.2391  -18.3612  -54.5899 H         1 UNK         0.3800 
    244 H244       -3.0318  -17.6065  -50.7632 H         1 UNK         0.0800 
    245 H245       -1.5664  -18.0649  -51.5697 H         1 UNK         0.0800 
    246 H246       -0.5061  -16.4682  -53.4998 H         1 UNK         0.0800 
    247 H247       -0.1395  -14.8199  -53.0797 H         1 UNK         0.0800 
@<TRIPOS>BOND
     1    1    2 1    
     2    1  127 1    
     3    1  128 1    
     4    1  129 1    
     5    2    3 2    
     6    2    4 am   BACKBONE|DICT|INTERRES
     7    4    5 1    
     8    4  130 1    
     9    5    6 1    
    10    5   65 1    
    11    5  131 1    
    12    6    7 1    
    13    6  132 1    
    14    6  133 1    
    15    7    8 1    
    16    8    9 1    
    17    8  134 1    
    18    8  135 1    
    19    9   10 ar   
    20    9   14 ar   
    21   10   11 ar   
    22   10  136 1    
    23   11   12 ar   
    24   11  126 1    
    25   12   13 ar   
    26   12  137 1    
    27   13   14 ar   
    28   13   15 1    
    29   14  138 1    
    30   15   16 1    
    31   15  139 1    
    32   15  140 1    
    33   16   17 1    
    34   17   18 1    
    35   17  141 1    
    36   17  142 1    
    37   18   19 1    
    38   18   67 1    
    39   18  143 1    
    40   19   20 am   BACKBONE|DICT|INTERRES
    41   19  144 1    
    42   20   21 2    
    43   20   22 1    
    44   22   23 1    
    45   22   24 1    
    46   22  145 1    
    47   23  146 1    
    48   23  147 1    
    49   23  148 1    
    50   24   25 am   BACKBONE|DICT|INTERRES
    51   24  149 1    
    52   25   26 2    
    53   25   27 1    
    54   27   28 1    
    55   27   29 1    
    56   27  150 1    
    57   28  151 1    
    58   28  152 1    
    59   28  153 1    
    60   29   30 am   BACKBONE|DICT|INTERRES
    61   29  154 1    
    62   30   31 2    
    63   30   32 1    
    64   32   33 1    
    65   32   34 1    
    66   32  155 1    
    67   33  156 1    
    68   33  157 1    
    69   33  158 1    
    70   34   35 am   BACKBONE|DICT|INTERRES
    71   34  159 1    
    72   35   36 2    
    73   35   37 1    
    74   37   38 1    
    75   37   39 1    
    76   37  160 1    
    77   38  161 1    
    78   38  162 1    
    79   38  163 1    
    80   39   40 am   BACKBONE|DICT|INTERRES
    81   39  164 1    
    82   40   41 2    
    83   40   42 1    
    84   42   43 1    
    85   42   44 1    
    86   42  165 1    
    87   43  166 1    
    88   43  167 1    
    89   43  168 1    
    90   44   45 am   BACKBONE|DICT|INTERRES
    91   44  169 1    
    92   45   46 2    
    93   45   47 1    
    94   47   48 1    
    95   47   49 1    
    96   47  170 1    
    97   48  171 1    
    98   48  172 1    
    99   48  173 1    
   100   49   50 am   BACKBONE|DICT|INTERRES
   101   49  174 1    
   102   50   51 2    
   103   50   52 1    
   104   52   53 1    
   105   52   54 1    
   106   52  175 1    
   107   53  176 1    
   108   53  177 1    
   109   53  178 1    
   110   54   55 am   BACKBONE|DICT|INTERRES
   111   54  179 1    
   112   55   56 2    
   113   55   57 1    
   114   57   58 1    
   115   57   59 1    
   116   57  180 1    
   117   58  181 1    
   118   58  182 1    
   119   58  183 1    
   120   59   60 am   BACKBONE|DICT|INTERRES
   121   59  184 1    
   122   60   61 2    
   123   60   62 1    
   124   62   63 1    
   125   62   64 1    
   126   62  185 1    
   127   63  186 1    
   128   63  187 1    
   129   63  188 1    
   130   64   65 am   BACKBONE|DICT|INTERRES
   131   64  189 1    
   132   65   66 2    
   133   67   68 2    
   134   67   69 am   BACKBONE|DICT|INTERRES
   135   69   70 1    
   136   69  190 1    
   137   70   71 1    
   138   70   72 1    
   139   70  191 1    
   140   71  192 1    
   141   71  193 1    
   142   71  194 1    
   143   72   73 2    
   144   72   74 am   BACKBONE|DICT|INTERRES
   145   74   75 1    
   146   74  195 1    
   147   75   76 1    
   148   75   77 1    
   149   75  196 1    
   150   76  197 1    
   151   76  198 1    
   152   76  199 1    
   153   77   78 2    
   154   77   79 am   BACKBONE|DICT|INTERRES
   155   79   80 1    
   156   79  200 1    
   157   80   81 1    
   158   80   82 1    
   159   80  201 1    
   160   81  202 1    
   161   81  203 1    
   162   81  204 1    
   163   82   83 2    
   164   82   84 am   BACKBONE|DICT|INTERRES
   165   84   85 1    
   166   84  205 1    
   167   85   86 1    
   168   85   87 1    
   169   85  206 1    
   170   86  207 1    
   171   86  208 1    
   172   86  209 1    
   173   87   88 2    
   174   87   89 am   BACKBONE|DICT|INTERRES
   175   89   90 1    
   176   89  210 1    
   177   90   91 1    
   178   90   92 1    
   179   90  211 1    
   180   91  212 1    
   181   91  213 1    
   182   91  214 1    
   183   92   93 2    
   184   92   94 am   BACKBONE|DICT|INTERRES
   185   94   95 1    
   186   94  215 1    
   187   95   96 1    
   188   95   97 1    
   189   95  216 1    
   190   96  217 1    
   191   96  218 1    
   192   96  219 1    
   193   97   98 2    
   194   97   99 am   BACKBONE|DICT|INTERRES
   195   99  100 1    
   196   99  220 1    
   197  100  101 1    
   198  100  102 1    
   199  100  221 1    
   200  101  222 1    
   201  101  223 1    
   202  101  224 1    
   203  102  103 2    
   204  102  104 am   BACKBONE|DICT|INTERRES
   205  104  105 1    
   206  104  225 1    
   207  105  106 1    
   208  105  107 1    
   209  105  226 1    
   210  106  227 1    
   211  106  228 1    
   212  106  229 1    
   213  107  108 2    
   214  107  109 am   BACKBONE|DICT|INTERRES
   215  109  110 1    
   216  109  230 1    
   217  110  111 1    
   218  110  112 1    
   219  110  231 1    
   220  111  232 1    
   221  111  233 1    
   222  111  234 1    
   223  112  113 2    
   224  112  114 am   BACKBONE|DICT|INTERRES
   225  114  115 1    
   226  114  235 1    
   227  115  116 1    
   228  115  117 1    
   229  115  236 1    
   230  116  237 1    
   231  116  238 1    
   232  116  239 1    
   233  117  118 2    
   234  117  119 am   BACKBONE|DICT|INTERRES
   235  119  120 1    
   236  119  240 1    
   237  120  121 1    
   238  120  124 1    
   239  120  241 1    
   240  121  122 am   BACKBONE|DICT|INTERRES
   241  121  123 2    
   242  122  242 1    
   243  122  243 1    
   244  124  125 1    
   245  124  244 1    
   246  124  245 1    
   247  125  126 1    
   248  126  246 1    
   249  126  247 1    
@<TRIPOS>SUBSTRUCTURE
     1 UNK         1 GROUP             0       ****    0 ROOT    
