@<TRIPOS>MOLECULE
3R540
247   249    1
SMALL
USER_CHARGES


@<TRIPOS>ATOM
      1 CA          1.8581  -12.2687  -47.7959 C.3       0 UNK        -0.1800 
      2 C           0.4956  -12.9176  -47.9918 C.2       0 UNK         0.5000 
      3 O          -0.4357  -12.2601  -48.4538 O.2       0 UNK        -0.5000 
      4 N           0.3729  -14.1961  -47.6138 N.am      1 UNK        -0.5000 
      5 CA         -0.8003  -15.0823  -47.7288 C.3       1 UNK         0.1400 
      6 C6         -1.2970  -15.2883  -49.1850 C.3       23 UNK        -0.0398 
      7 S7         -0.0003  -15.9975  -50.2604 S.3       23 UNK        -0.2404 
      8 C8         -0.3301  -17.7636  -49.9984 C.3       23 UNK        -0.0205 
      9 C9          0.6941  -18.6637  -50.6659 C.ar      23 UNK        -0.0193 
     10 C10         0.6776  -18.8503  -52.0500 C.ar      23 UNK        -0.1150 
     11 C11         1.5832  -19.7247  -52.6564 C.ar      23 UNK        -0.0193 
     12 C12         2.4931  -20.4334  -51.8658 C.ar      23 UNK        -0.1150 
     13 C13         2.5196  -20.2551  -50.4790 C.ar      23 UNK        -0.0193 
     14 C14         1.6298  -19.3520  -49.8900 C.ar      23 UNK        -0.1150 
     15 C15         3.5178  -21.0293  -49.6279 C.3       23 UNK        -0.0205 
     16 S16         2.7759  -22.5140  -48.8699 S.3       23 UNK        -0.2404 
     17 C17         2.1915  -21.8382  -47.2791 C.3       23 UNK        -0.0398 
     18 CA          1.0022  -22.5890  -46.6363 C.3       11 UNK         0.1400 
     19 N           0.7540  -22.0932  -45.2792 N.am      11 UNK        -0.5000 
     20 C          -0.0958  -22.6366  -44.3972 C.2       10 UNK         0.5000 
     21 O          -0.7254  -23.6729  -44.6041 O.2       10 UNK        -0.5000 
     22 CA         -0.3166  -21.8627  -43.0841 C.3       10 UNK         0.1400 
     23 CB          0.8063  -22.1567  -42.0787 C.3       10 UNK        -0.1800 
     24 N          -0.4220  -20.4181  -43.3008 N.am      10 UNK        -0.5000 
     25 C          -1.4133  -19.8274  -43.9843 C.2       9 UNK         0.5000 
     26 O          -2.3835  -20.4380  -44.4313 O.2       9 UNK        -0.5000 
     27 CA         -1.2719  -18.3180  -44.2639 C.3       9 UNK         0.1400 
     28 CB         -1.7378  -17.4868  -43.0614 C.3       9 UNK        -0.1800 
     29 N           0.0971  -17.9430  -44.6197 N.am      9 UNK        -0.5000 
     30 C           0.7366  -18.3643  -45.7183 C.2       8 UNK         0.5000 
     31 O           0.2099  -19.0547  -46.5869 O.2       8 UNK        -0.5000 
     32 CA          2.2259  -18.0041  -45.8477 C.3       8 UNK         0.1400 
     33 CB          2.4139  -16.6335  -46.5100 C.3       8 UNK        -0.1800 
     34 N           2.8991  -18.0274  -44.5513 N.am      8 UNK        -0.5000 
     35 C           3.2188  -19.1499  -43.8940 C.2       7 UNK         0.5000 
     36 O           3.0114  -20.2798  -44.3379 O.2       7 UNK        -0.5000 
     37 CA          3.8364  -18.9782  -42.4933 C.3       7 UNK         0.1400 
     38 CB          5.3487  -18.7313  -42.5952 C.3       7 UNK        -0.1800 
     39 N           3.2163  -17.8915  -41.7308 N.am      7 UNK        -0.5000 
     40 C           1.9554  -17.9191  -41.2780 C.2       6 UNK         0.5000 
     41 O           1.2000  -18.8781  -41.4322 O.2       6 UNK        -0.5000 
     42 CA          1.4318  -16.6523  -40.5726 C.3       6 UNK         0.1400 
     43 CB          1.7796  -16.6870  -39.0774 C.3       6 UNK        -0.1800 
     44 N           1.8881  -15.3800  -41.1436 N.am      6 UNK        -0.5000 
     45 C           1.7845  -15.0142  -42.4284 C.2       5 UNK         0.5000 
     46 O           1.4123  -15.7694  -43.3260 O.2       5 UNK        -0.5000 
     47 CA          2.0978  -13.5429  -42.7380 C.3       5 UNK         0.1400 
     48 CB          2.2552  -13.2765  -44.2465 C.3       5 UNK        -0.1800 
     49 N           0.9844  -12.7479  -42.2353 N.am      5 UNK        -0.5000 
     50 C           0.9792  -12.0410  -41.0982 C.2       4 UNK         0.5000 
     51 O           1.9682  -11.9036  -40.3773 O.2       4 UNK        -0.5000 
     52 CA         -0.3591  -11.3971  -40.6776 C.3       4 UNK         0.1400 
     53 CB         -0.4293   -9.9410  -41.1623 C.3       4 UNK        -0.1800 
     54 N          -1.5327  -12.1193  -41.1744 N.am      4 UNK        -0.5000 
     55 C          -1.8950  -13.3524  -40.7928 C.2       3 UNK         0.5000 
     56 O          -1.3298  -13.9822  -39.8982 O.2       3 UNK        -0.5000 
     57 CA         -3.0710  -14.0073  -41.5490 C.3       3 UNK         0.1400 
     58 CB         -4.3662  -13.8801  -40.7328 C.3       3 UNK        -0.1800 
     59 N          -3.3158  -13.5019  -42.9080 N.am      3 UNK        -0.5000 
     60 C          -2.4263  -13.4793  -43.9101 C.2       2 UNK         0.5000 
     61 O          -1.2380  -13.7741  -43.7732 O.2       2 UNK        -0.5000 
     62 CA         -2.9413  -12.9954  -45.2790 C.3       2 UNK         0.1400 
     63 CB         -2.9820  -11.4599  -45.3201 C.3       2 UNK        -0.1800 
     64 N          -2.0833  -13.4657  -46.3652 N.am      2 UNK        -0.5000 
     65 C          -1.9605  -14.7365  -46.7665 C.2       1 UNK         0.5000 
     66 O          -2.7014  -15.6394  -46.3759 O.2       1 UNK        -0.5000 
     67 C          -0.2825  -22.5528  -47.4976 C.2       11 UNK         0.5000 
     68 O          -0.6116  -23.5560  -48.1302 O.2       11 UNK        -0.5000 
     69 N          -1.0249  -21.4362  -47.4451 N.am      12 UNK        -0.5000 
     70 CA         -2.3336  -21.2659  -48.0807 C.3       12 UNK         0.1400 
     71 CB         -2.8390  -19.8322  -47.8637 C.3       12 UNK        -0.1800 
     72 C          -3.3829  -22.2705  -47.5767 C.2       12 UNK         0.5000 
     73 O          -4.0994  -22.8526  -48.3893 O.2       12 UNK        -0.5000 
     74 N          -3.4404  -22.4741  -46.2533 N.am      13 UNK        -0.5000 
     75 CA         -4.3287  -23.4378  -45.6023 C.3       13 UNK         0.1400 
     76 CB         -4.2807  -23.2376  -44.0802 C.3       13 UNK        -0.1800 
     77 C          -4.0073  -24.8970  -45.9754 C.2       13 UNK         0.5000 
     78 O          -4.9315  -25.6822  -46.1878 O.2       13 UNK        -0.5000 
     79 N          -2.7112  -25.2254  -46.0724 N.am      14 UNK        -0.5000 
     80 CA         -2.2149  -26.5300  -46.5105 C.3       14 UNK         0.1400 
     81 CB         -0.7118  -26.6363  -46.2104 C.3       14 UNK        -0.1800 
     82 C          -2.4986  -26.8014  -47.9997 C.2       14 UNK         0.5000 
     83 O          -2.8889  -27.9167  -48.3475 O.2       14 UNK        -0.5000 
     84 N          -2.3129  -25.7787  -48.8464 N.am      15 UNK        -0.5000 
     85 CA         -2.6157  -25.8159  -50.2782 C.3       15 UNK         0.1400 
     86 CB         -1.9976  -24.5859  -50.9559 C.3       15 UNK        -0.1800 
     87 C          -4.1273  -25.8951  -50.5660 C.2       15 UNK         0.5000 
     88 O          -4.5310  -26.5827  -51.5054 O.2       15 UNK        -0.5000 
     89 N          -4.9241  -25.2046  -49.7389 N.am      16 UNK        -0.5000 
     90 CA         -6.3862  -25.1463  -49.6788 C.3       16 UNK         0.1400 
     91 CB         -6.9926  -26.5306  -49.3781 C.3       16 UNK        -0.1800 
     92 C          -7.0383  -24.4870  -50.9067 C.2       16 UNK         0.5000 
     93 O          -7.6841  -23.4485  -50.7644 O.2       16 UNK        -0.5000 
     94 N          -6.8686  -25.0987  -52.0846 N.am      17 UNK        -0.5000 
     95 CA         -7.3909  -24.6101  -53.3602 C.3       17 UNK         0.1400 
     96 CB         -7.3846  -25.7535  -54.3864 C.3       17 UNK        -0.1800 
     97 C          -6.5884  -23.4042  -53.8748 C.2       17 UNK         0.5000 
     98 O          -7.1767  -22.4056  -54.2912 O.2       17 UNK        -0.5000 
     99 N          -5.2558  -23.5054  -53.7990 N.am      18 UNK        -0.5000 
    100 CA        -4.3132  -22.4470  -54.1525 C.3       18 UNK         0.1400 
    101 CB        -3.0596  -23.0808  -54.7780 C.3       18 UNK        -0.1800 
    102 C         -4.0083  -21.5896  -52.9110 C.2       18 UNK         0.5000 
    103 O         -2.8849  -21.5882  -52.4091 O.2       18 UNK        -0.5000 
    104 N         -5.0407  -20.8947  -52.4172 N.am      19 UNK        -0.5000 
    105 CA        -4.9873  -20.0467  -51.2236 C.3       19 UNK         0.1400 
    106 CB        -6.4220  -19.7698  -50.7501 C.3       19 UNK        -0.1800 
    107 C         -4.2141  -18.7257  -51.4241 C.2       19 UNK         0.5000 
    108 O         -3.9001  -18.0578  -50.4399 O.2       19 UNK        -0.5000 
    109 N         -3.9243  -18.3663  -52.6784 N.am      20 UNK        -0.5000 
    110 CA        -3.1176  -17.2232  -53.0842 C.3       20 UNK         0.1400 
    111 CB        -3.9293  -15.9210  -52.9570 C.3       20 UNK        -0.1800 
    112 C         -2.6615  -17.4488  -54.5320 C.2       20 UNK         0.5000 
    113 O         -3.3036  -18.2129  -55.2597 O.2       20 UNK        -0.5000 
    114 N         -1.5764  -16.7654  -54.9208 N.am      21 UNK        -0.5000 
    115 CA        -0.9618  -16.6744  -56.2553 C.3       21 UNK         0.1400 
    116 CB        -1.9355  -16.0424  -57.2684 C.3       21 UNK        -0.1800 
    117 C         -0.3606  -17.9801  -56.8169 C.2       21 UNK         0.5000 
    118 O          0.7491  -17.9445  -57.3492 O.2       21 UNK        -0.5000 
    119 N         -1.0892  -19.0947  -56.6938 N.am      22 UNK        -0.5000 
    120 CA        -0.7427  -20.4425  -57.1839 C.3       22 UNK         0.1400 
    121 C         -0.7001  -20.5794  -58.7384 C.2       22 UNK         0.5000 
    122 N         -1.2922  -19.6665  -59.4992 N.am      22 UNK        -0.7600 
    123 O         -0.1522  -21.5419  -59.2696 O.2       22 UNK        -0.5000 
    124 C124        0.5164  -21.0466  -56.4975 C.3       23 UNK        -0.0398 
    125 S125        0.3624  -21.1422  -54.6810 S.3       23 UNK        -0.2404 
    126 C126        1.5792  -19.8968  -54.1653 C.3       23 UNK        -0.0205 
    127 H127        2.2289  -11.8816  -48.7450 H         1 UNK         0.0600 
    128 H128        2.5924  -12.9749  -47.4073 H         1 UNK         0.0600 
    129 H129        1.7803  -11.4384  -47.0939 H         1 UNK         0.0600 
    130 H130        1.1857  -14.6430  -47.2170 H         1 UNK         0.3000 
    131 H131       -0.4453  -16.0521  -47.3789 H         1 UNK         0.0600 
    132 H132       -1.6283  -14.3440  -49.6184 H         1 UNK         0.0800 
    133 H133       -2.1677  -15.9473  -49.2083 H         1 UNK         0.0800 
    134 H134       -1.3205  -18.0121  -50.3755 H         1 UNK         0.0800 
    135 H135       -0.3480  -17.9553  -48.9264 H         1 UNK         0.0800 
    136 H136       -0.0425  -18.3197  -52.6555 H         1 UNK         0.1150 
    137 H137        3.1828  -21.1230  -52.3321 H         1 UNK         0.1150 
    138 H138        1.6472  -19.1921  -48.8239 H         1 UNK         0.1150 
    139 H139        4.3618  -21.3435  -50.2439 H         1 UNK         0.0800 
    140 H140        3.9378  -20.3814  -48.8569 H         1 UNK         0.0800 
    141 H141        1.9394  -20.7900  -47.4019 H         1 UNK         0.0800 
    142 H142        3.0432  -21.8576  -46.5976 H         1 UNK         0.0800 
    143 H143        1.2909  -23.6377  -46.5380 H         1 UNK         0.0600 
    144 H144        1.2686  -21.2658  -45.0008 H         1 UNK         0.3000 
    145 H145       -1.2576  -22.2064  -42.6501 H         1 UNK         0.0600 
    146 H146        0.6128  -21.6729  -41.1211 H         1 UNK         0.0600 
    147 H147        1.7741  -21.8076  -42.4388 H         1 UNK         0.0600 
    148 H148        0.8916  -23.2277  -41.8909 H         1 UNK         0.0600 
    149 H149        0.3050  -19.8396  -42.8909 H         1 UNK         0.3000 
    150 H150       -1.9125  -18.0711  -45.1127 H         1 UNK         0.0600 
    151 H151       -2.7939  -17.6615  -42.8535 H         1 UNK         0.0600 
    152 H152       -1.6128  -16.4220  -43.2540 H         1 UNK         0.0600 
    153 H153       -1.1799  -17.7324  -42.1587 H         1 UNK         0.0600 
    154 H154        0.5839  -17.3101  -43.9896 H         1 UNK         0.3000 
    155 H155        2.6990  -18.7478  -46.4912 H         1 UNK         0.0600 
    156 H156        1.9907  -16.6315  -47.5153 H         1 UNK         0.0600 
    157 H157        3.4707  -16.3832  -46.6043 H         1 UNK         0.0600 
    158 H158        1.9322  -15.8428  -45.9360 H         1 UNK         0.0600 
    159 H159        3.0027  -17.1390  -44.0801 H         1 UNK         0.3000 
    160 H160        3.6801  -19.9105  -41.9463 H         1 UNK         0.0600 
    161 H161        5.5719  -17.7972  -43.1121 H         1 UNK         0.0600 
    162 H162        5.8388  -19.5362  -43.1448 H         1 UNK         0.0600 
    163 H163        5.8082  -18.6871  -41.6076 H         1 UNK         0.0600 
    164 H164        3.7710  -17.0638  -41.5694 H         1 UNK         0.3000 
    165 H165        0.3441  -16.6614  -40.6612 H         1 UNK         0.0600 
    166 H166        1.3041  -15.8638  -38.5436 H         1 UNK         0.0600 
    167 H167        1.4338  -17.6133  -38.6162 H         1 UNK         0.0600 
    168 H168        2.8556  -16.6189  -38.9127 H         1 UNK         0.0600 
    169 H169        2.1840  -14.6794  -40.4786 H         1 UNK         0.3000 
    170 H170        3.0332  -13.2759  -42.2424 H         1 UNK         0.0600 
    171 H171        1.3445  -13.5168  -44.7966 H         1 UNK         0.0600 
    172 H172        2.4907  -12.2295  -44.4371 H         1 UNK         0.0600 
    173 H173        3.0642  -13.8746  -44.6669 H         1 UNK         0.0600 
    174 H174        0.1058  -12.8951  -42.7260 H         1 UNK         0.3000 
    175 H175       -0.3974  -11.3983  -39.5863 H         1 UNK         0.0600 
    176 H176       -0.4157   -9.8785  -42.2513 H         1 UNK         0.0600 
    177 H177       -1.3360   -9.4501  -40.8081 H         1 UNK         0.0600 
    178 H178        0.4181   -9.3640  -40.7895 H         1 UNK         0.0600 
    179 H179       -2.0573  -11.6784  -41.9150 H         1 UNK         0.3000 
    180 H180       -2.8336  -15.0685  -41.6384 H         1 UNK         0.0600 
    181 H181       -5.1803  -14.4408  -41.1926 H         1 UNK         0.0600 
    182 H182       -4.6823  -12.8402  -40.6413 H         1 UNK         0.0600 
    183 H183       -4.2344  -14.2730  -39.7237 H         1 UNK         0.0600 
    184 H184       -4.2634  -13.2111  -43.1017 H         1 UNK         0.3000 
    185 H185       -3.9486  -13.3865  -45.4358 H         1 UNK         0.0600 
    186 H186       -3.6425  -11.0615  -44.5490 H         1 UNK         0.0600 
    187 H187       -1.9930  -11.0273  -45.1619 H         1 UNK         0.0600 
    188 H188       -3.3537  -11.1014  -46.2803 H         1 UNK         0.0600 
    189 H189       -1.4475  -12.7900  -46.7711 H         1 UNK         0.3000 
    190 H190       -0.6601  -20.6302  -46.9427 H         1 UNK         0.3000 
    191 H191       -2.2062  -21.4263  -49.1535 H         1 UNK         0.0600 
    192 H192       -2.1959  -19.1068  -48.3535 H         1 UNK         0.0600 
    193 H193       -2.8878  -19.5703  -46.8087 H         1 UNK         0.0600 
    194 H194       -3.8417  -19.7019  -48.2709 H         1 UNK         0.0600 
    195 H195       -2.8569  -21.9069  -45.6451 H         1 UNK         0.3000 
    196 H196       -5.3465  -23.2283  -45.9381 H         1 UNK         0.0600 
    197 H197       -4.5754  -22.2243  -43.8066 H         1 UNK         0.0600 
    198 H198       -3.2818  -23.4139  -43.6813 H         1 UNK         0.0600 
    199 H199       -4.9620  -23.9230  -43.5747 H         1 UNK         0.0600 
    200 H200       -2.0121  -24.5344  -45.8161 H         1 UNK         0.3000 
    201 H201       -2.7295  -27.2978  -45.9290 H         1 UNK         0.0600 
    202 H202       -0.5142  -26.5187  -45.1447 H         1 UNK         0.0600 
    203 H203       -0.1389  -25.8756  -46.7412 H         1 UNK         0.0600 
    204 H204       -0.3216  -27.6100  -46.5088 H         1 UNK         0.0600 
    205 H205       -1.9172  -24.9130  -48.4884 H         1 UNK         0.3000 
    206 H206       -2.1487  -26.7080  -50.7004 H         1 UNK         0.0600 
    207 H207       -2.4184  -23.6572  -50.5685 H         1 UNK         0.0600 
    208 H208       -0.9185  -24.5506  -50.8051 H         1 UNK         0.0600 
    209 H209       -2.1740  -24.6058  -52.0299 H         1 UNK         0.0600 
    210 H210       -4.4660  -24.5811  -49.0788 H         1 UNK         0.3000 
    211 H211       -6.6119  -24.5055  -48.8248 H         1 UNK         0.0600 
    212 H212       -6.7943  -27.2509  -50.1720 H         1 UNK         0.0600 
    213 H213       -8.0748  -26.4635  -49.2614 H         1 UNK         0.0600 
    214 H214       -6.5902  -26.9384  -48.4504 H         1 UNK         0.0600 
    215 H215       -6.2592  -25.9110  -52.1049 H         1 UNK         0.3000 
    216 H216       -8.4249  -24.2900  -53.2146 H         1 UNK         0.0600 
    217 H217       -7.7731  -25.4166  -55.3483 H         1 UNK         0.0600 
    218 H218       -8.0115  -26.5816  -54.0552 H         1 UNK         0.0600 
    219 H219       -6.3793  -26.1418  -54.5548 H         1 UNK         0.0600 
    220 H220       -4.8612  -24.3448  -53.4004 H         1 UNK         0.3000 
    221 H221       -4.7526  -21.7878  -54.9045 H         1 UNK         0.0600 
    222 H222       -2.5750  -23.7854  -54.1042 H         1 UNK         0.0600 
    223 H223       -3.3051  -23.6128  -55.6971 H         1 UNK         0.0600 
    224 H224       -2.3277  -22.3159  -55.0319 H         1 UNK         0.0600 
    225 H225       -5.9380  -20.9762  -52.8779 H         1 UNK         0.3000 
    226 H226       -4.4746  -20.6062  -50.4388 H         1 UNK         0.0600 
    227 H227       -6.9499  -20.6980  -50.5298 H         1 UNK         0.0600 
    228 H228       -6.4247  -19.1726  -49.8373 H         1 UNK         0.0600 
    229 H229       -6.9955  -19.2258  -51.5015 H         1 UNK         0.0600 
    230 H230       -4.2035  -18.9652  -53.4449 H         1 UNK         0.3000 
    231 H231       -2.2339  -17.1664  -52.4467 H         1 UNK         0.0600 
    232 H232       -4.8356  -15.9540  -53.5628 H         1 UNK         0.0600 
    233 H233       -3.3452  -15.0602  -53.2846 H         1 UNK         0.0600 
    234 H234       -4.2235  -15.7341  -51.9242 H         1 UNK         0.0600 
    235 H235       -1.1222  -16.1913  -54.2240 H         1 UNK         0.3000 
    236 H236       -0.1268  -15.9815  -56.1391 H         1 UNK         0.0600 
    237 H237       -2.8098  -16.6704  -57.4420 H         1 UNK         0.0600 
    238 H238       -2.2858  -15.0697  -56.9232 H         1 UNK         0.0600 
    239 H239       -1.4489  -15.8882  -58.2324 H         1 UNK         0.0600 
    240 H240       -1.9937  -19.0018  -56.2372 H         1 UNK         0.3000 
    241 H241       -1.5877  -21.0672  -56.8961 H         1 UNK         0.0600 
    242 H242       -1.2705  -19.7661  -60.5021 H         1 UNK         0.3800 
    243 H243       -1.7619  -18.8789  -59.0828 H         1 UNK         0.3800 
    244 H244        1.4112  -20.4862  -56.7711 H         1 UNK         0.0800 
    245 H245        0.6862  -22.0657  -56.8483 H         1 UNK         0.0800 
    246 H246        1.3546  -18.9422  -54.6416 H         1 UNK         0.0800 
    247 H247        2.5701  -20.1909  -54.5149 H         1 UNK         0.0800 
@<TRIPOS>BOND
     1    1    2 1    
     2    1  127 1    
     3    1  128 1    
     4    1  129 1    
     5    2    3 2    
     6    2    4 am   BACKBONE|DICT|INTERRES
     7    4    5 1    
     8    4  130 1    
     9    5    6 1    
    10    5   65 1    
    11    5  131 1    
    12    6    7 1    
    13    6  132 1    
    14    6  133 1    
    15    7    8 1    
    16    8    9 1    
    17    8  134 1    
    18    8  135 1    
    19    9   10 ar   
    20    9   14 ar   
    21   10   11 ar   
    22   10  136 1    
    23   11   12 ar   
    24   11  126 1    
    25   12   13 ar   
    26   12  137 1    
    27   13   14 ar   
    28   13   15 1    
    29   14  138 1    
    30   15   16 1    
    31   15  139 1    
    32   15  140 1    
    33   16   17 1    
    34   17   18 1    
    35   17  141 1    
    36   17  142 1    
    37   18   19 1    
    38   18   67 1    
    39   18  143 1    
    40   19   20 am   BACKBONE|DICT|INTERRES
    41   19  144 1    
    42   20   21 2    
    43   20   22 1    
    44   22   23 1    
    45   22   24 1    
    46   22  145 1    
    47   23  146 1    
    48   23  147 1    
    49   23  148 1    
    50   24   25 am   BACKBONE|DICT|INTERRES
    51   24  149 1    
    52   25   26 2    
    53   25   27 1    
    54   27   28 1    
    55   27   29 1    
    56   27  150 1    
    57   28  151 1    
    58   28  152 1    
    59   28  153 1    
    60   29   30 am   BACKBONE|DICT|INTERRES
    61   29  154 1    
    62   30   31 2    
    63   30   32 1    
    64   32   33 1    
    65   32   34 1    
    66   32  155 1    
    67   33  156 1    
    68   33  157 1    
    69   33  158 1    
    70   34   35 am   BACKBONE|DICT|INTERRES
    71   34  159 1    
    72   35   36 2    
    73   35   37 1    
    74   37   38 1    
    75   37   39 1    
    76   37  160 1    
    77   38  161 1    
    78   38  162 1    
    79   38  163 1    
    80   39   40 am   BACKBONE|DICT|INTERRES
    81   39  164 1    
    82   40   41 2    
    83   40   42 1    
    84   42   43 1    
    85   42   44 1    
    86   42  165 1    
    87   43  166 1    
    88   43  167 1    
    89   43  168 1    
    90   44   45 am   BACKBONE|DICT|INTERRES
    91   44  169 1    
    92   45   46 2    
    93   45   47 1    
    94   47   48 1    
    95   47   49 1    
    96   47  170 1    
    97   48  171 1    
    98   48  172 1    
    99   48  173 1    
   100   49   50 am   BACKBONE|DICT|INTERRES
   101   49  174 1    
   102   50   51 2    
   103   50   52 1    
   104   52   53 1    
   105   52   54 1    
   106   52  175 1    
   107   53  176 1    
   108   53  177 1    
   109   53  178 1    
   110   54   55 am   BACKBONE|DICT|INTERRES
   111   54  179 1    
   112   55   56 2    
   113   55   57 1    
   114   57   58 1    
   115   57   59 1    
   116   57  180 1    
   117   58  181 1    
   118   58  182 1    
   119   58  183 1    
   120   59   60 am   BACKBONE|DICT|INTERRES
   121   59  184 1    
   122   60   61 2    
   123   60   62 1    
   124   62   63 1    
   125   62   64 1    
   126   62  185 1    
   127   63  186 1    
   128   63  187 1    
   129   63  188 1    
   130   64   65 am   BACKBONE|DICT|INTERRES
   131   64  189 1    
   132   65   66 2    
   133   67   68 2    
   134   67   69 am   BACKBONE|DICT|INTERRES
   135   69   70 1    
   136   69  190 1    
   137   70   71 1    
   138   70   72 1    
   139   70  191 1    
   140   71  192 1    
   141   71  193 1    
   142   71  194 1    
   143   72   73 2    
   144   72   74 am   BACKBONE|DICT|INTERRES
   145   74   75 1    
   146   74  195 1    
   147   75   76 1    
   148   75   77 1    
   149   75  196 1    
   150   76  197 1    
   151   76  198 1    
   152   76  199 1    
   153   77   78 2    
   154   77   79 am   BACKBONE|DICT|INTERRES
   155   79   80 1    
   156   79  200 1    
   157   80   81 1    
   158   80   82 1    
   159   80  201 1    
   160   81  202 1    
   161   81  203 1    
   162   81  204 1    
   163   82   83 2    
   164   82   84 am   BACKBONE|DICT|INTERRES
   165   84   85 1    
   166   84  205 1    
   167   85   86 1    
   168   85   87 1    
   169   85  206 1    
   170   86  207 1    
   171   86  208 1    
   172   86  209 1    
   173   87   88 2    
   174   87   89 am   BACKBONE|DICT|INTERRES
   175   89   90 1    
   176   89  210 1    
   177   90   91 1    
   178   90   92 1    
   179   90  211 1    
   180   91  212 1    
   181   91  213 1    
   182   91  214 1    
   183   92   93 2    
   184   92   94 am   BACKBONE|DICT|INTERRES
   185   94   95 1    
   186   94  215 1    
   187   95   96 1    
   188   95   97 1    
   189   95  216 1    
   190   96  217 1    
   191   96  218 1    
   192   96  219 1    
   193   97   98 2    
   194   97   99 am   BACKBONE|DICT|INTERRES
   195   99  100 1    
   196   99  220 1    
   197  100  101 1    
   198  100  102 1    
   199  100  221 1    
   200  101  222 1    
   201  101  223 1    
   202  101  224 1    
   203  102  103 2    
   204  102  104 am   BACKBONE|DICT|INTERRES
   205  104  105 1    
   206  104  225 1    
   207  105  106 1    
   208  105  107 1    
   209  105  226 1    
   210  106  227 1    
   211  106  228 1    
   212  106  229 1    
   213  107  108 2    
   214  107  109 am   BACKBONE|DICT|INTERRES
   215  109  110 1    
   216  109  230 1    
   217  110  111 1    
   218  110  112 1    
   219  110  231 1    
   220  111  232 1    
   221  111  233 1    
   222  111  234 1    
   223  112  113 2    
   224  112  114 am   BACKBONE|DICT|INTERRES
   225  114  115 1    
   226  114  235 1    
   227  115  116 1    
   228  115  117 1    
   229  115  236 1    
   230  116  237 1    
   231  116  238 1    
   232  116  239 1    
   233  117  118 2    
   234  117  119 am   BACKBONE|DICT|INTERRES
   235  119  120 1    
   236  119  240 1    
   237  120  121 1    
   238  120  124 1    
   239  120  241 1    
   240  121  122 am   BACKBONE|DICT|INTERRES
   241  121  123 2    
   242  122  242 1    
   243  122  243 1    
   244  124  125 1    
   245  124  244 1    
   246  124  245 1    
   247  125  126 1    
   248  126  246 1    
   249  126  247 1    
@<TRIPOS>SUBSTRUCTURE
     1 UNK         1 GROUP             0       ****    0 ROOT    
