@<TRIPOS>MOLECULE
3R540
247   249    1
SMALL
USER_CHARGES


@<TRIPOS>ATOM
      1 CA         -1.1137  -13.1111  -43.2586 C.3       0 UNK        -0.1800 
      2 C          -1.0755  -13.6611  -44.6764 C.2       0 UNK         0.5000 
      3 O          -0.0010  -13.7785  -45.2588 O.2       0 UNK        -0.5000 
      4 N          -2.2423  -13.9682  -45.2606 N.am      1 UNK        -0.5000 
      5 CA         -2.4077  -14.5936  -46.5868 C.3       1 UNK         0.1400 
      6 C6         -1.9000  -16.0670  -46.5985 C.3       23 UNK        -0.0398 
      7 S7         -3.0630  -17.1986  -47.4327 S.3       23 UNK        -0.2404 
      8 C8         -2.4494  -18.8103  -46.8524 C.3       23 UNK        -0.0205 
      9 C9         -3.5767  -19.8172  -46.6996 C.ar      23 UNK        -0.0193 
     10 C10        -4.1300  -20.4352  -47.8242 C.ar      23 UNK        -0.1150 
     11 C11        -5.1655  -21.3643  -47.6852 C.ar      23 UNK        -0.0193 
     12 C12        -5.6251  -21.6945  -46.4073 C.ar      23 UNK        -0.1150 
     13 C13        -5.0673  -21.0961  -45.2735 C.ar      23 UNK        -0.0193 
     14 C14        -4.0558  -20.1442  -45.4276 C.ar      23 UNK        -0.1150 
     15 C15        -5.5563  -21.4850  -43.8860 C.3       23 UNK        -0.0205 
     16 S16        -5.0973  -23.1963  -43.4601 S.3       23 UNK        -0.2404 
     17 C17        -3.3242  -23.0425  -43.0332 C.3       23 UNK        -0.0398 
     18 CA         -2.3330  -23.0711  -44.2257 C.3       11 UNK         0.1400 
     19 N          -0.9465  -23.0320  -43.7642 N.am      11 UNK        -0.5000 
     20 C           0.1366  -22.9144  -44.5436 C.2       10 UNK         0.5000 
     21 O           0.0788  -22.8386  -45.7729 O.2       10 UNK        -0.5000 
     22 CA          1.5008  -22.8701  -43.8181 C.3       10 UNK         0.1400 
     23 CB          2.6730  -22.5971  -44.7762 C.3       10 UNK        -0.1800 
     24 N           1.5225  -21.8665  -42.7508 N.am      10 UNK        -0.5000 
     25 C           0.9787  -22.0055  -41.5341 C.2       9 UNK         0.5000 
     26 O           0.4481  -23.0458  -41.1423 O.2       9 UNK        -0.5000 
     27 CA          0.9599  -20.7564  -40.6343 C.3       9 UNK         0.1400 
     28 CB          2.3183  -20.5543  -39.9465 C.3       9 UNK        -0.1800 
     29 N           0.5971  -19.5471  -41.3743 N.am      9 UNK        -0.5000 
     30 C          -0.5991  -19.3240  -41.9397 C.2       8 UNK         0.5000 
     31 O          -1.5658  -20.0765  -41.8190 O.2       8 UNK        -0.5000 
     32 CA         -0.7295  -18.0627  -42.8143 C.3       8 UNK         0.1400 
     33 CB         -1.0611  -16.8300  -41.9626 C.3       8 UNK        -0.1800 
     34 N           0.4722  -17.8062  -43.6101 N.am      8 UNK        -0.5000 
     35 C           0.8963  -18.6012  -44.6031 C.2       7 UNK         0.5000 
     36 O           0.2829  -19.5897  -44.9967 O.2       7 UNK        -0.5000 
     37 CA          2.2469  -18.2538  -45.2438 C.3       7 UNK         0.1400 
     38 CB          2.0580  -17.2334  -46.3712 C.3       7 UNK        -0.1800 
     39 N           3.2023  -17.7462  -44.2605 N.am      7 UNK        -0.5000 
     40 C           3.8280  -18.5244  -43.3654 C.2       6 UNK         0.5000 
     41 O           3.6759  -19.7444  -43.3024 O.2       6 UNK        -0.5000 
     42 CA          4.7452  -17.8252  -42.3430 C.3       6 UNK         0.1400 
     43 CB          6.1487  -17.6168  -42.9308 C.3       6 UNK        -0.1800 
     44 N           4.2194  -16.5396  -41.8835 N.am      6 UNK        -0.5000 
     45 C           3.0691  -16.3826  -41.2148 C.2       5 UNK         0.5000 
     46 O           2.3573  -17.3202  -40.8577 O.2       5 UNK        -0.5000 
     47 CA          2.6060  -14.9393  -40.9360 C.3       5 UNK         0.1400 
     48 CB          3.0410  -14.5023  -39.5295 C.3       5 UNK        -0.1800 
     49 N           3.0566  -13.9378  -41.9103 N.am      5 UNK        -0.5000 
     50 C           2.8515  -13.9816  -43.2347 C.2       4 UNK         0.5000 
     51 O           2.3387  -14.9475  -43.8026 O.2       4 UNK        -0.5000 
     52 CA          3.2946  -12.7270  -44.0187 C.3       4 UNK         0.1400 
     53 CB          4.8161  -12.4907  -43.9053 C.3       4 UNK        -0.1800 
     54 N           2.8578  -12.7074  -45.4210 N.am      4 UNK        -0.5000 
     55 C           3.2656  -13.4879  -46.4330 C.2       3 UNK         0.5000 
     56 O           4.1479  -14.3423  -46.3315 O.2       3 UNK        -0.5000 
     57 CA          2.5935  -13.2434  -47.8005 C.3       3 UNK         0.1400 
     58 CB          2.5575  -14.4985  -48.6916 C.3       3 UNK        -0.1800 
     59 N           1.2374  -12.7015  -47.6712 N.am      3 UNK        -0.5000 
     60 C           0.6498  -11.9001  -48.5736 C.2       2 UNK         0.5000 
     61 O           1.2375  -11.4623  -49.5648 O.2       2 UNK        -0.5000 
     62 CA         -0.8296  -11.5081  -48.3367 C.3       2 UNK         0.1400 
     63 CB         -1.5898  -11.2162  -49.6479 C.3       2 UNK        -0.1800 
     64 N          -1.5690  -12.4629  -47.5039 N.am      2 UNK        -0.5000 
     65 C          -1.8251  -13.7567  -47.7590 C.2       1 UNK         0.5000 
     66 O          -1.5954  -14.2942  -48.8424 O.2       1 UNK        -0.5000 
     67 C          -2.5556  -24.2544  -45.1901 C.2       11 UNK         0.5000 
     68 O          -2.2179  -25.3916  -44.8531 O.2       11 UNK        -0.5000 
     69 N          -3.0833  -23.9348  -46.3800 N.am      12 UNK        -0.5000 
     70 CA         -3.3148  -24.8264  -47.5193 C.3       12 UNK         0.1400 
     71 CB         -4.3347  -25.9283  -47.1655 C.3       12 UNK        -0.1800 
     72 C          -2.0217  -25.3806  -48.1586 C.2       12 UNK         0.5000 
     73 O          -2.0906  -26.3687  -48.8912 O.2       12 UNK        -0.5000 
     74 N          -0.8758  -24.7328  -47.9033 N.am      13 UNK        -0.5000 
     75 CA          0.4389  -25.1382  -48.4018 C.3       13 UNK         0.1400 
     76 CB          1.1617  -25.9342  -47.2993 C.3       13 UNK        -0.1800 
     77 C           1.2868  -23.9484  -48.8931 C.2       13 UNK         0.5000 
     78 O           2.4553  -24.1524  -49.2274 O.2       13 UNK        -0.5000 
     79 N           0.7169  -22.7370  -48.9406 N.am      14 UNK        -0.5000 
     80 CA          1.4109  -21.5109  -49.3237 C.3       14 UNK         0.1400 
     81 CB          2.1701  -20.9510  -48.1067 C.3       14 UNK        -0.1800 
     82 C           0.4193  -20.4707  -49.8600 C.2       14 UNK         0.5000 
     83 O          -0.7878  -20.5853  -49.6256 O.2       14 UNK        -0.5000 
     84 N           0.9744  -19.4582  -50.5426 N.am      15 UNK        -0.5000 
     85 CA          0.3234  -18.2430  -51.0394 C.3       15 UNK         0.1400 
     86 CB          0.0769  -17.2733  -49.8675 C.3       15 UNK        -0.1800 
     87 C          -0.9305  -18.5423  -51.8804 C.2       15 UNK         0.5000 
     88 O          -0.7996  -19.1170  -52.9632 O.2       15 UNK        -0.5000 
     89 N          -2.1159  -18.1878  -51.3635 N.am      16 UNK        -0.5000 
     90 CA         -3.4220  -18.3899  -51.9930 C.3       16 UNK         0.1400 
     91 CB         -4.5211  -17.8392  -51.0732 C.3       16 UNK        -0.1800 
     92 C          -3.7250  -19.8507  -52.3690 C.2       16 UNK         0.5000 
     93 O          -4.4548  -20.0744  -53.3346 O.2       16 UNK        -0.5000 
     94 N          -3.1341  -20.8143  -51.6461 N.am      17 UNK        -0.5000 
     95 CA         -3.2398  -22.2470  -51.9294 C.3       17 UNK         0.1400 
     96 CB         -2.5791  -23.0348  -50.7899 C.3       17 UNK        -0.1800 
     97 C          -2.6088  -22.6495  -53.2747 C.2       17 UNK         0.5000 
     98 O          -3.0787  -23.6004  -53.8982 O.2       17 UNK        -0.5000 
     99 N          -1.5692  -21.9190  -53.6952 N.am      18 UNK        -0.5000 
    100 CA        -0.8830  -22.1127  -54.9686 C.3       18 UNK         0.1400 
    101 CB         0.6303  -21.9546  -54.7500 C.3       18 UNK        -0.1800 
    102 C         -1.3847  -21.1108  -56.0197 C.2       18 UNK         0.5000 
    103 O         -1.6041  -21.4947  -57.1686 O.2       18 UNK        -0.5000 
    104 N         -1.5474  -19.8448  -55.6122 N.am      19 UNK        -0.5000 
    105 CA        -1.8663  -18.7266  -56.4984 C.3       19 UNK         0.1400 
    106 CB        -1.5340  -17.4102  -55.7791 C.3       19 UNK        -0.1800 
    107 C         -3.3222  -18.7096  -56.9963 C.2       19 UNK         0.5000 
    108 O         -3.5619  -18.2485  -58.1133 O.2       19 UNK        -0.5000 
    109 N         -4.2640  -19.1776  -56.1667 N.am      20 UNK        -0.5000 
    110 CA        -5.7040  -19.0706  -56.4183 C.3       20 UNK         0.1400 
    111 CB        -6.2511  -17.8829  -55.6043 C.3       20 UNK        -0.1800 
    112 C         -6.4706  -20.3641  -56.0918 C.2       20 UNK         0.5000 
    113 O         -7.7024  -20.3441  -56.1062 O.2       20 UNK        -0.5000 
    114 N         -5.7557  -21.4497  -55.7537 N.am      21 UNK        -0.5000 
    115 CA        -6.2880  -22.7343  -55.2696 C.3       21 UNK         0.1400 
    116 CB        -7.0088  -23.4849  -56.4085 C.3       21 UNK        -0.1800 
    117 C         -7.1627  -22.5902  -54.0001 C.2       21 UNK         0.5000 
    118 O         -8.1025  -23.3611  -53.7994 O.2       21 UNK        -0.5000 
    119 N         -6.8455  -21.5778  -53.1826 N.am      22 UNK        -0.5000 
    120 CA        -7.6163  -21.0926  -52.0292 C.3       22 UNK         0.1400 
    121 C         -8.9728  -20.4037  -52.3837 C.2       22 UNK         0.5000 
    122 N         -9.2522  -20.0737  -53.6396 N.am      22 UNK        -0.7600 
    123 O         -9.7837  -20.1325  -51.5026 O.2       22 UNK        -0.5000 
    124 C124       -7.7391  -22.1513  -50.8946 C.3       23 UNK        -0.0398 
    125 S125       -7.4524  -21.4193  -49.2469 S.3       23 UNK        -0.2404 
    126 C126       -5.7740  -22.0263  -48.9104 C.3       23 UNK        -0.0205 
    127 H127       -0.8601  -12.0512  -43.2618 H         1 UNK         0.0600 
    128 H128       -0.3868  -13.6321  -42.6353 H         1 UNK         0.0600 
    129 H129       -2.0982  -13.2292  -42.8057 H         1 UNK         0.0600 
    130 H130       -3.1008  -13.8151  -44.7492 H         1 UNK         0.3000 
    131 H131       -3.4865  -14.5957  -46.7494 H         1 UNK         0.0600 
    132 H132       -0.9083  -16.1593  -47.0455 H         1 UNK         0.0800 
    133 H133       -1.7851  -16.4255  -45.5747 H         1 UNK         0.0800 
    134 H134       -1.6988  -19.1922  -47.5446 H         1 UNK         0.0800 
    135 H135       -1.9445  -18.6890  -45.8959 H         1 UNK         0.0800 
    136 H136       -3.7536  -20.1847  -48.8055 H         1 UNK         0.1150 
    137 H137       -6.4148  -22.4244  -46.2943 H         1 UNK         0.1150 
    138 H138       -3.6238  -19.6750  -44.5545 H         1 UNK         0.1150 
    139 H139       -5.1758  -20.8008  -43.1259 H         1 UNK         0.0800 
    140 H140       -6.6432  -21.3969  -43.8592 H         1 UNK         0.0800 
    141 H141       -3.0903  -23.8583  -42.3472 H         1 UNK         0.0800 
    142 H142       -3.1844  -22.1262  -42.4589 H         1 UNK         0.0800 
    143 H143       -2.4685  -22.1506  -44.7909 H         1 UNK         0.0600 
    144 H144       -0.7956  -23.1080  -42.7651 H         1 UNK         0.3000 
    145 H145        1.6586  -23.8565  -43.3776 H         1 UNK         0.0600 
    146 H146        3.6280  -22.6400  -44.2525 H         1 UNK         0.0600 
    147 H147        2.5887  -21.6111  -45.2322 H         1 UNK         0.0600 
    148 H148        2.7091  -23.3325  -45.5808 H         1 UNK         0.0600 
    149 H149        1.9465  -20.9778  -42.9902 H         1 UNK         0.3000 
    150 H150        0.2069  -20.9142  -39.8594 H         1 UNK         0.0600 
    151 H151        2.6009  -21.4377  -39.3726 H         1 UNK         0.0600 
    152 H152        2.2874  -19.7126  -39.2543 H         1 UNK         0.0600 
    153 H153        3.1125  -20.3631  -40.6684 H         1 UNK         0.0600 
    154 H154        1.3123  -18.8293  -41.4484 H         1 UNK         0.3000 
    155 H155       -1.5602  -18.2260  -43.5036 H         1 UNK         0.0600 
    156 H156       -1.9718  -16.9907  -41.3843 H         1 UNK         0.0600 
    157 H157       -1.2263  -15.9556  -42.5898 H         1 UNK         0.0600 
    158 H158       -0.2632  -16.5973  -41.2580 H         1 UNK         0.0600 
    159 H159        1.0362  -17.0048  -43.3605 H         1 UNK         0.3000 
    160 H160        2.6558  -19.1655  -45.6832 H         1 UNK         0.0600 
    161 H161        1.3783  -17.6228  -47.1292 H         1 UNK         0.0600 
    162 H162        3.0051  -17.0097  -46.8622 H         1 UNK         0.0600 
    163 H163        1.6383  -16.2958  -46.0042 H         1 UNK         0.0600 
    164 H164        3.3006  -16.7378  -44.2051 H         1 UNK         0.3000 
    165 H165        4.8319  -18.4809  -41.4740 H         1 UNK         0.0600 
    166 H166        6.8296  -17.1998  -42.1886 H         1 UNK         0.0600 
    167 H167        6.5752  -18.5629  -43.2668 H         1 UNK         0.0600 
    168 H168        6.1301  -16.9418  -43.7876 H         1 UNK         0.0600 
    169 H169        4.7332  -15.7132  -42.1505 H         1 UNK         0.3000 
    170 H170        1.5151  -14.9433  -40.9662 H         1 UNK         0.0600 
    171 H171        4.1266  -14.4341  -39.4479 H         1 UNK         0.0600 
    172 H172        2.6218  -13.5301  -39.2698 H         1 UNK         0.0600 
    173 H173        2.6990  -15.2128  -38.7755 H         1 UNK         0.0600 
    174 H174        3.4952  -13.1161  -41.5206 H         1 UNK         0.3000 
    175 H175        2.7915  -11.8799  -43.5504 H         1 UNK         0.0600 
    176 H176        5.3902  -13.3532  -44.2448 H         1 UNK         0.0600 
    177 H177        5.1263  -11.6287  -44.4961 H         1 UNK         0.0600 
    178 H178        5.1109  -12.2934  -42.8743 H         1 UNK         0.0600 
    179 H179        2.0992  -12.0715  -45.6183 H         1 UNK         0.3000 
    180 H180        3.2252  -12.5019  -48.2937 H         1 UNK         0.0600 
    181 H181        2.2110  -14.2607  -49.6973 H         1 UNK         0.0600 
    182 H182        1.8804  -15.2414  -48.2762 H         1 UNK         0.0600 
    183 H183        3.5423  -14.9563  -48.7901 H         1 UNK         0.0600 
    184 H184        0.7011  -13.0456  -46.8765 H         1 UNK         0.3000 
    185 H185       -0.7989  -10.5787  -47.7666 H         1 UNK         0.0600 
    186 H186       -2.6270  -10.9452  -49.4509 H         1 UNK         0.0600 
    187 H187       -1.1361  -10.3837  -50.1868 H         1 UNK         0.0600 
    188 H188       -1.5887  -12.0762  -50.3179 H         1 UNK         0.0600 
    189 H189       -1.7996  -12.1345  -46.5768 H         1 UNK         0.3000 
    190 H190       -3.3278  -22.9667  -46.5399 H         1 UNK         0.3000 
    191 H191       -3.7748  -24.2073  -48.2870 H         1 UNK         0.0600 
    192 H192       -3.9225  -26.6545  -46.4647 H         1 UNK         0.0600 
    193 H193       -4.6441  -26.4759  -48.0563 H         1 UNK         0.0600 
    194 H194       -5.2341  -25.5033  -46.7194 H         1 UNK         0.0600 
    195 H195       -0.8706  -23.9619  -47.2427 H         1 UNK         0.3000 
    196 H196        0.3228  -25.7891  -49.2704 H         1 UNK         0.0600 
    197 H197        0.5827  -26.8086  -47.0018 H         1 UNK         0.0600 
    198 H198        1.3262  -25.3251  -46.4101 H         1 UNK         0.0600 
    199 H199        2.1342  -26.2917  -47.6395 H         1 UNK         0.0600 
    200 H200       -0.2567  -22.6148  -48.6986 H         1 UNK         0.3000 
    201 H201        2.1199  -21.7329  -50.1241 H         1 UNK         0.0600 
    202 H202        2.9229  -21.6546  -47.7518 H         1 UNK         0.0600 
    203 H203        1.4882  -20.7458  -47.2804 H         1 UNK         0.0600 
    204 H204        2.6861  -20.0209  -48.3471 H         1 UNK         0.0600 
    205 H205        1.9697  -19.4973  -50.7092 H         1 UNK         0.3000 
    206 H206        1.0310  -17.7645  -51.7180 H         1 UNK         0.0600 
    207 H207       -0.5671  -17.7055  -49.1028 H         1 UNK         0.0600 
    208 H208        1.0205  -17.0145  -49.3927 H         1 UNK         0.0600 
    209 H209       -0.3762  -16.3412  -50.2072 H         1 UNK         0.0600 
    210 H210       -2.1229  -17.7474  -50.4545 H         1 UNK         0.3000 
    211 H211       -3.4323  -17.8109  -52.9178 H         1 UNK         0.0600 
    212 H212       -4.3694  -16.7794  -50.8675 H         1 UNK         0.0600 
    213 H213       -4.5501  -18.3634  -50.1178 H         1 UNK         0.0600 
    214 H214       -5.5049  -17.9422  -51.5334 H         1 UNK         0.0600 
    215 H215       -2.4988  -20.5468  -50.9015 H         1 UNK         0.3000 
    216 H216       -4.2998  -22.5057  -51.9636 H         1 UNK         0.0600 
    217 H217       -2.9029  -22.6761  -49.8142 H         1 UNK         0.0600 
    218 H218       -1.4923  -22.9544  -50.8248 H         1 UNK         0.0600 
    219 H219       -2.8289  -24.0941  -50.8578 H         1 UNK         0.0600 
    220 H220       -1.2782  -21.1206  -53.1430 H         1 UNK         0.3000 
    221 H221       -1.0630  -23.1203  -55.3496 H         1 UNK         0.0600 
    222 H222        0.8840  -20.9672  -54.3619 H         1 UNK         0.0600 
    223 H223        1.0036  -22.6962  -54.0436 H         1 UNK         0.0600 
    224 H224        1.1763  -22.0915  -55.6843 H         1 UNK         0.0600 
    225 H225       -1.3142  -19.6047  -54.6515 H         1 UNK         0.3000 
    226 H226       -1.2215  -18.7986  -57.3771 H         1 UNK         0.0600 
    227 H227       -0.4853  -17.3762  -55.4833 H         1 UNK         0.0600 
    228 H228       -1.7167  -16.5524  -56.4277 H         1 UNK         0.0600 
    229 H229       -2.1384  -17.2777  -54.8817 H         1 UNK         0.0600 
    230 H230       -3.9987  -19.5228  -55.2508 H         1 UNK         0.3000 
    231 H231       -5.8931  -18.8771  -57.4759 H         1 UNK         0.0600 
    232 H232       -7.3137  -17.7265  -55.7939 H         1 UNK         0.0600 
    233 H233       -5.7388  -16.9567  -55.8652 H         1 UNK         0.0600 
    234 H234       -6.1281  -18.0429  -54.5323 H         1 UNK         0.0600 
    235 H235       -4.7496  -21.3703  -55.7666 H         1 UNK         0.3000 
    236 H236       -5.4285  -23.3360  -54.9771 H         1 UNK         0.0600 
    237 H237       -7.9242  -22.9772  -56.7135 H         1 UNK         0.0600 
    238 H238       -6.3684  -23.5780  -57.2855 H         1 UNK         0.0600 
    239 H239       -7.2824  -24.4946  -56.1002 H         1 UNK         0.0600 
    240 H240       -6.0373  -21.0091  -53.4243 H         1 UNK         0.3000 
    241 H241       -7.0000  -20.2734  -51.6570 H         1 UNK         0.0600 
    242 H242       -8.6154  -20.2788  -54.4034 H         1 UNK         0.3800 
    243 H243      -10.1299  -19.6219  -53.8408 H         1 UNK         0.3800 
    244 H244       -7.0213  -22.9594  -51.0410 H         1 UNK         0.0800 
    245 H245       -8.7166  -22.6364  -50.9064 H         1 UNK         0.0800 
    246 H246       -5.1542  -21.8367  -49.7855 H         1 UNK         0.0800 
    247 H247       -5.8062  -23.1072  -48.7706 H         1 UNK         0.0800 
@<TRIPOS>BOND
     1    1    2 1    
     2    1  127 1    
     3    1  128 1    
     4    1  129 1    
     5    2    3 2    
     6    2    4 am   BACKBONE|DICT|INTERRES
     7    4    5 1    
     8    4  130 1    
     9    5    6 1    
    10    5   65 1    
    11    5  131 1    
    12    6    7 1    
    13    6  132 1    
    14    6  133 1    
    15    7    8 1    
    16    8    9 1    
    17    8  134 1    
    18    8  135 1    
    19    9   10 ar   
    20    9   14 ar   
    21   10   11 ar   
    22   10  136 1    
    23   11   12 ar   
    24   11  126 1    
    25   12   13 ar   
    26   12  137 1    
    27   13   14 ar   
    28   13   15 1    
    29   14  138 1    
    30   15   16 1    
    31   15  139 1    
    32   15  140 1    
    33   16   17 1    
    34   17   18 1    
    35   17  141 1    
    36   17  142 1    
    37   18   19 1    
    38   18   67 1    
    39   18  143 1    
    40   19   20 am   BACKBONE|DICT|INTERRES
    41   19  144 1    
    42   20   21 2    
    43   20   22 1    
    44   22   23 1    
    45   22   24 1    
    46   22  145 1    
    47   23  146 1    
    48   23  147 1    
    49   23  148 1    
    50   24   25 am   BACKBONE|DICT|INTERRES
    51   24  149 1    
    52   25   26 2    
    53   25   27 1    
    54   27   28 1    
    55   27   29 1    
    56   27  150 1    
    57   28  151 1    
    58   28  152 1    
    59   28  153 1    
    60   29   30 am   BACKBONE|DICT|INTERRES
    61   29  154 1    
    62   30   31 2    
    63   30   32 1    
    64   32   33 1    
    65   32   34 1    
    66   32  155 1    
    67   33  156 1    
    68   33  157 1    
    69   33  158 1    
    70   34   35 am   BACKBONE|DICT|INTERRES
    71   34  159 1    
    72   35   36 2    
    73   35   37 1    
    74   37   38 1    
    75   37   39 1    
    76   37  160 1    
    77   38  161 1    
    78   38  162 1    
    79   38  163 1    
    80   39   40 am   BACKBONE|DICT|INTERRES
    81   39  164 1    
    82   40   41 2    
    83   40   42 1    
    84   42   43 1    
    85   42   44 1    
    86   42  165 1    
    87   43  166 1    
    88   43  167 1    
    89   43  168 1    
    90   44   45 am   BACKBONE|DICT|INTERRES
    91   44  169 1    
    92   45   46 2    
    93   45   47 1    
    94   47   48 1    
    95   47   49 1    
    96   47  170 1    
    97   48  171 1    
    98   48  172 1    
    99   48  173 1    
   100   49   50 am   BACKBONE|DICT|INTERRES
   101   49  174 1    
   102   50   51 2    
   103   50   52 1    
   104   52   53 1    
   105   52   54 1    
   106   52  175 1    
   107   53  176 1    
   108   53  177 1    
   109   53  178 1    
   110   54   55 am   BACKBONE|DICT|INTERRES
   111   54  179 1    
   112   55   56 2    
   113   55   57 1    
   114   57   58 1    
   115   57   59 1    
   116   57  180 1    
   117   58  181 1    
   118   58  182 1    
   119   58  183 1    
   120   59   60 am   BACKBONE|DICT|INTERRES
   121   59  184 1    
   122   60   61 2    
   123   60   62 1    
   124   62   63 1    
   125   62   64 1    
   126   62  185 1    
   127   63  186 1    
   128   63  187 1    
   129   63  188 1    
   130   64   65 am   BACKBONE|DICT|INTERRES
   131   64  189 1    
   132   65   66 2    
   133   67   68 2    
   134   67   69 am   BACKBONE|DICT|INTERRES
   135   69   70 1    
   136   69  190 1    
   137   70   71 1    
   138   70   72 1    
   139   70  191 1    
   140   71  192 1    
   141   71  193 1    
   142   71  194 1    
   143   72   73 2    
   144   72   74 am   BACKBONE|DICT|INTERRES
   145   74   75 1    
   146   74  195 1    
   147   75   76 1    
   148   75   77 1    
   149   75  196 1    
   150   76  197 1    
   151   76  198 1    
   152   76  199 1    
   153   77   78 2    
   154   77   79 am   BACKBONE|DICT|INTERRES
   155   79   80 1    
   156   79  200 1    
   157   80   81 1    
   158   80   82 1    
   159   80  201 1    
   160   81  202 1    
   161   81  203 1    
   162   81  204 1    
   163   82   83 2    
   164   82   84 am   BACKBONE|DICT|INTERRES
   165   84   85 1    
   166   84  205 1    
   167   85   86 1    
   168   85   87 1    
   169   85  206 1    
   170   86  207 1    
   171   86  208 1    
   172   86  209 1    
   173   87   88 2    
   174   87   89 am   BACKBONE|DICT|INTERRES
   175   89   90 1    
   176   89  210 1    
   177   90   91 1    
   178   90   92 1    
   179   90  211 1    
   180   91  212 1    
   181   91  213 1    
   182   91  214 1    
   183   92   93 2    
   184   92   94 am   BACKBONE|DICT|INTERRES
   185   94   95 1    
   186   94  215 1    
   187   95   96 1    
   188   95   97 1    
   189   95  216 1    
   190   96  217 1    
   191   96  218 1    
   192   96  219 1    
   193   97   98 2    
   194   97   99 am   BACKBONE|DICT|INTERRES
   195   99  100 1    
   196   99  220 1    
   197  100  101 1    
   198  100  102 1    
   199  100  221 1    
   200  101  222 1    
   201  101  223 1    
   202  101  224 1    
   203  102  103 2    
   204  102  104 am   BACKBONE|DICT|INTERRES
   205  104  105 1    
   206  104  225 1    
   207  105  106 1    
   208  105  107 1    
   209  105  226 1    
   210  106  227 1    
   211  106  228 1    
   212  106  229 1    
   213  107  108 2    
   214  107  109 am   BACKBONE|DICT|INTERRES
   215  109  110 1    
   216  109  230 1    
   217  110  111 1    
   218  110  112 1    
   219  110  231 1    
   220  111  232 1    
   221  111  233 1    
   222  111  234 1    
   223  112  113 2    
   224  112  114 am   BACKBONE|DICT|INTERRES
   225  114  115 1    
   226  114  235 1    
   227  115  116 1    
   228  115  117 1    
   229  115  236 1    
   230  116  237 1    
   231  116  238 1    
   232  116  239 1    
   233  117  118 2    
   234  117  119 am   BACKBONE|DICT|INTERRES
   235  119  120 1    
   236  119  240 1    
   237  120  121 1    
   238  120  124 1    
   239  120  241 1    
   240  121  122 am   BACKBONE|DICT|INTERRES
   241  121  123 2    
   242  122  242 1    
   243  122  243 1    
   244  124  125 1    
   245  124  244 1    
   246  124  245 1    
   247  125  126 1    
   248  126  246 1    
   249  126  247 1    
@<TRIPOS>SUBSTRUCTURE
     1 UNK         1 GROUP             0       ****    0 ROOT    
