@<TRIPOS>MOLECULE
3R540
247   249    1
SMALL
USER_CHARGES


@<TRIPOS>ATOM
      1 CA          2.2198  -16.0402  -47.9841 C.3       0 UNK        -0.1800 
      2 C           1.7764  -14.6722  -47.4872 C.2       0 UNK         0.5000 
      3 O           2.2782  -14.1936  -46.4722 O.2       0 UNK        -0.5000 
      4 N           0.8641  -14.0221  -48.2216 N.am      1 UNK        -0.5000 
      5 CA          0.2661  -12.7156  -47.8960 C.3       1 UNK         0.1400 
      6 C6         -0.9487  -12.3945  -48.8003 C.3       23 UNK        -0.0398 
      7 S7         -2.2664  -13.6493  -48.6680 S.3       23 UNK        -0.2404 
      8 C8         -2.1013  -14.5630  -50.2364 C.3       23 UNK        -0.0205 
      9 C9         -2.0111  -16.0627  -50.0001 C.ar      23 UNK        -0.0193 
     10 C10        -3.1007  -16.7511  -49.4633 C.ar      23 UNK        -0.1150 
     11 C11        -3.0368  -18.1302  -49.2547 C.ar      23 UNK        -0.0193 
     12 C12        -1.8770  -18.8251  -49.6107 C.ar      23 UNK        -0.1150 
     13 C13        -0.7643  -18.1497  -50.1307 C.ar      23 UNK        -0.0193 
     14 C14        -0.8463  -16.7662  -50.3212 C.ar      23 UNK        -0.1150 
     15 C15         0.5453  -18.8509  -50.5079 C.3       23 UNK        -0.0205 
     16 S16         0.7166  -20.6068  -50.0278 S.3       23 UNK        -0.2404 
     17 C17         0.7673  -20.5032  -48.2045 C.3       23 UNK        -0.0398 
     18 CA          0.5590  -21.8586  -47.4809 C.3       11 UNK         0.1400 
     19 N           0.6612  -21.7054  -46.0277 N.am      11 UNK        -0.5000 
     20 C           0.6575  -22.7077  -45.1370 C.2       10 UNK         0.5000 
     21 O           0.6348  -23.8986  -45.4426 O.2       10 UNK        -0.5000 
     22 CA          0.6111  -22.3123  -43.6511 C.3       10 UNK         0.1400 
     23 CB          2.0041  -21.9084  -43.1469 C.3       10 UNK        -0.1800 
     24 N          -0.3486  -21.2369  -43.3949 N.am      10 UNK        -0.5000 
     25 C          -1.6717  -21.3485  -43.5844 C.2       9 UNK         0.5000 
     26 O          -2.2232  -22.3958  -43.9249 O.2       9 UNK        -0.5000 
     27 CA         -2.5152  -20.0710  -43.4071 C.3       9 UNK         0.1400 
     28 CB         -2.8145  -19.8150  -41.9230 C.3       9 UNK        -0.1800 
     29 N          -1.8861  -18.8855  -43.9934 N.am      9 UNK        -0.5000 
     30 C          -1.6354  -18.7262  -45.3010 C.2       8 UNK         0.5000 
     31 O          -1.9493  -19.5501  -46.1573 O.2       8 UNK        -0.5000 
     32 CA         -0.8389  -17.4750  -45.7144 C.3       8 UNK         0.1400 
     33 CB         -1.7389  -16.2347  -45.8059 C.3       8 UNK        -0.1800 
     34 N           0.2786  -17.2186  -44.8044 N.am      8 UNK        -0.5000 
     35 C           1.3374  -18.0305  -44.6701 C.2       7 UNK         0.5000 
     36 O           1.5177  -19.0348  -45.3576 O.2       7 UNK        -0.5000 
     37 CA          2.3333  -17.6964  -43.5483 C.3       7 UNK         0.1400 
     38 CB          3.3750  -16.6765  -44.0282 C.3       7 UNK        -0.1800 
     39 N           1.6525  -17.1961  -42.3532 N.am      7 UNK        -0.5000 
     40 C           0.9455  -17.9740  -41.5189 C.2       6 UNK         0.5000 
     41 O           0.8305  -19.1902  -41.6627 O.2       6 UNK        -0.5000 
     42 CA          0.2113  -17.2855  -40.3510 C.3       6 UNK         0.1400 
     43 CB          1.1288  -17.1879  -39.1234 C.3       6 UNK        -0.1800 
     44 N          -0.2842  -15.9514  -40.6861 N.am      6 UNK        -0.5000 
     45 C          -1.1904  -15.6845  -41.6368 C.2       5 UNK         0.5000 
     46 O          -1.7764  -16.5548  -42.2796 O.2       5 UNK        -0.5000 
     47 CA         -1.4410  -14.1980  -41.9657 C.3       5 UNK         0.1400 
     48 CB         -2.6899  -13.6901  -41.2307 C.3       5 UNK        -0.1800 
     49 N          -0.3082  -13.3130  -41.6616 N.am      5 UNK        -0.5000 
     50 C           0.9218  -13.4328  -42.1804 C.2       4 UNK         0.5000 
     51 O           1.2465  -14.3388  -42.9505 O.2       4 UNK        -0.5000 
     52 CA          1.9758  -12.4226  -41.6883 C.3       4 UNK         0.1400 
     53 CB          2.5124  -12.8484  -40.3120 C.3       4 UNK        -0.1800 
     54 N           3.1053  -12.3102  -42.6117 N.am      4 UNK        -0.5000 
     55 C           3.0427  -11.7648  -43.8326 C.2       3 UNK         0.5000 
     56 O           2.0348  -11.2008  -44.2668 O.2       3 UNK        -0.5000 
     57 CA          4.3224  -11.8332  -44.6923 C.3       3 UNK         0.1400 
     58 CB          5.1405  -13.1188  -44.4609 C.3       3 UNK        -0.1800 
     59 N           3.9596  -11.7676  -46.1040 N.am      3 UNK        -0.5000 
     60 C           4.2050  -10.7448  -46.9331 C.2       2 UNK         0.5000 
     61 O           4.8672   -9.7537  -46.6217 O.2       2 UNK        -0.5000 
     62 CA          3.6128  -10.8370  -48.3565 C.3       2 UNK         0.1400 
     63 CB          4.6893  -11.2804  -49.3594 C.3       2 UNK        -0.1800 
     64 N           2.4786  -11.7587  -48.4445 N.am      2 UNK        -0.5000 
     65 C           1.2687  -11.5371  -47.9111 C.2       1 UNK         0.5000 
     66 O           0.9314  -10.4533  -47.4331 O.2       1 UNK        -0.5000 
     67 C          -0.7517  -22.5737  -47.8822 C.2       11 UNK         0.5000 
     68 O          -0.6966  -23.5307  -48.6560 O.2       11 UNK        -0.5000 
     69 N          -1.8870  -22.1461  -47.3037 N.am      12 UNK        -0.5000 
     70 CA         -3.2070  -22.7574  -47.4854 C.3       12 UNK         0.1400 
     71 CB         -4.2653  -22.0234  -46.6398 C.3       12 UNK        -0.1800 
     72 C          -3.2145  -24.2531  -47.1328 C.2       12 UNK         0.5000 
     73 O          -3.6695  -25.0622  -47.9411 O.2       12 UNK        -0.5000 
     74 N          -2.6837  -24.5812  -45.9471 N.am      13 UNK        -0.5000 
     75 CA         -2.5786  -25.9413  -45.4254 C.3       13 UNK         0.1400 
     76 CB         -2.1449  -25.8857  -43.9526 C.3       13 UNK        -0.1800 
     77 C          -1.6254  -26.8312  -46.2425 C.2       13 UNK         0.5000 
     78 O          -1.9620  -27.9842  -46.5133 O.2       13 UNK        -0.5000 
     79 N          -0.4616  -26.2850  -46.6210 N.am      14 UNK        -0.5000 
     80 CA          0.5722  -26.9838  -47.3839 C.3       14 UNK         0.1400 
     81 CB          1.8689  -26.1595  -47.3732 C.3       14 UNK        -0.1800 
     82 C           0.1448  -27.2988  -48.8268 C.2       14 UNK         0.5000 
     83 O           0.3641  -28.4180  -49.2925 O.2       14 UNK        -0.5000 
     84 N          -0.4511  -26.3119  -49.5083 N.am      15 UNK        -0.5000 
     85 CA         -0.8930  -26.4381  -50.8971 C.3       15 UNK         0.1400 
     86 CB         -0.9771  -25.0369  -51.5202 C.3       15 UNK        -0.1800 
     87 C          -2.2429  -27.1645  -51.0407 C.2       15 UNK         0.5000 
     88 O          -2.5065  -27.7229  -52.1059 O.2       15 UNK        -0.5000 
     89 N          -3.0692  -27.1230  -49.9826 N.am      16 UNK        -0.5000 
     90 CA         -4.4975  -27.4636  -49.9601 C.3       16 UNK         0.1400 
     91 CB         -4.7410  -28.9524  -50.2864 C.3       16 UNK        -0.1800 
     92 C          -5.3004  -26.4872  -50.8474 C.2       16 UNK         0.5000 
     93 O          -6.1193  -26.9112  -51.6657 O.2       16 UNK        -0.5000 
     94 N          -5.0064  -25.1891  -50.6688 N.am      17 UNK        -0.5000 
     95 CA         -5.4281  -24.0456  -51.4873 C.3       17 UNK         0.1400 
     96 CB         -6.9569  -23.8428  -51.4061 C.3       17 UNK        -0.1800 
     97 C          -4.8944  -24.1177  -52.9386 C.2       17 UNK         0.5000 
     98 O          -3.9664  -24.8791  -53.2152 O.2       17 UNK        -0.5000 
     99 N          -5.4568  -23.2844  -53.8281 N.am      18 UNK        -0.5000 
    100 CA        -5.0766  -23.1033  -55.2387 C.3       18 UNK         0.1400 
    101 CB        -5.4477  -24.3525  -56.0649 C.3       18 UNK        -0.1800 
    102 C         -3.5998  -22.6786  -55.4068 C.2       18 UNK         0.5000 
    103 O         -2.8837  -23.2206  -56.2517 O.2       18 UNK        -0.5000 
    104 N         -3.1741  -21.7320  -54.5634 N.am      19 UNK        -0.5000 
    105 CA        -1.7908  -21.2852  -54.4215 C.3       19 UNK         0.1400 
    106 CB        -1.3808  -21.4360  -52.9485 C.3       19 UNK        -0.1800 
    107 C         -1.5899  -19.8287  -54.8666 C.2       19 UNK         0.5000 
    108 O         -0.5099  -19.5018  -55.3609 O.2       19 UNK        -0.5000 
    109 N         -2.6044  -18.9761  -54.6746 N.am      20 UNK        -0.5000 
    110 CA        -2.5404  -17.5341  -54.9086 C.3       20 UNK         0.1400 
    111 CB        -1.6140  -16.8586  -53.8686 C.3       20 UNK        -0.1800 
    112 C         -3.9780  -16.9915  -54.9022 C.2       20 UNK         0.5000 
    113 O         -4.7847  -17.4260  -55.7257 O.2       20 UNK        -0.5000 
    114 N         -4.2899  -16.0843  -53.9636 N.am      21 UNK        -0.5000 
    115 CA        -5.6467  -15.6073  -53.6779 C.3       21 UNK         0.1400 
    116 CB        -5.5777  -14.4372  -52.6847 C.3       21 UNK        -0.1800 
    117 C         -6.5439  -16.7324  -53.1275 C.2       21 UNK         0.5000 
    118 O         -7.7313  -16.7846  -53.4507 O.2       21 UNK        -0.5000 
    119 N         -5.9375  -17.6327  -52.3437 N.am      22 UNK        -0.5000 
    120 CA        -6.4967  -18.9371  -51.9802 C.3       22 UNK         0.1400 
    121 C         -6.4351  -19.8850  -53.2031 C.2       22 UNK         0.5000 
    122 N         -7.5594  -20.4273  -53.6491 N.am      22 UNK        -0.7600 
    123 O         -5.3544  -20.1564  -53.7224 O.2       22 UNK        -0.5000 
    124 C124       -5.7422  -19.5711  -50.7880 C.3       23 UNK        -0.0398 
    125 S125       -5.8197  -18.5383  -49.2905 S.3       23 UNK        -0.2404 
    126 C126       -4.1808  -18.8670  -48.5722 C.3       23 UNK        -0.0205 
    127 H127        1.7216  -16.8286  -47.4227 H         1 UNK         0.0600 
    128 H128        3.2957  -16.1581  -47.8548 H         1 UNK         0.0600 
    129 H129        1.9912  -16.1734  -49.0410 H         1 UNK         0.0600 
    130 H130        0.4827  -14.4738  -49.0389 H         1 UNK         0.3000 
    131 H131       -0.0959  -12.7849  -46.8676 H         1 UNK         0.0600 
    132 H132       -0.6402  -12.2701  -49.8392 H         1 UNK         0.0800 
    133 H133       -1.3944  -11.4415  -48.5086 H         1 UNK         0.0800 
    134 H134       -2.9694  -14.3483  -50.8594 H         1 UNK         0.0800 
    135 H135       -1.2347  -14.2178  -50.8008 H         1 UNK         0.0800 
    136 H136       -3.9930  -16.2067  -49.1873 H         1 UNK         0.1150 
    137 H137       -1.8417  -19.8918  -49.4485 H         1 UNK         0.1150 
    138 H138       -0.0000  -16.2380  -50.7373 H         1 UNK         0.1150 
    139 H139        0.6584  -18.7900  -51.5912 H         1 UNK         0.0800 
    140 H140        1.3841  -18.3010  -50.0803 H         1 UNK         0.0800 
    141 H141        0.0278  -19.7802  -47.8651 H         1 UNK         0.0800 
    142 H142        1.7360  -20.0865  -47.9256 H         1 UNK         0.0800 
    143 H143        1.3785  -22.5147  -47.7815 H         1 UNK         0.0600 
    144 H144        0.7332  -20.7519  -45.6838 H         1 UNK         0.3000 
    145 H145        0.2882  -23.1885  -43.0848 H         1 UNK         0.0600 
    146 H146        1.9908  -21.7006  -42.0770 H         1 UNK         0.0600 
    147 H147        2.7258  -22.7090  -43.3134 H         1 UNK         0.0600 
    148 H148        2.3766  -21.0200  -43.6563 H         1 UNK         0.0600 
    149 H149        0.0288  -20.3630  -43.0425 H         1 UNK         0.3000 
    150 H150       -3.4651  -20.2292  -43.9220 H         1 UNK         0.0600 
    151 H151       -3.3258  -20.6682  -41.4757 H         1 UNK         0.0600 
    152 H152       -3.4584  -18.9447  -41.7949 H         1 UNK         0.0600 
    153 H153       -1.9023  -19.6428  -41.3521 H         1 UNK         0.0600 
    154 H154       -1.6481  -18.1308  -43.3557 H         1 UNK         0.3000 
    155 H155       -0.4306  -17.6591  -46.7100 H         1 UNK         0.0600 
    156 H156       -2.1981  -15.9906  -44.8485 H         1 UNK         0.0600 
    157 H157       -2.5442  -16.3938  -46.5239 H         1 UNK         0.0600 
    158 H158       -1.1755  -15.3636  -46.1411 H         1 UNK         0.0600 
    159 H159        0.2075  -16.4139  -44.1976 H         1 UNK         0.3000 
    160 H160        2.8630  -18.6140  -43.2840 H         1 UNK         0.0600 
    161 H161        2.9069  -15.7496  -44.3573 H         1 UNK         0.0600 
    162 H162        3.9431  -17.0688  -44.8725 H         1 UNK         0.0600 
    163 H163        4.0863  -16.4328  -43.2392 H         1 UNK         0.0600 
    164 H164        1.6372  -16.1890  -42.2338 H         1 UNK         0.3000 
    165 H165       -0.6483  -17.9050  -40.0879 H         1 UNK         0.0600 
    166 H166        0.5969  -16.7782  -38.2645 H         1 UNK         0.0600 
    167 H167        1.5002  -18.1722  -38.8347 H         1 UNK         0.0600 
    168 H168        1.9949  -16.5536  -39.3170 H         1 UNK         0.0600 
    169 H169        0.1443  -15.1743  -40.2063 H         1 UNK         0.3000 
    170 H170       -1.6268  -14.1340  -43.0398 H         1 UNK         0.0600 
    171 H171       -3.5566  -14.3130  -41.4566 H         1 UNK         0.0600 
    172 H172       -2.5517  -13.6997  -40.1488 H         1 UNK         0.0600 
    173 H173       -2.9378  -12.6715  -41.5299 H         1 UNK         0.0600 
    174 H174       -0.4943  -12.5567  -41.0185 H         1 UNK         0.3000 
    175 H175        1.5035  -11.4422  -41.5975 H         1 UNK         0.0600 
    176 H176        2.9879  -13.8295  -40.3510 H         1 UNK         0.0600 
    177 H177        3.2465  -12.1349  -39.9371 H         1 UNK         0.0600 
    178 H178        1.7108  -12.9015  -39.5743 H         1 UNK         0.0600 
    179 H179        3.9557  -12.7780  -42.3363 H         1 UNK         0.3000 
    180 H180        4.9411  -10.9781  -44.4138 H         1 UNK         0.0600 
    181 H181        4.5394  -14.0114  -44.6343 H         1 UNK         0.0600 
    182 H182        5.5348  -13.1704  -43.4458 H         1 UNK         0.0600 
    183 H183        5.9966  -13.1625  -45.1345 H         1 UNK         0.0600 
    184 H184        3.3489  -12.5165  -46.4171 H         1 UNK         0.3000 
    185 H185        3.2707   -9.8390  -48.6384 H         1 UNK         0.0600 
    186 H186        5.5409  -10.5989  -49.3448 H         1 UNK         0.0600 
    187 H187        5.0642  -12.2791  -49.1318 H         1 UNK         0.0600 
    188 H188        4.3003  -11.2904  -50.3778 H         1 UNK         0.0600 
    189 H189        2.6675  -12.6748  -48.8235 H         1 UNK         0.3000 
    190 H190       -1.8491  -21.3219  -46.7082 H         1 UNK         0.3000 
    191 H191       -3.4676  -22.6479  -48.5399 H         1 UNK         0.0600 
    192 H192       -4.1481  -20.9437  -46.6674 H         1 UNK         0.0600 
    193 H193       -5.2688  -22.2540  -46.9987 H         1 UNK         0.0600 
    194 H194       -4.2285  -22.3123  -45.5898 H         1 UNK         0.0600 
    195 H195       -2.3495  -23.8350  -45.3444 H         1 UNK         0.3000 
    196 H196       -3.5723  -26.3919  -45.4699 H         1 UNK         0.0600 
    197 H197       -2.0751  -26.8873  -43.5266 H         1 UNK         0.0600 
    198 H198       -2.8616  -25.3249  -43.3523 H         1 UNK         0.0600 
    199 H199       -1.1704  -25.4095  -43.8377 H         1 UNK         0.0600 
    200 H200       -0.2398  -25.3391  -46.3198 H         1 UNK         0.3000 
    201 H201        0.7739  -27.9332  -46.8833 H         1 UNK         0.0600 
    202 H202        2.2372  -26.0191  -46.3569 H         1 UNK         0.0600 
    203 H203        1.7218  -25.1729  -47.8146 H         1 UNK         0.0600 
    204 H204        2.6566  -26.6597  -47.9380 H         1 UNK         0.0600 
    205 H205       -0.5751  -25.4017  -49.0703 H         1 UNK         0.3000 
    206 H206       -0.1465  -27.0080  -51.4547 H         1 UNK         0.0600 
    207 H207       -0.0284  -24.5061  -51.4376 H         1 UNK         0.0600 
    208 H208       -1.2271  -25.0960  -52.5802 H         1 UNK         0.0600 
    209 H209       -1.7443  -24.4300  -51.0376 H         1 UNK         0.0600 
    210 H210       -2.7461  -26.6250  -49.1622 H         1 UNK         0.3000 
    211 H211       -4.8358  -27.2995  -48.9361 H         1 UNK         0.0600 
    212 H212       -4.5138  -29.1894  -51.3257 H         1 UNK         0.0600 
    213 H213       -5.7847  -29.2182  -50.1158 H         1 UNK         0.0600 
    214 H214       -4.1331  -29.5984  -49.6530 H         1 UNK         0.0600 
    215 H215       -4.3339  -24.9801  -49.9402 H         1 UNK         0.3000 
    216 H216       -4.9550  -23.1720  -51.0365 H         1 UNK         0.0600 
    217 H217       -7.2540  -22.8745  -51.8091 H         1 UNK         0.0600 
    218 H218       -7.3023  -23.8742  -50.3727 H         1 UNK         0.0600 
    219 H219       -7.4976  -24.6100  -51.9613 H         1 UNK         0.0600 
    220 H220       -6.1833  -22.6658  -53.4985 H         1 UNK         0.3000 
    221 H221       -5.6735  -22.2726  -55.6171 H         1 UNK         0.0600 
    222 H222       -4.8581  -25.2219  -55.7725 H         1 UNK         0.0600 
    223 H223       -6.5007  -24.6061  -55.9435 H         1 UNK         0.0600 
    224 H224       -5.2757  -24.1831  -57.1284 H         1 UNK         0.0600 
    225 H225       -3.8707  -21.2817  -53.9768 H         1 UNK         0.3000 
    226 H226       -1.1251  -21.9087  -55.0219 H         1 UNK         0.0600 
    227 H227       -1.4997  -22.4643  -52.6103 H         1 UNK         0.0600 
    228 H228       -0.3333  -21.1672  -52.8095 H         1 UNK         0.0600 
    229 H229       -1.9746  -20.7980  -52.2921 H         1 UNK         0.0600 
    230 H230       -3.4997  -19.3263  -54.3500 H         1 UNK         0.3000 
    231 H231       -2.1376  -17.3558  -55.9075 H         1 UNK         0.0600 
    232 H232       -1.9461  -17.0624  -52.8511 H         1 UNK         0.0600 
    233 H233       -1.5781  -15.7772  -54.0064 H         1 UNK         0.0600 
    234 H234       -0.5879  -17.2155  -53.9532 H         1 UNK         0.0600 
    235 H235       -3.5598  -15.7676  -53.3432 H         1 UNK         0.3000 
    236 H236       -6.0862  -15.2469  -54.6103 H         1 UNK         0.0600 
    237 H237       -4.9490  -13.6311  -53.0634 H         1 UNK         0.0600 
    238 H238       -6.5699  -14.0199  -52.5087 H         1 UNK         0.0600 
    239 H239       -5.1808  -14.7512  -51.7187 H         1 UNK         0.0600 
    240 H240       -4.9605  -17.5013  -52.1331 H         1 UNK         0.3000 
    241 H241       -7.5399  -18.7980  -51.6894 H         1 UNK         0.0600 
    242 H242       -8.4498  -20.1922  -53.2376 H         1 UNK         0.3800 
    243 H243       -7.5426  -20.9980  -54.4780 H         1 UNK         0.3800 
    244 H244       -6.1675  -20.5454  -50.5408 H         1 UNK         0.0800 
    245 H245       -4.6975  -19.7495  -51.0507 H         1 UNK         0.0800 
    246 H246       -4.0033  -19.9408  -48.6098 H         1 UNK         0.0800 
    247 H247       -4.1940  -18.5842  -47.5191 H         1 UNK         0.0800 
@<TRIPOS>BOND
     1    1    2 1    
     2    1  127 1    
     3    1  128 1    
     4    1  129 1    
     5    2    3 2    
     6    2    4 am   BACKBONE|DICT|INTERRES
     7    4    5 1    
     8    4  130 1    
     9    5    6 1    
    10    5   65 1    
    11    5  131 1    
    12    6    7 1    
    13    6  132 1    
    14    6  133 1    
    15    7    8 1    
    16    8    9 1    
    17    8  134 1    
    18    8  135 1    
    19    9   10 ar   
    20    9   14 ar   
    21   10   11 ar   
    22   10  136 1    
    23   11   12 ar   
    24   11  126 1    
    25   12   13 ar   
    26   12  137 1    
    27   13   14 ar   
    28   13   15 1    
    29   14  138 1    
    30   15   16 1    
    31   15  139 1    
    32   15  140 1    
    33   16   17 1    
    34   17   18 1    
    35   17  141 1    
    36   17  142 1    
    37   18   19 1    
    38   18   67 1    
    39   18  143 1    
    40   19   20 am   BACKBONE|DICT|INTERRES
    41   19  144 1    
    42   20   21 2    
    43   20   22 1    
    44   22   23 1    
    45   22   24 1    
    46   22  145 1    
    47   23  146 1    
    48   23  147 1    
    49   23  148 1    
    50   24   25 am   BACKBONE|DICT|INTERRES
    51   24  149 1    
    52   25   26 2    
    53   25   27 1    
    54   27   28 1    
    55   27   29 1    
    56   27  150 1    
    57   28  151 1    
    58   28  152 1    
    59   28  153 1    
    60   29   30 am   BACKBONE|DICT|INTERRES
    61   29  154 1    
    62   30   31 2    
    63   30   32 1    
    64   32   33 1    
    65   32   34 1    
    66   32  155 1    
    67   33  156 1    
    68   33  157 1    
    69   33  158 1    
    70   34   35 am   BACKBONE|DICT|INTERRES
    71   34  159 1    
    72   35   36 2    
    73   35   37 1    
    74   37   38 1    
    75   37   39 1    
    76   37  160 1    
    77   38  161 1    
    78   38  162 1    
    79   38  163 1    
    80   39   40 am   BACKBONE|DICT|INTERRES
    81   39  164 1    
    82   40   41 2    
    83   40   42 1    
    84   42   43 1    
    85   42   44 1    
    86   42  165 1    
    87   43  166 1    
    88   43  167 1    
    89   43  168 1    
    90   44   45 am   BACKBONE|DICT|INTERRES
    91   44  169 1    
    92   45   46 2    
    93   45   47 1    
    94   47   48 1    
    95   47   49 1    
    96   47  170 1    
    97   48  171 1    
    98   48  172 1    
    99   48  173 1    
   100   49   50 am   BACKBONE|DICT|INTERRES
   101   49  174 1    
   102   50   51 2    
   103   50   52 1    
   104   52   53 1    
   105   52   54 1    
   106   52  175 1    
   107   53  176 1    
   108   53  177 1    
   109   53  178 1    
   110   54   55 am   BACKBONE|DICT|INTERRES
   111   54  179 1    
   112   55   56 2    
   113   55   57 1    
   114   57   58 1    
   115   57   59 1    
   116   57  180 1    
   117   58  181 1    
   118   58  182 1    
   119   58  183 1    
   120   59   60 am   BACKBONE|DICT|INTERRES
   121   59  184 1    
   122   60   61 2    
   123   60   62 1    
   124   62   63 1    
   125   62   64 1    
   126   62  185 1    
   127   63  186 1    
   128   63  187 1    
   129   63  188 1    
   130   64   65 am   BACKBONE|DICT|INTERRES
   131   64  189 1    
   132   65   66 2    
   133   67   68 2    
   134   67   69 am   BACKBONE|DICT|INTERRES
   135   69   70 1    
   136   69  190 1    
   137   70   71 1    
   138   70   72 1    
   139   70  191 1    
   140   71  192 1    
   141   71  193 1    
   142   71  194 1    
   143   72   73 2    
   144   72   74 am   BACKBONE|DICT|INTERRES
   145   74   75 1    
   146   74  195 1    
   147   75   76 1    
   148   75   77 1    
   149   75  196 1    
   150   76  197 1    
   151   76  198 1    
   152   76  199 1    
   153   77   78 2    
   154   77   79 am   BACKBONE|DICT|INTERRES
   155   79   80 1    
   156   79  200 1    
   157   80   81 1    
   158   80   82 1    
   159   80  201 1    
   160   81  202 1    
   161   81  203 1    
   162   81  204 1    
   163   82   83 2    
   164   82   84 am   BACKBONE|DICT|INTERRES
   165   84   85 1    
   166   84  205 1    
   167   85   86 1    
   168   85   87 1    
   169   85  206 1    
   170   86  207 1    
   171   86  208 1    
   172   86  209 1    
   173   87   88 2    
   174   87   89 am   BACKBONE|DICT|INTERRES
   175   89   90 1    
   176   89  210 1    
   177   90   91 1    
   178   90   92 1    
   179   90  211 1    
   180   91  212 1    
   181   91  213 1    
   182   91  214 1    
   183   92   93 2    
   184   92   94 am   BACKBONE|DICT|INTERRES
   185   94   95 1    
   186   94  215 1    
   187   95   96 1    
   188   95   97 1    
   189   95  216 1    
   190   96  217 1    
   191   96  218 1    
   192   96  219 1    
   193   97   98 2    
   194   97   99 am   BACKBONE|DICT|INTERRES
   195   99  100 1    
   196   99  220 1    
   197  100  101 1    
   198  100  102 1    
   199  100  221 1    
   200  101  222 1    
   201  101  223 1    
   202  101  224 1    
   203  102  103 2    
   204  102  104 am   BACKBONE|DICT|INTERRES
   205  104  105 1    
   206  104  225 1    
   207  105  106 1    
   208  105  107 1    
   209  105  226 1    
   210  106  227 1    
   211  106  228 1    
   212  106  229 1    
   213  107  108 2    
   214  107  109 am   BACKBONE|DICT|INTERRES
   215  109  110 1    
   216  109  230 1    
   217  110  111 1    
   218  110  112 1    
   219  110  231 1    
   220  111  232 1    
   221  111  233 1    
   222  111  234 1    
   223  112  113 2    
   224  112  114 am   BACKBONE|DICT|INTERRES
   225  114  115 1    
   226  114  235 1    
   227  115  116 1    
   228  115  117 1    
   229  115  236 1    
   230  116  237 1    
   231  116  238 1    
   232  116  239 1    
   233  117  118 2    
   234  117  119 am   BACKBONE|DICT|INTERRES
   235  119  120 1    
   236  119  240 1    
   237  120  121 1    
   238  120  124 1    
   239  120  241 1    
   240  121  122 am   BACKBONE|DICT|INTERRES
   241  121  123 2    
   242  122  242 1    
   243  122  243 1    
   244  124  125 1    
   245  124  244 1    
   246  124  245 1    
   247  125  126 1    
   248  126  246 1    
   249  126  247 1    
@<TRIPOS>SUBSTRUCTURE
     1 UNK         1 GROUP             0       ****    0 ROOT    
