@<TRIPOS>MOLECULE
3R540
247   249    1
SMALL
USER_CHARGES


@<TRIPOS>ATOM
      1 CA          3.1476   -9.2356  -47.1800 C.3       0 UNK        -0.1800 
      2 C           2.9188  -10.7122  -46.8962 C.2       0 UNK         0.5000 
      3 O           3.1738  -11.1691  -45.7810 O.2       0 UNK        -0.5000 
      4 N           2.4115  -11.4598  -47.8845 N.am      1 UNK        -0.5000 
      5 CA          2.1500  -12.9071  -47.8446 C.3       1 UNK         0.1400 
      6 C6          2.1338  -13.4976  -49.2814 C.3       23 UNK        -0.0398 
      7 S7          2.8080  -15.1905  -49.3852 S.3       23 UNK        -0.2404 
      8 C8          1.2826  -16.1768  -49.3559 C.3       23 UNK        -0.0205 
      9 C9          1.4918  -17.5625  -49.9431 C.ar      23 UNK        -0.0193 
     10 C10         1.0187  -17.8556  -51.2245 C.ar      23 UNK        -0.1150 
     11 C11         1.1874  -19.1310  -51.7681 C.ar      23 UNK        -0.0193 
     12 C12         1.8382  -20.1176  -51.0236 C.ar      23 UNK        -0.1150 
     13 C13         2.3164  -19.8368  -49.7408 C.ar      23 UNK        -0.0193 
     14 C14         2.1389  -18.5570  -49.2043 C.ar      23 UNK        -0.1150 
     15 C15         3.0410  -20.9147  -48.9487 C.3       23 UNK        -0.0205 
     16 S16         1.8998  -22.1672  -48.2828 S.3       23 UNK        -0.2404 
     17 C17         1.0405  -21.2148  -46.9859 C.3       23 UNK        -0.0398 
     18 CA         -0.4819  -21.4738  -46.9335 C.3       11 UNK         0.1400 
     19 N          -1.0731  -20.9362  -45.7084 N.am      11 UNK        -0.5000 
     20 C          -2.3011  -21.2246  -45.2565 C.2       10 UNK         0.5000 
     21 O          -3.0545  -22.0360  -45.7922 O.2       10 UNK        -0.5000 
     22 CA         -2.7822  -20.4497  -44.0154 C.3       10 UNK         0.1400 
     23 CB         -2.2825  -21.1214  -42.7281 C.3       10 UNK        -0.1800 
     24 N          -2.3662  -19.0465  -44.0268 N.am      10 UNK        -0.5000 
     25 C          -2.7521  -18.1429  -44.9388 C.2       9 UNK         0.5000 
     26 O          -3.5442  -18.3858  -45.8480 O.2       9 UNK        -0.5000 
     27 CA         -2.1013  -16.7502  -44.8509 C.3       9 UNK         0.1400 
     28 CB         -2.7825  -15.8918  -43.7737 C.3       9 UNK        -0.1800 
     29 N          -0.6628  -16.8276  -44.5904 N.am      9 UNK        -0.5000 
     30 C           0.2282  -17.3617  -45.4383 C.2       8 UNK         0.5000 
     31 O          -0.0673  -17.8330  -46.5356 O.2       8 UNK        -0.5000 
     32 CA          1.6822  -17.4483  -44.9450 C.3       8 UNK         0.1400 
     33 CB          2.4035  -16.1017  -45.1042 C.3       8 UNK        -0.1800 
     34 N           1.7545  -17.8966  -43.5534 N.am      8 UNK        -0.5000 
     35 C           1.4435  -19.1420  -43.1594 C.2       7 UNK         0.5000 
     36 O           1.1051  -20.0334  -43.9362 O.2       7 UNK        -0.5000 
     37 CA          1.4642  -19.4390  -41.6476 C.3       7 UNK         0.1400 
     38 CB          2.8715  -19.8620  -41.2018 C.3       7 UNK        -0.1800 
     39 N           1.0226  -18.3092  -40.8331 N.am      7 UNK        -0.5000 
     40 C          -0.1767  -17.7160  -40.9142 C.2       6 UNK         0.5000 
     41 O          -1.0910  -18.1251  -41.6285 O.2       6 UNK        -0.5000 
     42 CA         -0.3720  -16.4202  -40.1027 C.3       6 UNK         0.1400 
     43 CB         -1.1849  -16.7015  -38.8306 C.3       6 UNK        -0.1800 
     44 N           0.8829  -15.7541  -39.7345 N.am      6 UNK        -0.5000 
     45 C           1.7776  -15.2594  -40.6015 C.2       5 UNK         0.5000 
     46 O           1.6455  -15.3333  -41.8254 O.2       5 UNK        -0.5000 
     47 CA          3.0383  -14.6423  -39.9663 C.3       5 UNK         0.1400 
     48 CB          4.0441  -15.7355  -39.5524 C.3       5 UNK        -0.1800 
     49 N           3.6663  -13.6154  -40.8012 N.am      5 UNK        -0.5000 
     50 C           4.3358  -13.7409  -41.9550 C.2       4 UNK         0.5000 
     51 O           4.6236  -14.8176  -42.4808 O.2       4 UNK        -0.5000 
     52 CA          4.7453  -12.4118  -42.6300 C.3       4 UNK         0.1400 
     53 CB          5.5549  -12.6283  -43.9216 C.3       4 UNK        -0.1800 
     54 N           3.5859  -11.5748  -42.9460 N.am      4 UNK        -0.5000 
     55 C           2.8388  -10.8811  -42.0749 C.2       3 UNK         0.5000 
     56 O           3.0859  -10.8095  -40.8700 O.2       3 UNK        -0.5000 
     57 CA          1.5837  -10.1888  -42.6369 C.3       3 UNK         0.1400 
     58 CB          1.9350   -8.7996  -43.1905 C.3       3 UNK        -0.1800 
     59 N           0.9490  -10.9825  -43.6899 N.am      3 UNK        -0.5000 
     60 C           0.2581  -12.1156  -43.4866 C.2       2 UNK         0.5000 
     61 O          -0.0256  -12.5524  -42.3721 O.2       2 UNK        -0.5000 
     62 CA         -0.1682  -12.8955  -44.7413 C.3       2 UNK         0.1400 
     63 CB         -1.5445  -12.3965  -45.2260 C.3       2 UNK        -0.1800 
     64 N           0.8620  -12.7559  -45.7715 N.am      2 UNK        -0.5000 
     65 C           0.8852  -13.2504  -47.0120 C.2       1 UNK         0.5000 
     66 O          -0.0258  -13.9218  -47.4950 O.2       1 UNK        -0.5000 
     67 C          -1.2288  -20.9704  -48.1873 C.2       11 UNK         0.5000 
     68 O          -1.6020  -21.7887  -49.0279 O.2       11 UNK        -0.5000 
     69 N          -1.5147  -19.6615  -48.2614 N.am      12 UNK        -0.5000 
     70 CA         -2.3050  -19.0449  -49.3347 C.3       12 UNK         0.1400 
     71 CB         -2.3250  -17.5219  -49.1464 C.3       12 UNK        -0.1800 
     72 C          -3.7467  -19.5859  -49.4200 C.2       12 UNK         0.5000 
     73 O          -4.2927  -19.7207  -50.5161 O.2       12 UNK        -0.5000 
     74 N          -4.3227  -19.9203  -48.2590 N.am      13 UNK        -0.5000 
     75 CA         -5.6362  -20.5437  -48.1073 C.3       13 UNK         0.1400 
     76 CB         -6.1441  -20.2829  -46.6800 C.3       13 UNK        -0.1800 
     77 C          -5.6582  -22.0536  -48.4318 C.2       13 UNK         0.5000 
     78 O          -6.7334  -22.6502  -48.3709 O.2       13 UNK        -0.5000 
     79 N          -4.5055  -22.6515  -48.7627 N.am      14 UNK        -0.5000 
     80 CA         -4.3732  -24.0639  -49.1175 C.3       14 UNK         0.1400 
     81 CB         -3.4945  -24.7710  -48.0745 C.3       14 UNK        -0.1800 
     82 C          -3.7807  -24.2463  -50.5212 C.2       14 UNK         0.5000 
     83 O          -4.2373  -25.1186  -51.2598 O.2       14 UNK        -0.5000 
     84 N          -2.7606  -23.4522  -50.8725 N.am      15 UNK        -0.5000 
     85 CA         -1.9646  -23.5402  -52.1052 C.3       15 UNK         0.1400 
     86 CB         -2.8305  -23.2250  -53.3426 C.3       15 UNK        -0.1800 
     87 C          -1.1967  -24.8749  -52.2472 C.2       15 UNK         0.5000 
     88 O          -0.8622  -25.2762  -53.3620 O.2       15 UNK        -0.5000 
     89 N          -0.9579  -25.5472  -51.1093 N.am      16 UNK        -0.5000 
     90 CA         -0.3176  -26.8587  -50.9431 C.3       16 UNK         0.1400 
     91 CB          1.1595  -26.8020  -51.3852 C.3       16 UNK        -0.1800 
     92 C          -1.0797  -28.0396  -51.5910 C.2       16 UNK         0.5000 
     93 O          -0.5097  -29.1252  -51.7148 O.2       16 UNK        -0.5000 
     94 N          -2.3448  -27.8276  -51.9807 N.am      17 UNK        -0.5000 
     95 CA         -3.1728  -28.8086  -52.6916 C.3       17 UNK         0.1400 
     96 CB         -3.0373  -28.5610  -54.2058 C.3       17 UNK        -0.1800 
     97 C          -4.6504  -28.7820  -52.2552 C.2       17 UNK         0.5000 
     98 O          -5.4586  -29.5040  -52.8400 O.2       17 UNK        -0.5000 
     99 N          -4.9875  -27.9342  -51.2704 N.am      18 UNK        -0.5000 
    100 CA        -6.3422  -27.5818  -50.8186 C.3       18 UNK         0.1400 
    101 CB        -7.0657  -28.7993  -50.2062 C.3       18 UNK        -0.1800 
    102 C         -7.1771  -26.8639  -51.9059 C.2       18 UNK         0.5000 
    103 O         -8.4080  -26.9087  -51.8704 O.2       18 UNK        -0.5000 
    104 N         -6.4873  -26.2127  -52.8515 N.am      19 UNK        -0.5000 
    105 CA        -7.0719  -25.4650  -53.9627 C.3       19 UNK         0.1400 
    106 CB        -6.1378  -25.5671  -55.1790 C.3       19 UNK        -0.1800 
    107 C         -7.3218  -23.9934  -53.5915 C.2       19 UNK         0.5000 
    108 O         -8.3313  -23.4330  -54.0206 O.2       19 UNK        -0.5000 
    109 N         -6.4118  -23.4207  -52.7859 N.am      20 UNK        -0.5000 
    110 CA        -6.3826  -22.0407  -52.2822 C.3       20 UNK         0.1400 
    111 CB        -7.6458  -21.7562  -51.4422 C.3       20 UNK        -0.1800 
    112 C         -6.2000  -20.9568  -53.3687 C.2       20 UNK         0.5000 
    113 O         -6.2649  -21.2356  -54.5677 O.2       20 UNK        -0.5000 
    114 N         -5.9913  -19.7176  -52.9006 N.am      21 UNK        -0.5000 
    115 CA        -5.9865  -18.4626  -53.6619 C.3       21 UNK         0.1400 
    116 CB        -7.3892  -18.1737  -54.2373 C.3       21 UNK        -0.1800 
    117 C         -4.8690  -18.3760  -54.7217 C.2       21 UNK         0.5000 
    118 O         -5.0803  -17.8292  -55.8060 O.2       21 UNK        -0.5000 
    119 N         -3.6900  -18.9057  -54.3790 N.am      22 UNK        -0.5000 
    120 CA        -2.4763  -18.8704  -55.2118 C.3       22 UNK         0.1400 
    121 C         -1.7500  -17.4925  -55.2697 C.2       22 UNK         0.5000 
    122 N         -2.1077  -16.5119  -54.4490 N.am      22 UNK        -0.7600 
    123 O         -0.8501  -17.3075  -56.0844 O.2       22 UNK        -0.5000 
    124 C124       -1.5064  -20.0207  -54.8432 C.3       23 UNK        -0.0398 
    125 S125       -1.0482  -20.0425  -53.0752 S.3       23 UNK        -0.2404 
    126 C126        0.6614  -19.4382  -53.1578 C.3       23 UNK        -0.0205 
    127 H127        2.4861   -8.6279  -46.5628 H         1 UNK         0.0600 
    128 H128        2.9604   -8.9903  -48.2256 H         1 UNK         0.0600 
    129 H129        4.1774   -8.9655  -46.9465 H         1 UNK         0.0600 
    130 H130        2.1805  -11.0071  -48.7576 H         1 UNK         0.3000 
    131 H131        2.9918  -13.3576  -47.3136 H         1 UNK         0.0600 
    132 H132        2.7776  -12.9009  -49.9292 H         1 UNK         0.0800 
    133 H133        1.1464  -13.4369  -49.7419 H         1 UNK         0.0800 
    134 H134        0.4948  -15.6572  -49.9028 H         1 UNK         0.0800 
    135 H135        0.9346  -16.2627  -48.3277 H         1 UNK         0.0800 
    136 H136        0.5106  -17.0935  -51.7988 H         1 UNK         0.1150 
    137 H137        1.9678  -21.1071  -51.4394 H         1 UNK         0.1150 
    138 H138        2.5043  -18.3287  -48.2132 H         1 UNK         0.1150 
    139 H139        3.7644  -21.4097  -49.5982 H         1 UNK         0.0800 
    140 H140        3.6169  -20.4765  -48.1320 H         1 UNK         0.0800 
    141 H141        1.2427  -20.1493  -47.0890 H         1 UNK         0.0800 
    142 H142        1.4934  -21.5122  -46.0398 H         1 UNK         0.0800 
    143 H143       -0.6233  -22.5563  -46.8950 H         1 UNK         0.0600 
    144 H144       -0.4932  -20.3010  -45.1709 H         1 UNK         0.3000 
    145 H145       -3.8736  -20.4727  -44.0101 H         1 UNK         0.0600 
    146 H146       -2.6608  -20.6093  -41.8432 H         1 UNK         0.0600 
    147 H147       -1.1939  -21.1243  -42.6731 H         1 UNK         0.0600 
    148 H148       -2.6173  -22.1580  -42.6736 H         1 UNK         0.0600 
    149 H149       -1.7553  -18.7453  -43.2714 H         1 UNK         0.3000 
    150 H150       -2.2378  -16.2560  -45.8153 H         1 UNK         0.0600 
    151 H151       -3.8470  -15.7815  -43.9837 H         1 UNK         0.0600 
    152 H152       -2.3562  -14.8905  -43.7326 H         1 UNK         0.0600 
    153 H153       -2.6908  -16.3339  -42.7817 H         1 UNK         0.0600 
    154 H154       -0.3420  -16.5166  -43.6852 H         1 UNK         0.3000 
    155 H155        2.2021  -18.1810  -45.5659 H         1 UNK         0.0600 
    156 H156        2.4041  -15.7839  -46.1472 H         1 UNK         0.0600 
    157 H157        3.4438  -16.1714  -44.7858 H         1 UNK         0.0600 
    158 H158        1.9300  -15.3139  -44.5182 H         1 UNK         0.0600 
    159 H159        1.9734  -17.1909  -42.8590 H         1 UNK         0.3000 
    160 H160        0.7807  -20.2697  -41.4621 H         1 UNK         0.0600 
    161 H161        3.5951  -19.0563  -41.3339 H         1 UNK         0.0600 
    162 H162        3.2231  -20.7176  -41.7799 H         1 UNK         0.0600 
    163 H163        2.8819  -20.1546  -40.1517 H         1 UNK         0.0600 
    164 H164        1.7085  -17.9022  -40.2156 H         1 UNK         0.3000 
    165 H165       -0.9418  -15.7307  -40.7291 H         1 UNK         0.0600 
    166 H166       -1.4076  -15.7801  -38.2923 H         1 UNK         0.0600 
    167 H167       -2.1387  -17.1726  -39.0726 H         1 UNK         0.0600 
    168 H168       -0.6521  -17.3685  -38.1517 H         1 UNK         0.0600 
    169 H169        1.0651  -15.6689  -38.7447 H         1 UNK         0.3000 
    170 H170        2.7224  -14.1202  -39.0619 H         1 UNK         0.0600 
    171 H171        4.9505  -15.2999  -39.1319 H         1 UNK         0.0600 
    172 H172        3.6178  -16.3903  -38.7916 H         1 UNK         0.0600 
    173 H173        4.3332  -16.3663  -40.3935 H         1 UNK         0.0600 
    174 H174        3.4597  -12.6601  -40.5224 H         1 UNK         0.3000 
    175 H175        5.3808  -11.8719  -41.9252 H         1 UNK         0.0600 
    176 H176        4.9738  -13.1623  -44.6748 H         1 UNK         0.0600 
    177 H177        5.8676  -11.6779  -44.3548 H         1 UNK         0.0600 
    178 H178        6.4572  -13.2091  -43.7269 H         1 UNK         0.0600 
    179 H179        3.3350  -11.5326  -43.9291 H         1 UNK         0.3000 
    180 H180        0.8714  -10.0629  -41.8187 H         1 UNK         0.0600 
    181 H181        1.0479   -8.2856  -43.5609 H         1 UNK         0.0600 
    182 H182        2.6547   -8.8608  -44.0077 H         1 UNK         0.0600 
    183 H183        2.3740   -8.1715  -42.4143 H         1 UNK         0.0600 
    184 H184        1.1070  -10.6704  -44.6362 H         1 UNK         0.3000 
    185 H185       -0.2387  -13.9503  -44.4728 H         1 UNK         0.0600 
    186 H186       -1.4846  -11.3872  -45.6344 H         1 UNK         0.0600 
    187 H187       -1.9611  -13.0469  -45.9944 H         1 UNK         0.0600 
    188 H188       -2.2649  -12.3771  -44.4071 H         1 UNK         0.0600 
    189 H189        1.6901  -12.2374  -45.4916 H         1 UNK         0.3000 
    190 H190       -1.1474  -19.0348  -47.5494 H         1 UNK         0.3000 
    191 H191       -1.8067  -19.2683  -50.2793 H         1 UNK         0.0600 
    192 H192       -1.3164  -17.1175  -49.1042 H         1 UNK         0.0600 
    193 H193       -2.8337  -17.2352  -48.2258 H         1 UNK         0.0600 
    194 H194       -2.8388  -17.0325  -49.9746 H         1 UNK         0.0600 
    195 H195       -3.8269  -19.7055  -47.4000 H         1 UNK         0.3000 
    196 H196       -6.3256  -20.0583  -48.8004 H         1 UNK         0.0600 
    197 H197       -6.1821  -19.2151  -46.4637 H         1 UNK         0.0600 
    198 H198       -5.5027  -20.7529  -45.9345 H         1 UNK         0.0600 
    199 H199       -7.1518  -20.6761  -46.5411 H         1 UNK         0.0600 
    200 H200       -3.6558  -22.1004  -48.7657 H         1 UNK         0.3000 
    201 H201       -5.3484  -24.5546  -49.1230 H         1 UNK         0.0600 
    202 H202       -3.9477  -24.7182  -47.0843 H         1 UNK         0.0600 
    203 H203       -2.5034  -24.3208  -48.0064 H         1 UNK         0.0600 
    204 H204       -3.3650  -25.8265  -48.3173 H         1 UNK         0.0600 
    205 H205       -2.4015  -22.7851  -50.1888 H         1 UNK         0.3000 
    206 H206       -1.1996  -22.7681  -52.0232 H         1 UNK         0.0600 
    207 H207       -3.5771  -23.9959  -53.5270 H         1 UNK         0.0600 
    208 H208       -3.3469  -22.2722  -53.2303 H         1 UNK         0.0600 
    209 H209       -2.2151  -23.1572  -54.2396 H         1 UNK         0.0600 
    210 H210       -1.2693  -25.1113  -50.2536 H         1 UNK         0.3000 
    211 H211       -0.3275  -27.0581  -49.8707 H         1 UNK         0.0600 
    212 H212        1.2552  -26.6803  -52.4645 H         1 UNK         0.0600 
    213 H213        1.6870  -27.7168  -51.1130 H         1 UNK         0.0600 
    214 H214        1.6830  -25.9744  -50.9063 H         1 UNK         0.0600 
    215 H215       -2.7264  -26.8969  -51.8790 H         1 UNK         0.3000 
    216 H216       -2.8201  -29.8187  -52.4741 H         1 UNK         0.0600 
    217 H217       -3.6104  -29.2892  -54.7809 H         1 UNK         0.0600 
    218 H218       -1.9988  -28.6430  -54.5270 H         1 UNK         0.0600 
    219 H219       -3.3942  -27.5677  -54.4813 H         1 UNK         0.0600 
    220 H220       -4.2526  -27.3757  -50.8614 H         1 UNK         0.3000 
    221 H221       -6.2089  -26.8507  -50.0203 H         1 UNK         0.0600 
    222 H222       -7.3233  -29.5426  -50.9608 H         1 UNK         0.0600 
    223 H223       -6.4483  -29.2861  -49.4514 H         1 UNK         0.0600 
    224 H224       -7.9933  -28.4972  -49.7189 H         1 UNK         0.0600 
    225 H225       -5.4822  -26.1779  -52.7497 H         1 UNK         0.3000 
    226 H226       -8.0304  -25.9114  -54.2365 H         1 UNK         0.0600 
    227 H227       -5.9996  -26.6052  -55.4820 H         1 UNK         0.0600 
    228 H228       -6.5518  -25.0306  -56.0338 H         1 UNK         0.0600 
    229 H229       -5.1539  -25.1453  -54.9727 H         1 UNK         0.0600 
    230 H230       -5.6352  -23.9978  -52.4909 H         1 UNK         0.3000 
    231 H231       -5.5145  -21.9828  -51.6248 H         1 UNK         0.0600 
    232 H232       -7.5288  -20.8516  -50.8455 H         1 UNK         0.0600 
    233 H233       -7.8590  -22.5744  -50.7551 H         1 UNK         0.0600 
    234 H234       -8.5268  -21.6165  -52.0694 H         1 UNK         0.0600 
    235 H235       -5.8029  -19.6153  -51.9085 H         1 UNK         0.3000 
    236 H236       -5.7668  -17.6769  -52.9377 H         1 UNK         0.0600 
    237 H237       -7.6644  -18.8905  -55.0116 H         1 UNK         0.0600 
    238 H238       -8.1506  -18.2132  -53.4582 H         1 UNK         0.0600 
    239 H239       -7.4340  -17.1787  -54.6817 H         1 UNK         0.0600 
    240 H240       -3.5897  -19.3316  -53.4683 H         1 UNK         0.3000 
    241 H241       -2.7944  -19.0588  -56.2391 H         1 UNK         0.0600 
    242 H242       -1.6355  -15.6235  -54.5034 H         1 UNK         0.3800 
    243 H243       -2.8411  -16.6503  -53.7738 H         1 UNK         0.3800 
    244 H244       -0.6100  -19.9940  -55.4654 H         1 UNK         0.0800 
    245 H245       -1.9851  -20.9716  -55.0743 H         1 UNK         0.0800 
    246 H246        0.7074  -18.5410  -53.7770 H         1 UNK         0.0800 
    247 H247        1.2894  -20.1854  -53.6452 H         1 UNK         0.0800 
@<TRIPOS>BOND
     1    1    2 1    
     2    1  127 1    
     3    1  128 1    
     4    1  129 1    
     5    2    3 2    
     6    2    4 am   BACKBONE|DICT|INTERRES
     7    4    5 1    
     8    4  130 1    
     9    5    6 1    
    10    5   65 1    
    11    5  131 1    
    12    6    7 1    
    13    6  132 1    
    14    6  133 1    
    15    7    8 1    
    16    8    9 1    
    17    8  134 1    
    18    8  135 1    
    19    9   10 ar   
    20    9   14 ar   
    21   10   11 ar   
    22   10  136 1    
    23   11   12 ar   
    24   11  126 1    
    25   12   13 ar   
    26   12  137 1    
    27   13   14 ar   
    28   13   15 1    
    29   14  138 1    
    30   15   16 1    
    31   15  139 1    
    32   15  140 1    
    33   16   17 1    
    34   17   18 1    
    35   17  141 1    
    36   17  142 1    
    37   18   19 1    
    38   18   67 1    
    39   18  143 1    
    40   19   20 am   BACKBONE|DICT|INTERRES
    41   19  144 1    
    42   20   21 2    
    43   20   22 1    
    44   22   23 1    
    45   22   24 1    
    46   22  145 1    
    47   23  146 1    
    48   23  147 1    
    49   23  148 1    
    50   24   25 am   BACKBONE|DICT|INTERRES
    51   24  149 1    
    52   25   26 2    
    53   25   27 1    
    54   27   28 1    
    55   27   29 1    
    56   27  150 1    
    57   28  151 1    
    58   28  152 1    
    59   28  153 1    
    60   29   30 am   BACKBONE|DICT|INTERRES
    61   29  154 1    
    62   30   31 2    
    63   30   32 1    
    64   32   33 1    
    65   32   34 1    
    66   32  155 1    
    67   33  156 1    
    68   33  157 1    
    69   33  158 1    
    70   34   35 am   BACKBONE|DICT|INTERRES
    71   34  159 1    
    72   35   36 2    
    73   35   37 1    
    74   37   38 1    
    75   37   39 1    
    76   37  160 1    
    77   38  161 1    
    78   38  162 1    
    79   38  163 1    
    80   39   40 am   BACKBONE|DICT|INTERRES
    81   39  164 1    
    82   40   41 2    
    83   40   42 1    
    84   42   43 1    
    85   42   44 1    
    86   42  165 1    
    87   43  166 1    
    88   43  167 1    
    89   43  168 1    
    90   44   45 am   BACKBONE|DICT|INTERRES
    91   44  169 1    
    92   45   46 2    
    93   45   47 1    
    94   47   48 1    
    95   47   49 1    
    96   47  170 1    
    97   48  171 1    
    98   48  172 1    
    99   48  173 1    
   100   49   50 am   BACKBONE|DICT|INTERRES
   101   49  174 1    
   102   50   51 2    
   103   50   52 1    
   104   52   53 1    
   105   52   54 1    
   106   52  175 1    
   107   53  176 1    
   108   53  177 1    
   109   53  178 1    
   110   54   55 am   BACKBONE|DICT|INTERRES
   111   54  179 1    
   112   55   56 2    
   113   55   57 1    
   114   57   58 1    
   115   57   59 1    
   116   57  180 1    
   117   58  181 1    
   118   58  182 1    
   119   58  183 1    
   120   59   60 am   BACKBONE|DICT|INTERRES
   121   59  184 1    
   122   60   61 2    
   123   60   62 1    
   124   62   63 1    
   125   62   64 1    
   126   62  185 1    
   127   63  186 1    
   128   63  187 1    
   129   63  188 1    
   130   64   65 am   BACKBONE|DICT|INTERRES
   131   64  189 1    
   132   65   66 2    
   133   67   68 2    
   134   67   69 am   BACKBONE|DICT|INTERRES
   135   69   70 1    
   136   69  190 1    
   137   70   71 1    
   138   70   72 1    
   139   70  191 1    
   140   71  192 1    
   141   71  193 1    
   142   71  194 1    
   143   72   73 2    
   144   72   74 am   BACKBONE|DICT|INTERRES
   145   74   75 1    
   146   74  195 1    
   147   75   76 1    
   148   75   77 1    
   149   75  196 1    
   150   76  197 1    
   151   76  198 1    
   152   76  199 1    
   153   77   78 2    
   154   77   79 am   BACKBONE|DICT|INTERRES
   155   79   80 1    
   156   79  200 1    
   157   80   81 1    
   158   80   82 1    
   159   80  201 1    
   160   81  202 1    
   161   81  203 1    
   162   81  204 1    
   163   82   83 2    
   164   82   84 am   BACKBONE|DICT|INTERRES
   165   84   85 1    
   166   84  205 1    
   167   85   86 1    
   168   85   87 1    
   169   85  206 1    
   170   86  207 1    
   171   86  208 1    
   172   86  209 1    
   173   87   88 2    
   174   87   89 am   BACKBONE|DICT|INTERRES
   175   89   90 1    
   176   89  210 1    
   177   90   91 1    
   178   90   92 1    
   179   90  211 1    
   180   91  212 1    
   181   91  213 1    
   182   91  214 1    
   183   92   93 2    
   184   92   94 am   BACKBONE|DICT|INTERRES
   185   94   95 1    
   186   94  215 1    
   187   95   96 1    
   188   95   97 1    
   189   95  216 1    
   190   96  217 1    
   191   96  218 1    
   192   96  219 1    
   193   97   98 2    
   194   97   99 am   BACKBONE|DICT|INTERRES
   195   99  100 1    
   196   99  220 1    
   197  100  101 1    
   198  100  102 1    
   199  100  221 1    
   200  101  222 1    
   201  101  223 1    
   202  101  224 1    
   203  102  103 2    
   204  102  104 am   BACKBONE|DICT|INTERRES
   205  104  105 1    
   206  104  225 1    
   207  105  106 1    
   208  105  107 1    
   209  105  226 1    
   210  106  227 1    
   211  106  228 1    
   212  106  229 1    
   213  107  108 2    
   214  107  109 am   BACKBONE|DICT|INTERRES
   215  109  110 1    
   216  109  230 1    
   217  110  111 1    
   218  110  112 1    
   219  110  231 1    
   220  111  232 1    
   221  111  233 1    
   222  111  234 1    
   223  112  113 2    
   224  112  114 am   BACKBONE|DICT|INTERRES
   225  114  115 1    
   226  114  235 1    
   227  115  116 1    
   228  115  117 1    
   229  115  236 1    
   230  116  237 1    
   231  116  238 1    
   232  116  239 1    
   233  117  118 2    
   234  117  119 am   BACKBONE|DICT|INTERRES
   235  119  120 1    
   236  119  240 1    
   237  120  121 1    
   238  120  124 1    
   239  120  241 1    
   240  121  122 am   BACKBONE|DICT|INTERRES
   241  121  123 2    
   242  122  242 1    
   243  122  243 1    
   244  124  125 1    
   245  124  244 1    
   246  124  245 1    
   247  125  126 1    
   248  126  246 1    
   249  126  247 1    
@<TRIPOS>SUBSTRUCTURE
     1 UNK         1 GROUP             0       ****    0 ROOT    
