@<TRIPOS>MOLECULE
3R540
247   249    1
SMALL
USER_CHARGES


@<TRIPOS>ATOM
      1 CA          0.8482  -11.6517  -51.5803 C.3       0 UNK        -0.1800 
      2 C           1.2383  -12.0150  -50.1556 C.2       0 UNK         0.5000 
      3 O           0.7289  -11.4173  -49.2076 O.2       0 UNK        -0.5000 
      4 N           2.1264  -13.0058  -49.9966 N.am      1 UNK        -0.5000 
      5 CA          2.6229  -13.5072  -48.7064 C.3       1 UNK         0.1400 
      6 C6          3.8040  -14.4979  -48.8684 C.3       23 UNK        -0.0398 
      7 S7          3.4734  -15.8709  -50.0272 S.3       23 UNK        -0.2404 
      8 C8          2.9915  -17.2044  -48.8866 C.3       23 UNK        -0.0205 
      9 C9          2.5034  -18.4167  -49.6594 C.ar      23 UNK        -0.0193 
     10 C10         1.2657  -18.3795  -50.3064 C.ar      23 UNK        -0.1150 
     11 C11         0.8170  -19.4774  -51.0446 C.ar      23 UNK        -0.0193 
     12 C12         1.6062  -20.6289  -51.1121 C.ar      23 UNK        -0.1150 
     13 C13         2.8378  -20.6839  -50.4543 C.ar      23 UNK        -0.0193 
     14 C14         3.2867  -19.5702  -49.7381 C.ar      23 UNK        -0.1150 
     15 C15         3.6826  -21.9480  -50.5127 C.3       23 UNK        -0.0205 
     16 S16         2.9542  -23.3115  -49.5484 S.3       23 UNK        -0.2404 
     17 C17         2.9307  -22.6076  -47.8616 C.3       23 UNK        -0.0398 
     18 CA          1.8243  -23.1992  -46.9502 C.3       11 UNK         0.1400 
     19 N           1.9621  -22.7492  -45.5610 N.am      11 UNK        -0.5000 
     20 C           2.8994  -23.2440  -44.7366 C.2       10 UNK         0.5000 
     21 O           3.6314  -24.1868  -45.0431 O.2       10 UNK        -0.5000 
     22 CA          3.1100  -22.5877  -43.3582 C.3       10 UNK         0.1400 
     23 CB          4.3860  -21.7307  -43.3682 C.3       10 UNK        -0.1800 
     24 N           1.9959  -21.7629  -42.9034 N.am      10 UNK        -0.5000 
     25 C           0.8544  -22.2367  -42.3898 C.2       9 UNK         0.5000 
     26 O           0.6053  -23.4359  -42.2635 O.2       9 UNK        -0.5000 
     27 CA         -0.1900  -21.1918  -41.9499 C.3       9 UNK         0.1400 
     28 CB         -0.0169  -20.8602  -40.4602 C.3       9 UNK        -0.1800 
     29 N          -0.1493  -19.9504  -42.7284 N.am      9 UNK        -0.5000 
     30 C          -0.3538  -19.8769  -44.0504 C.2       8 UNK         0.5000 
     31 O          -0.5844  -20.8574  -44.7551 O.2       8 UNK        -0.5000 
     32 CA         -0.2136  -18.4946  -44.7071 C.3       8 UNK         0.1400 
     33 CB         -1.4213  -17.6059  -44.3825 C.3       8 UNK        -0.1800 
     34 N           1.0245  -17.8270  -44.3226 N.am      8 UNK        -0.5000 
     35 C           2.2503  -18.2778  -44.6257 C.2       7 UNK         0.5000 
     36 O           2.4631  -19.2737  -45.3185 O.2       7 UNK        -0.5000 
     37 CA          3.4346  -17.5086  -44.0180 C.3       7 UNK         0.1400 
     38 CB          3.8277  -16.3216  -44.9069 C.3       7 UNK        -0.1800 
     39 N           3.1385  -17.0309  -42.6669 N.am      7 UNK        -0.5000 
     40 C           3.0513  -17.8253  -41.5909 C.2       6 UNK         0.5000 
     41 O           3.2448  -19.0405  -41.6189 O.2       6 UNK        -0.5000 
     42 CA          2.6462  -17.1497  -40.2685 C.3       6 UNK         0.1400 
     43 CB          3.8548  -16.4623  -39.6155 C.3       6 UNK        -0.1800 
     44 N           1.5657  -16.1766  -40.4390 N.am      6 UNK        -0.5000 
     45 C           0.3120  -16.4968  -40.7878 C.2       5 UNK         0.5000 
     46 O          -0.0651  -17.6480  -41.0021 O.2       5 UNK        -0.5000 
     47 CA         -0.6819  -15.3341  -40.9603 C.3       5 UNK         0.1400 
     48 CB         -1.3197  -14.9670  -39.6122 C.3       5 UNK        -0.1800 
     49 N          -0.1007  -14.1325  -41.5659 N.am      5 UNK        -0.5000 
     50 C           0.4576  -14.0833  -42.7821 C.2       4 UNK         0.5000 
     51 O           0.6388  -15.0729  -43.4941 O.2       4 UNK        -0.5000 
     52 CA          0.8909  -12.6995  -43.2846 C.3       4 UNK         0.1400 
     53 CB          2.4124  -12.6382  -43.4915 C.3       4 UNK        -0.1800 
     54 N           0.2138  -12.4257  -44.5485 N.am      4 UNK        -0.5000 
     55 C          -0.9740  -11.8106  -44.6527 C.2       3 UNK         0.5000 
     56 O          -1.5718  -11.3242  -43.6916 O.2       3 UNK        -0.5000 
     57 CA         -1.6149  -11.7178  -46.0542 C.3       3 UNK         0.1400 
     58 CB         -1.3084  -10.3557  -46.6943 C.3       3 UNK        -0.1800 
     59 N          -1.1757  -12.7798  -46.9588 N.am      3 UNK        -0.5000 
     60 C          -1.5033  -14.0740  -46.8256 C.2       2 UNK         0.5000 
     61 O          -2.3409  -14.4755  -46.0181 O.2       2 UNK        -0.5000 
     62 CA         -0.7684  -15.0981  -47.7205 C.3       2 UNK         0.1400 
     63 CB         -1.7222  -15.6975  -48.7667 C.3       2 UNK        -0.1800 
     64 N           0.4146  -14.5677  -48.4051 N.am      2 UNK        -0.5000 
     65 C           1.5176  -14.0956  -47.8042 C.2       1 UNK         0.5000 
     66 O           1.6645  -14.0701  -46.5845 O.2       1 UNK        -0.5000 
     67 C           0.4022  -22.9706  -47.4939 C.2       11 UNK         0.5000 
     68 O          -0.2535  -23.9417  -47.8736 O.2       11 UNK        -0.5000 
     69 N          -0.0651  -21.7136  -47.5283 N.am      12 UNK        -0.5000 
     70 CA         -1.3527  -21.3250  -48.1244 C.3       12 UNK         0.1400 
     71 CB         -1.5296  -19.8016  -48.0356 C.3       12 UNK        -0.1800 
     72 C          -2.5713  -22.0376  -47.5029 C.2       12 UNK         0.5000 
     73 O          -3.4906  -22.4204  -48.2250 O.2       12 UNK        -0.5000 
     74 N          -2.5334  -22.2440  -46.1814 N.am      13 UNK        -0.5000 
     75 CA         -3.5440  -22.9690  -45.4128 C.3       13 UNK         0.1400 
     76 CB         -3.2765  -22.7564  -43.9157 C.3       13 UNK        -0.1800 
     77 C          -3.5959  -24.4740  -45.7398 C.2       13 UNK         0.5000 
     78 O          -4.6689  -25.0712  -45.6517 O.2       13 UNK        -0.5000 
     79 N          -2.4489  -25.0565  -46.1173 N.am      14 UNK        -0.5000 
     80 CA         -2.3364  -26.4497  -46.5496 C.3       14 UNK         0.1400 
     81 CB         -0.8970  -26.9443  -46.3354 C.3       14 UNK        -0.1800 
     82 C          -2.7695  -26.6207  -48.0162 C.2       14 UNK         0.5000 
     83 O          -3.3938  -27.6288  -48.3488 O.2       14 UNK        -0.5000 
     84 N          -2.4532  -25.6256  -48.8582 N.am      15 UNK        -0.5000 
     85 CA         -2.8899  -25.5391  -50.2536 C.3       15 UNK         0.1400 
     86 CB         -2.1250  -24.4040  -50.9539 C.3       15 UNK        -0.1800 
     87 C          -4.4130  -25.3373  -50.3869 C.2       15 UNK         0.5000 
     88 O          -5.0186  -25.9098  -51.2935 O.2       15 UNK        -0.5000 
     89 N          -4.9835  -24.5527  -49.4596 N.am      16 UNK        -0.5000 
     90 CA         -6.3818  -24.1319  -49.3323 C.3       16 UNK         0.1400 
     91 CB         -7.3466  -25.3344  -49.3186 C.3       16 UNK        -0.1800 
     92 C          -6.7856  -23.0874  -50.3884 C.2       16 UNK         0.5000 
     93 O          -6.1345  -22.9542  -51.4260 O.2       16 UNK        -0.5000 
     94 N          -7.8704  -22.3540  -50.1024 N.am      17 UNK        -0.5000 
     95 CA         -8.3602  -21.1933  -50.8605 C.3       17 UNK         0.1400 
     96 CB         -9.6038  -20.6327  -50.1537 C.3       17 UNK        -0.1800 
     97 C          -8.6610  -21.4429  -52.3530 C.2       17 UNK         0.5000 
     98 O          -8.6495  -20.4929  -53.1360 O.2       17 UNK        -0.5000 
     99 N          -8.9040  -22.7067  -52.7249 N.am      18 UNK        -0.5000 
    100 CA        -9.0761  -23.1526  -54.1079 C.3       18 UNK         0.1400 
    101 CB        -9.5893  -24.6007  -54.1027 C.3       18 UNK        -0.1800 
    102 C         -7.7894  -23.0406  -54.9526 C.2       18 UNK         0.5000 
    103 O         -7.8859  -22.8577  -56.1669 O.2       18 UNK        -0.5000 
    104 N         -6.6215  -23.1509  -54.3050 N.am      19 UNK        -0.5000 
    105 CA        -5.3031  -23.0377  -54.9289 C.3       19 UNK         0.1400 
    106 CB        -4.4675  -24.2712  -54.5557 C.3       19 UNK        -0.1800 
    107 C         -4.5787  -21.7548  -54.4903 C.2       19 UNK         0.5000 
    108 O         -3.8653  -21.1568  -55.2975 O.2       19 UNK        -0.5000 
    109 N         -4.7655  -21.3469  -53.2277 N.am      20 UNK        -0.5000 
    110 CA        -4.1257  -20.1976  -52.5918 C.3       20 UNK         0.1400 
    111 CB        -4.1525  -20.3851  -51.0657 C.3       20 UNK        -0.1800 
    112 C         -4.7231  -18.8467  -53.0348 C.2       20 UNK         0.5000 
    113 O         -5.2432  -18.0905  -52.2137 O.2       20 UNK        -0.5000 
    114 N         -4.5922  -18.5512  -54.3317 N.am      21 UNK        -0.5000 
    115 CA        -4.8834  -17.2532  -54.9486 C.3       21 UNK         0.1400 
    116 CB        -5.3047  -17.4981  -56.4075 C.3       21 UNK        -0.1800 
    117 C         -3.6825  -16.2799  -54.8684 C.2       21 UNK         0.5000 
    118 O         -3.7342  -15.2020  -55.4622 O.2       21 UNK        -0.5000 
    119 N         -2.6188  -16.7020  -54.1723 N.am      22 UNK        -0.5000 
    120 CA        -1.3159  -16.0491  -53.9846 C.3       22 UNK         0.1400 
    121 C         -1.4091  -14.5697  -53.5161 C.2       22 UNK         0.5000 
    122 N         -0.7275  -13.6524  -54.1888 N.am      22 UNK        -0.7600 
    123 O         -2.0576  -14.2580  -52.5202 O.2       22 UNK        -0.5000 
    124 C124       -0.4316  -16.8626  -53.0003 C.3       23 UNK        -0.0398 
    125 S125       -0.3420  -18.6451  -53.4114 S.3       23 UNK        -0.2404 
    126 C126       -0.5149  -19.4233  -51.7731 C.3       23 UNK        -0.0205 
    127 H127       -0.2276  -11.7679  -51.7123 H         1 UNK         0.0600 
    128 H128        1.3519  -12.2840  -52.3120 H         1 UNK         0.0600 
    129 H129        1.1091  -10.6140  -51.7879 H         1 UNK         0.0600 
    130 H130        2.5026  -13.4718  -50.8107 H         1 UNK         0.3000 
    131 H131        3.0093  -12.6389  -48.1681 H         1 UNK         0.0600 
    132 H132        4.6680  -13.9551  -49.2539 H         1 UNK         0.0800 
    133 H133        4.1233  -14.8934  -47.9021 H         1 UNK         0.0800 
    134 H134        2.2002  -16.8687  -48.2162 H         1 UNK         0.0800 
    135 H135        3.8427  -17.4659  -48.2564 H         1 UNK         0.0800 
    136 H136        0.6654  -17.4842  -50.2500 H         1 UNK         0.1150 
    137 H137        1.2624  -21.4864  -51.6735 H         1 UNK         0.1150 
    138 H138        4.2429  -19.6041  -49.2352 H         1 UNK         0.1150 
    139 H139        3.7835  -22.2640  -51.5519 H         1 UNK         0.0800 
    140 H140        4.6944  -21.7563  -50.1519 H         1 UNK         0.0800 
    141 H141        2.8287  -21.5239  -47.8968 H         1 UNK         0.0800 
    142 H142        3.9140  -22.7945  -47.4289 H         1 UNK         0.0800 
    143 H143        1.9540  -24.2843  -46.9536 H         1 UNK         0.0600 
    144 H144        1.3556  -22.0012  -45.2468 H         1 UNK         0.3000 
    145 H145        3.2560  -23.3944  -42.6366 H         1 UNK         0.0600 
    146 H146        4.6026  -21.3346  -42.3760 H         1 UNK         0.0600 
    147 H147        5.2521  -22.3174  -43.6770 H         1 UNK         0.0600 
    148 H148        4.2993  -20.8879  -44.0545 H         1 UNK         0.0600 
    149 H149        2.1262  -20.7608  -42.9459 H         1 UNK         0.3000 
    150 H150       -1.1771  -21.6360  -42.0854 H         1 UNK         0.0600 
    151 H151       -0.0461  -21.7638  -39.8500 H         1 UNK         0.0600 
    152 H152       -0.8135  -20.2050  -40.1076 H         1 UNK         0.0600 
    153 H153        0.9350  -20.3628  -40.2691 H         1 UNK         0.0600 
    154 H154        0.0150  -19.0943  -42.2037 H         1 UNK         0.3000 
    155 H155       -0.1696  -18.6317  -45.7871 H         1 UNK         0.0600 
    156 H156       -1.3203  -16.6236  -44.8408 H         1 UNK         0.0600 
    157 H157       -2.3441  -18.0493  -44.7581 H         1 UNK         0.0600 
    158 H158       -1.5406  -17.4588  -43.3096 H         1 UNK         0.0600 
    159 H159        0.9348  -16.9538  -43.8102 H         1 UNK         0.3000 
    160 H160        4.2856  -18.1910  -43.9652 H         1 UNK         0.0600 
    161 H161        3.0107  -15.6071  -44.9951 H         1 UNK         0.0600 
    162 H162        4.0840  -16.6544  -45.9128 H         1 UNK         0.0600 
    163 H163        4.6938  -15.7949  -44.5063 H         1 UNK         0.0600 
    164 H164        2.9097  -16.0528  -42.5697 H         1 UNK         0.3000 
    165 H165        2.2935  -17.9315  -39.5922 H         1 UNK         0.0600 
    166 H166        3.5953  -16.0540  -38.6385 H         1 UNK         0.0600 
    167 H167        4.6710  -17.1700  -39.4642 H         1 UNK         0.0600 
    168 H168        4.2373  -15.6463  -40.2299 H         1 UNK         0.0600 
    169 H169        1.7918  -15.2048  -40.2872 H         1 UNK         0.3000 
    170 H170       -1.4757  -15.6808  -41.6248 H         1 UNK         0.0600 
    171 H171       -1.7790  -15.8402  -39.1467 H         1 UNK         0.0600 
    172 H172       -0.5831  -14.5709  -38.9119 H         1 UNK         0.0600 
    173 H173       -2.1024  -14.2184  -39.7364 H         1 UNK         0.0600 
    174 H174       -0.2103  -13.2737  -41.0459 H         1 UNK         0.3000 
    175 H175        0.6241  -11.9422  -42.5444 H         1 UNK         0.0600 
    176 H176        2.7537  -13.3664  -44.2266 H         1 UNK         0.0600 
    177 H177        2.7217  -11.6509  -43.8347 H         1 UNK         0.0600 
    178 H178        2.9416  -12.8401  -42.5595 H         1 UNK         0.0600 
    179 H179        0.6113  -12.8829  -45.3634 H         1 UNK         0.3000 
    180 H180       -2.6967  -11.8003  -45.9301 H         1 UNK         0.0600 
    181 H181       -0.2367  -10.2121  -46.8381 H         1 UNK         0.0600 
    182 H182       -1.6682   -9.5390  -46.0671 H         1 UNK         0.0600 
    183 H183       -1.7925  -10.2575  -47.6661 H         1 UNK         0.0600 
    184 H184       -0.4963  -12.5184  -47.6630 H         1 UNK         0.3000 
    185 H185       -0.4318  -15.9048  -47.0659 H         1 UNK         0.0600 
    186 H186       -2.6144  -16.1101  -48.2937 H         1 UNK         0.0600 
    187 H187       -2.0495  -14.9481  -49.4886 H         1 UNK         0.0600 
    188 H188       -1.2490  -16.5101  -49.3163 H         1 UNK         0.0600 
    189 H189        0.3702  -14.5197  -49.4122 H         1 UNK         0.3000 
    190 H190        0.5073  -20.9654  -47.1663 H         1 UNK         0.3000 
    191 H191       -1.3075  -21.5986  -49.1803 H         1 UNK         0.0600 
    192 H192       -1.7997  -19.4887  -47.0282 H         1 UNK         0.0600 
    193 H193       -2.3321  -19.4669  -48.6909 H         1 UNK         0.0600 
    194 H194       -0.6258  -19.2690  -48.3295 H         1 UNK         0.0600 
    195 H195       -1.7485  -21.8568  -45.6591 H         1 UNK         0.3000 
    196 H196       -4.5203  -22.5426  -45.6523 H         1 UNK         0.0600 
    197 H197       -4.0365  -23.2487  -43.3077 H         1 UNK         0.0600 
    198 H198       -3.2892  -21.6969  -43.6588 H         1 UNK         0.0600 
    199 H199       -2.3069  -23.1618  -43.6234 H         1 UNK         0.0600 
    200 H200       -1.6250  -24.4809  -46.2294 H         1 UNK         0.3000 
    201 H201       -2.9946  -27.0648  -45.9320 H         1 UNK         0.0600 
    202 H202       -0.5949  -26.8387  -45.2934 H         1 UNK         0.0600 
    203 H203       -0.1806  -26.3982  -46.9489 H         1 UNK         0.0600 
    204 H204       -0.8084  -28.0000  -46.5943 H         1 UNK         0.0600 
    205 H205       -1.8717  -24.8690  -48.5116 H         1 UNK         0.3000 
    206 H206       -2.6316  -26.4789  -50.7459 H         1 UNK         0.0600 
    207 H207       -1.0470  -24.5506  -50.8831 H         1 UNK         0.0600 
    208 H208       -2.3790  -24.3569  -52.0130 H         1 UNK         0.0600 
    209 H209       -2.3587  -23.4326  -50.5188 H         1 UNK         0.0600 
    210 H210       -4.3496  -24.0563  -48.8405 H         1 UNK         0.3000 
    211 H211       -6.4430  -23.6422  -48.3593 H         1 UNK         0.0600 
    212 H212       -7.4259  -25.8079  -50.2975 H         1 UNK         0.0600 
    213 H213       -8.3514  -25.0261  -49.0286 H         1 UNK         0.0600 
    214 H214       -7.0221  -26.0910  -48.6041 H         1 UNK         0.0600 
    215 H215       -8.3613  -22.5464  -49.2411 H         1 UNK         0.3000 
    216 H216       -7.5796  -20.4313  -50.8226 H         1 UNK         0.0600 
    217 H217       -9.9828  -19.7484  -50.6680 H         1 UNK         0.0600 
    218 H218       -9.3770  -20.3363  -49.1294 H         1 UNK         0.0600 
    219 H219      -10.4114  -21.3652  -50.1220 H         1 UNK         0.0600 
    220 H220       -8.8947  -23.4222  -52.0133 H         1 UNK         0.3000 
    221 H221       -9.8348  -22.5218  -54.5758 H         1 UNK         0.0600 
    222 H222       -8.8786  -25.2775  -53.6263 H         1 UNK         0.0600 
    223 H223      -10.5385  -24.6816  -53.5728 H         1 UNK         0.0600 
    224 H224       -9.7542  -24.9603  -55.1193 H         1 UNK         0.0600 
    225 H225       -6.6304  -23.2682  -53.2966 H         1 UNK         0.3000 
    226 H226       -5.3914  -23.0079  -56.0168 H         1 UNK         0.0600 
    227 H227       -4.9359  -25.1872  -54.9157 H         1 UNK         0.0600 
    228 H228       -3.4706  -24.2190  -54.9953 H         1 UNK         0.0600 
    229 H229       -4.3483  -24.3606  -53.4758 H         1 UNK         0.0600 
    230 H230       -5.3460  -21.9160  -52.6148 H         1 UNK         0.3000 
    231 H231       -3.0789  -20.1908  -52.8978 H         1 UNK         0.0600 
    232 H232       -3.6433  -21.3025  -50.7713 H         1 UNK         0.0600 
    233 H233       -5.1706  -20.4295  -50.6807 H         1 UNK         0.0600 
    234 H234       -3.6524  -19.5571  -50.5649 H         1 UNK         0.0600 
    235 H235       -4.1879  -19.2631  -54.9343 H         1 UNK         0.3000 
    236 H236       -5.7193  -16.7830  -54.4267 H         1 UNK         0.0600 
    237 H237       -5.5896  -16.5664  -56.8977 H         1 UNK         0.0600 
    238 H238       -4.4963  -17.9430  -56.9892 H         1 UNK         0.0600 
    239 H239       -6.1641  -18.1668  -56.4618 H         1 UNK         0.0600 
    240 H240       -2.6912  -17.6129  -53.7478 H         1 UNK         0.3000 
    241 H241       -0.8288  -16.0662  -54.9611 H         1 UNK         0.0600 
    242 H242       -0.1905  -13.8878  -55.0092 H         1 UNK         0.3800 
    243 H243       -0.7833  -12.6904  -53.8954 H         1 UNK         0.3800 
    244 H244       -0.8135  -16.7502  -51.9845 H         1 UNK         0.0800 
    245 H245        0.5857  -16.4675  -52.9871 H         1 UNK         0.0800 
    246 H246       -0.8975  -20.4363  -51.9057 H         1 UNK         0.0800 
    247 H247       -1.2575  -18.8962  -51.1728 H         1 UNK         0.0800 
@<TRIPOS>BOND
     1    1    2 1    
     2    1  127 1    
     3    1  128 1    
     4    1  129 1    
     5    2    3 2    
     6    2    4 am   BACKBONE|DICT|INTERRES
     7    4    5 1    
     8    4  130 1    
     9    5    6 1    
    10    5   65 1    
    11    5  131 1    
    12    6    7 1    
    13    6  132 1    
    14    6  133 1    
    15    7    8 1    
    16    8    9 1    
    17    8  134 1    
    18    8  135 1    
    19    9   10 ar   
    20    9   14 ar   
    21   10   11 ar   
    22   10  136 1    
    23   11   12 ar   
    24   11  126 1    
    25   12   13 ar   
    26   12  137 1    
    27   13   14 ar   
    28   13   15 1    
    29   14  138 1    
    30   15   16 1    
    31   15  139 1    
    32   15  140 1    
    33   16   17 1    
    34   17   18 1    
    35   17  141 1    
    36   17  142 1    
    37   18   19 1    
    38   18   67 1    
    39   18  143 1    
    40   19   20 am   BACKBONE|DICT|INTERRES
    41   19  144 1    
    42   20   21 2    
    43   20   22 1    
    44   22   23 1    
    45   22   24 1    
    46   22  145 1    
    47   23  146 1    
    48   23  147 1    
    49   23  148 1    
    50   24   25 am   BACKBONE|DICT|INTERRES
    51   24  149 1    
    52   25   26 2    
    53   25   27 1    
    54   27   28 1    
    55   27   29 1    
    56   27  150 1    
    57   28  151 1    
    58   28  152 1    
    59   28  153 1    
    60   29   30 am   BACKBONE|DICT|INTERRES
    61   29  154 1    
    62   30   31 2    
    63   30   32 1    
    64   32   33 1    
    65   32   34 1    
    66   32  155 1    
    67   33  156 1    
    68   33  157 1    
    69   33  158 1    
    70   34   35 am   BACKBONE|DICT|INTERRES
    71   34  159 1    
    72   35   36 2    
    73   35   37 1    
    74   37   38 1    
    75   37   39 1    
    76   37  160 1    
    77   38  161 1    
    78   38  162 1    
    79   38  163 1    
    80   39   40 am   BACKBONE|DICT|INTERRES
    81   39  164 1    
    82   40   41 2    
    83   40   42 1    
    84   42   43 1    
    85   42   44 1    
    86   42  165 1    
    87   43  166 1    
    88   43  167 1    
    89   43  168 1    
    90   44   45 am   BACKBONE|DICT|INTERRES
    91   44  169 1    
    92   45   46 2    
    93   45   47 1    
    94   47   48 1    
    95   47   49 1    
    96   47  170 1    
    97   48  171 1    
    98   48  172 1    
    99   48  173 1    
   100   49   50 am   BACKBONE|DICT|INTERRES
   101   49  174 1    
   102   50   51 2    
   103   50   52 1    
   104   52   53 1    
   105   52   54 1    
   106   52  175 1    
   107   53  176 1    
   108   53  177 1    
   109   53  178 1    
   110   54   55 am   BACKBONE|DICT|INTERRES
   111   54  179 1    
   112   55   56 2    
   113   55   57 1    
   114   57   58 1    
   115   57   59 1    
   116   57  180 1    
   117   58  181 1    
   118   58  182 1    
   119   58  183 1    
   120   59   60 am   BACKBONE|DICT|INTERRES
   121   59  184 1    
   122   60   61 2    
   123   60   62 1    
   124   62   63 1    
   125   62   64 1    
   126   62  185 1    
   127   63  186 1    
   128   63  187 1    
   129   63  188 1    
   130   64   65 am   BACKBONE|DICT|INTERRES
   131   64  189 1    
   132   65   66 2    
   133   67   68 2    
   134   67   69 am   BACKBONE|DICT|INTERRES
   135   69   70 1    
   136   69  190 1    
   137   70   71 1    
   138   70   72 1    
   139   70  191 1    
   140   71  192 1    
   141   71  193 1    
   142   71  194 1    
   143   72   73 2    
   144   72   74 am   BACKBONE|DICT|INTERRES
   145   74   75 1    
   146   74  195 1    
   147   75   76 1    
   148   75   77 1    
   149   75  196 1    
   150   76  197 1    
   151   76  198 1    
   152   76  199 1    
   153   77   78 2    
   154   77   79 am   BACKBONE|DICT|INTERRES
   155   79   80 1    
   156   79  200 1    
   157   80   81 1    
   158   80   82 1    
   159   80  201 1    
   160   81  202 1    
   161   81  203 1    
   162   81  204 1    
   163   82   83 2    
   164   82   84 am   BACKBONE|DICT|INTERRES
   165   84   85 1    
   166   84  205 1    
   167   85   86 1    
   168   85   87 1    
   169   85  206 1    
   170   86  207 1    
   171   86  208 1    
   172   86  209 1    
   173   87   88 2    
   174   87   89 am   BACKBONE|DICT|INTERRES
   175   89   90 1    
   176   89  210 1    
   177   90   91 1    
   178   90   92 1    
   179   90  211 1    
   180   91  212 1    
   181   91  213 1    
   182   91  214 1    
   183   92   93 2    
   184   92   94 am   BACKBONE|DICT|INTERRES
   185   94   95 1    
   186   94  215 1    
   187   95   96 1    
   188   95   97 1    
   189   95  216 1    
   190   96  217 1    
   191   96  218 1    
   192   96  219 1    
   193   97   98 2    
   194   97   99 am   BACKBONE|DICT|INTERRES
   195   99  100 1    
   196   99  220 1    
   197  100  101 1    
   198  100  102 1    
   199  100  221 1    
   200  101  222 1    
   201  101  223 1    
   202  101  224 1    
   203  102  103 2    
   204  102  104 am   BACKBONE|DICT|INTERRES
   205  104  105 1    
   206  104  225 1    
   207  105  106 1    
   208  105  107 1    
   209  105  226 1    
   210  106  227 1    
   211  106  228 1    
   212  106  229 1    
   213  107  108 2    
   214  107  109 am   BACKBONE|DICT|INTERRES
   215  109  110 1    
   216  109  230 1    
   217  110  111 1    
   218  110  112 1    
   219  110  231 1    
   220  111  232 1    
   221  111  233 1    
   222  111  234 1    
   223  112  113 2    
   224  112  114 am   BACKBONE|DICT|INTERRES
   225  114  115 1    
   226  114  235 1    
   227  115  116 1    
   228  115  117 1    
   229  115  236 1    
   230  116  237 1    
   231  116  238 1    
   232  116  239 1    
   233  117  118 2    
   234  117  119 am   BACKBONE|DICT|INTERRES
   235  119  120 1    
   236  119  240 1    
   237  120  121 1    
   238  120  124 1    
   239  120  241 1    
   240  121  122 am   BACKBONE|DICT|INTERRES
   241  121  123 2    
   242  122  242 1    
   243  122  243 1    
   244  124  125 1    
   245  124  244 1    
   246  124  245 1    
   247  125  126 1    
   248  126  246 1    
   249  126  247 1    
@<TRIPOS>SUBSTRUCTURE
     1 UNK         1 GROUP             0       ****    0 ROOT    
