@<TRIPOS>MOLECULE
3R540
247   249    1
SMALL
USER_CHARGES


@<TRIPOS>ATOM
      1 CA          1.0369   -9.7467  -49.0927 C.3       0 UNK        -0.1800 
      2 C          -0.3087  -10.4263  -48.8412 C.2       0 UNK         0.5000 
      3 O          -1.2745   -9.7393  -48.5141 O.2       0 UNK        -0.5000 
      4 N          -0.4380  -11.7521  -48.9936 N.am      1 UNK        -0.5000 
      5 CA          0.6127  -12.7298  -49.2982 C.3       1 UNK         0.1400 
      6 C6          0.0197  -14.1375  -49.5415 C.3       23 UNK        -0.0398 
      7 S7         -0.9940  -14.2349  -51.0552 S.3       23 UNK        -0.2404 
      8 C8         -0.2048  -15.6257  -51.9353 C.3       23 UNK        -0.0205 
      9 C9         -0.7731  -16.9877  -51.5442 C.ar      23 UNK        -0.0193 
     10 C10        -1.3000  -17.8256  -52.5326 C.ar      23 UNK        -0.1150 
     11 C11        -1.7881  -19.0942  -52.2076 C.ar      23 UNK        -0.0193 
     12 C12        -1.7760  -19.5127  -50.8754 C.ar      23 UNK        -0.1150 
     13 C13        -1.2827  -18.6776  -49.8716 C.ar      23 UNK        -0.0193 
     14 C14        -0.7634  -17.4272  -50.2144 C.ar      23 UNK        -0.1150 
     15 C15        -1.3479  -19.1072  -48.4152 C.3       23 UNK        -0.0205 
     16 S16         0.2233  -19.8181  -47.8531 S.3       23 UNK        -0.2404 
     17 C17        -0.1901  -20.2319  -46.1275 C.3       23 UNK        -0.0398 
     18 CA         -0.3318  -21.7563  -45.8912 C.3       11 UNK         0.1400 
     19 N           0.0070  -22.1090  -44.5068 N.am      11 UNK        -0.5000 
     20 C           0.0885  -23.3519  -44.0101 C.2       10 UNK         0.5000 
     21 O          -0.1600  -24.3668  -44.6588 O.2       10 UNK        -0.5000 
     22 CA          0.4629  -23.4784  -42.5265 C.3       10 UNK         0.1400 
     23 CB          1.9621  -23.2209  -42.3115 C.3       10 UNK        -0.1800 
     24 N          -0.3254  -22.5526  -41.7167 N.am      10 UNK        -0.5000 
     25 C          -1.5897  -22.7827  -41.3345 C.2       9 UNK         0.5000 
     26 O          -2.1875  -23.8380  -41.5463 O.2       9 UNK        -0.5000 
     27 CA         -2.3206  -21.6323  -40.6147 C.3       9 UNK         0.1400 
     28 CB         -2.1055  -21.7241  -39.0966 C.3       9 UNK        -0.1800 
     29 N          -1.9126  -20.3041  -41.0779 N.am      9 UNK        -0.5000 
     30 C          -2.1070  -19.8379  -42.3194 C.2       8 UNK         0.5000 
     31 O          -2.6625  -20.4757  -43.2112 O.2       8 UNK        -0.5000 
     32 CA         -1.5372  -18.4446  -42.6375 C.3       8 UNK         0.1400 
     33 CB         -2.5601  -17.3622  -42.2597 C.3       8 UNK        -0.1800 
     34 N          -0.2474  -18.1667  -41.9918 N.am      8 UNK        -0.5000 
     35 C           0.8523  -18.9222  -42.1194 C.2       7 UNK         0.5000 
     36 O           0.9055  -19.9203  -42.8415 O.2       7 UNK        -0.5000 
     37 CA          2.0695  -18.5188  -41.2740 C.3       7 UNK         0.1400 
     38 CB          3.0210  -19.7104  -41.0318 C.3       7 UNK        -0.1800 
     39 N           2.7909  -17.4151  -41.9038 N.am      7 UNK        -0.5000 
     40 C           3.6636  -16.6274  -41.2585 C.2       6 UNK         0.5000 
     41 O           3.8871  -16.7057  -40.0492 O.2       6 UNK        -0.5000 
     42 CA          4.4241  -15.5790  -42.0908 C.3       6 UNK         0.1400 
     43 CB          5.4064  -16.2482  -43.0657 C.3       6 UNK        -0.1800 
     44 N           3.5283  -14.6888  -42.8227 N.am      6 UNK        -0.5000 
     45 C           2.7514  -13.7519  -42.2609 C.2       5 UNK         0.5000 
     46 O           2.7586  -13.4835  -41.0588 O.2       5 UNK        -0.5000 
     47 CA          1.7813  -13.0047  -43.1982 C.3       5 UNK         0.1400 
     48 CB          2.4686  -11.7998  -43.8583 C.3       5 UNK        -0.1800 
     49 N           1.2199  -13.8757  -44.2320 N.am      5 UNK        -0.5000 
     50 C           0.4313  -14.9294  -43.9783 C.2       4 UNK         0.5000 
     51 O           0.0284  -15.2208  -42.8533 O.2       4 UNK        -0.5000 
     52 CA          0.0719  -15.8330  -45.1701 C.3       4 UNK         0.1400 
     53 CB         -1.1499  -15.2929  -45.9269 C.3       4 UNK        -0.1800 
     54 N           1.1986  -15.9995  -46.0876 N.am      4 UNK        -0.5000 
     55 C           2.2764  -16.7510  -45.8195 C.2       3 UNK         0.5000 
     56 O           2.4081  -17.4117  -44.7894 O.2       3 UNK        -0.5000 
     57 CA          3.4187  -16.7194  -46.8529 C.3       3 UNK         0.1400 
     58 CB          3.1810  -17.7529  -47.9622 C.3       3 UNK        -0.1800 
     59 N           3.5980  -15.3981  -47.4568 N.am      3 UNK        -0.5000 
     60 C           4.0308  -14.3165  -46.7937 C.2       2 UNK         0.5000 
     61 O           4.3550  -14.3295  -45.6078 O.2       2 UNK        -0.5000 
     62 CA          4.0521  -12.9886  -47.5740 C.3       2 UNK         0.1400 
     63 CB          5.3797  -12.8253  -48.3283 C.3       2 UNK        -0.1800 
     64 N           2.9363  -12.8586  -48.5166 N.am      2 UNK        -0.5000 
     65 C           1.6464  -12.8125  -48.1577 C.2       1 UNK         0.5000 
     66 O           1.2601  -12.8861  -46.9896 O.2       1 UNK        -0.5000 
     67 C          -1.7179  -22.2865  -46.3295 C.2       11 UNK         0.5000 
     68 O          -1.8791  -22.7149  -47.4742 O.2       11 UNK        -0.5000 
     69 N          -2.6783  -22.3098  -45.3947 N.am      12 UNK        -0.5000 
     70 CA         -4.0128  -22.8865  -45.5621 C.3       12 UNK         0.1400 
     71 CB         -4.8497  -22.6067  -44.3052 C.3       12 UNK        -0.1800 
     72 C          -4.0177  -24.3935  -45.8836 C.2       12 UNK         0.5000 
     73 O          -4.9486  -24.8596  -46.5398 O.2       12 UNK        -0.5000 
     74 N          -2.9886  -25.1205  -45.4314 N.am      13 UNK        -0.5000 
     75 CA         -2.8021  -26.5436  -45.6994 C.3       13 UNK         0.1400 
     76 CB         -2.3041  -27.2375  -44.4211 C.3       13 UNK        -0.1800 
     77 C          -1.8148  -26.7595  -46.8567 C.2       13 UNK         0.5000 
     78 O          -2.1116  -27.5249  -47.7738 O.2       13 UNK        -0.5000 
     79 N          -0.6585  -26.0859  -46.7918 N.am      14 UNK        -0.5000 
     80 CA          0.4736  -26.2705  -47.6998 C.3       14 UNK         0.1400 
     81 CB          1.7116  -25.5824  -47.1037 C.3       14 UNK        -0.1800 
     82 C           0.2182  -25.7644  -49.1289 C.2       14 UNK         0.5000 
     83 O           0.6882  -26.3903  -50.0799 O.2       14 UNK        -0.5000 
     84 N          -0.5096  -24.6484  -49.2533 N.am      15 UNK        -0.5000 
     85 CA         -0.8181  -23.9907  -50.5245 C.3       15 UNK         0.1400 
     86 CB         -0.1757  -22.5953  -50.5160 C.3       15 UNK        -0.1800 
     87 C          -2.3347  -23.9237  -50.7871 C.2       15 UNK         0.5000 
     88 O          -2.7477  -23.2915  -51.7572 O.2       15 UNK        -0.5000 
     89 N          -3.1333  -24.5824  -49.9320 N.am      16 UNK        -0.5000 
     90 CA         -4.5971  -24.6931  -49.9836 C.3       16 UNK         0.1400 
     91 CB         -5.0435  -25.4605  -51.2466 C.3       16 UNK        -0.1800 
     92 C          -5.3421  -23.3501  -49.8040 C.2       16 UNK         0.5000 
     93 O          -6.4856  -23.2302  -50.2481 O.2       16 UNK        -0.5000 
     94 N          -4.6901  -22.3877  -49.1305 N.am      17 UNK        -0.5000 
     95 CA         -5.1228  -21.0089  -48.8641 C.3       17 UNK         0.1400 
     96 CB         -6.4847  -20.9682  -48.1381 C.3       17 UNK        -0.1800 
     97 C          -5.1391  -20.1191  -50.1229 C.2       17 UNK         0.5000 
     98 O          -5.1285  -20.6124  -51.2507 O.2       17 UNK        -0.5000 
     99 N          -5.1777  -18.7960  -49.9058 N.am      18 UNK        -0.5000 
    100 CA        -5.1196  -17.7636  -50.9511 C.3       18 UNK         0.1400 
    101 CB        -5.0853  -16.3786  -50.2893 C.3       18 UNK        -0.1800 
    102 C         -6.2452  -17.8450  -52.0035 C.2       18 UNK         0.5000 
    103 O         -6.0585  -17.3840  -53.1300 O.2       18 UNK        -0.5000 
    104 N         -7.3675  -18.4817  -51.6400 N.am      19 UNK        -0.5000 
    105 CA        -8.4918  -18.8123  -52.5174 C.3       19 UNK         0.1400 
    106 CB        -9.6071  -19.4438  -51.6704 C.3       19 UNK        -0.1800 
    107 C         -8.1243  -19.7373  -53.6984 C.2       19 UNK         0.5000 
    108 O         -8.8272  -19.7197  -54.7094 O.2       19 UNK        -0.5000 
    109 N         -7.0297  -20.5048  -53.5752 N.am      20 UNK        -0.5000 
    110 CA        -6.4824  -21.3456  -54.6436 C.3       20 UNK         0.1400 
    111 CB        -5.6318  -22.4631  -54.0195 C.3       20 UNK        -0.1800 
    112 C         -5.6790  -20.5536  -55.6998 C.2       20 UNK         0.5000 
    113 O         -5.2613  -21.1449  -56.6965 O.2       20 UNK        -0.5000 
    114 N         -5.4715  -19.2457  -55.4754 N.am      21 UNK        -0.5000 
    115 CA        -4.8212  -18.2413  -56.3297 C.3       21 UNK         0.1400 
    116 CB        -5.5279  -18.1146  -57.6926 C.3       21 UNK        -0.1800 
    117 C         -3.2997  -18.4138  -56.5036 C.2       21 UNK         0.5000 
    118 O         -2.5758  -17.4216  -56.4181 O.2       21 UNK        -0.5000 
    119 N         -2.8392  -19.6543  -56.7105 N.am      22 UNK        -0.5000 
    120 CA        -1.4252  -20.0580  -56.8385 C.3       22 UNK         0.1400 
    121 C         -0.6924  -19.4809  -58.0916 C.2       22 UNK         0.5000 
    122 N         -1.3997  -19.0242  -59.1182 N.am      22 UNK        -0.7600 
    123 O          0.5341  -19.4769  -58.1583 O.2       22 UNK        -0.5000 
    124 C124       -0.6228  -19.8571  -55.5181 C.3       23 UNK        -0.0398 
    125 S125       -1.1727  -20.9765  -54.1840 S.3       23 UNK        -0.2404 
    126 C126       -2.4007  -19.9886  -53.2728 C.3       23 UNK        -0.0205 
    127 H127        1.5476  -10.1618  -49.9608 H         1 UNK         0.0600 
    128 H128        1.6837   -9.8463  -48.2210 H         1 UNK         0.0600 
    129 H129        0.8928   -8.6824  -49.2800 H         1 UNK         0.0600 
    130 H130       -1.3476  -12.1564  -48.8269 H         1 UNK         0.3000 
    131 H131        1.1210  -12.4128  -50.2106 H         1 UNK         0.0600 
    132 H132        0.8230  -14.8727  -49.6097 H         1 UNK         0.0800 
    133 H133       -0.6027  -14.4451  -48.7006 H         1 UNK         0.0800 
    134 H134       -0.3452  -15.4565  -53.0040 H         1 UNK         0.0800 
    135 H135        0.8740  -15.6204  -51.7763 H         1 UNK         0.0800 
    136 H136       -1.3357  -17.4859  -53.5573 H         1 UNK         0.1150 
    137 H137       -2.1826  -20.4807  -50.6192 H         1 UNK         0.1150 
    138 H138       -0.3681  -16.7990  -49.4327 H         1 UNK         0.1150 
    139 H139       -1.6054  -18.2509  -47.7905 H         1 UNK         0.0800 
    140 H140       -2.1396  -19.8431  -48.2770 H         1 UNK         0.0800 
    141 H141        0.6306  -19.8362  -45.5271 H         1 UNK         0.0800 
    142 H142       -1.0783  -19.6903  -45.7982 H         1 UNK         0.0800 
    143 H143        0.4076  -22.2665  -46.5120 H         1 UNK         0.0600 
    144 H144        0.2489  -21.3336  -43.8945 H         1 UNK         0.3000 
    145 H145        0.2507  -24.5018  -42.2091 H         1 UNK         0.0600 
    146 H146        2.2317  -23.3162  -41.2596 H         1 UNK         0.0600 
    147 H147        2.5619  -23.9423  -42.8677 H         1 UNK         0.0600 
    148 H148        2.2588  -22.2264  -42.6447 H         1 UNK         0.0600 
    149 H149        0.0725  -21.6376  -41.5583 H         1 UNK         0.3000 
    150 H150       -3.3880  -21.7438  -40.8173 H         1 UNK         0.0600 
    151 H151       -2.4220  -22.6961  -38.7156 H         1 UNK         0.0600 
    152 H152       -2.6849  -20.9660  -38.5693 H         1 UNK         0.0600 
    153 H153       -1.0562  -21.5925  -38.8294 H         1 UNK         0.0600 
    154 H154       -1.4450  -19.7109  -40.4085 H         1 UNK         0.3000 
    155 H155       -1.3844  -18.4076  -43.7161 H         1 UNK         0.0600 
    156 H156       -2.2644  -16.3834  -42.6335 H         1 UNK         0.0600 
    157 H157       -2.6855  -17.2858  -41.1791 H         1 UNK         0.0600 
    158 H158       -3.5390  -17.5814  -42.6887 H         1 UNK         0.0600 
    159 H159       -0.1968  -17.3221  -41.4384 H         1 UNK         0.3000 
    160 H160        1.6893  -18.1868  -40.3056 H         1 UNK         0.0600 
    161 H161        3.4926  -20.0406  -41.9582 H         1 UNK         0.0600 
    162 H162        2.4839  -20.5619  -40.6124 H         1 UNK         0.0600 
    163 H163        3.8129  -19.4554  -40.3279 H         1 UNK         0.0600 
    164 H164        2.6475  -17.3057  -42.9064 H         1 UNK         0.3000 
    165 H165        5.0108  -14.9697  -41.3999 H         1 UNK         0.0600 
    166 H166        4.8910  -16.8442  -43.8185 H         1 UNK         0.0600 
    167 H167        6.0103  -15.5049  -43.5864 H         1 UNK         0.0600 
    168 H168        6.0917  -16.9106  -42.5355 H         1 UNK         0.0600 
    169 H169        3.5198  -14.7825  -43.8325 H         1 UNK         0.3000 
    170 H170        0.9532  -12.6319  -42.5917 H         1 UNK         0.0600 
    171 H171        2.8314  -11.0991  -43.1055 H         1 UNK         0.0600 
    172 H172        3.3240  -12.1034  -44.4609 H         1 UNK         0.0600 
    173 H173        1.7791  -11.2565  -44.5050 H         1 UNK         0.0600 
    174 H174        1.4493  -13.6536  -45.1956 H         1 UNK         0.3000 
    175 H175       -0.1852  -16.8166  -44.7772 H         1 UNK         0.0600 
    176 H176       -2.0201  -15.2474  -45.2709 H         1 UNK         0.0600 
    177 H177       -0.9779  -14.2860  -46.3077 H         1 UNK         0.0600 
    178 H178       -1.4113  -15.9348  -46.7680 H         1 UNK         0.0600 
    179 H179        1.1960  -15.4354  -46.9223 H         1 UNK         0.3000 
    180 H180        4.3426  -16.9840  -46.3343 H         1 UNK         0.0600 
    181 H181        2.2723  -17.5401  -48.5269 H         1 UNK         0.0600 
    182 H182        3.0818  -18.7550  -47.5432 H         1 UNK         0.0600 
    183 H183        4.0145  -17.7783  -48.6642 H         1 UNK         0.0600 
    184 H184        3.3733  -15.3071  -48.4360 H         1 UNK         0.3000 
    185 H185        3.9725  -12.1774  -46.8476 H         1 UNK         0.0600 
    186 H186        5.4396  -11.8517  -48.8150 H         1 UNK         0.0600 
    187 H187        6.2275  -12.8980  -47.6455 H         1 UNK         0.0600 
    188 H188        5.5074  -13.5924  -49.0930 H         1 UNK         0.0600 
    189 H189        3.1834  -12.7987  -49.4943 H         1 UNK         0.3000 
    190 H190       -2.4948  -21.8682  -44.4974 H         1 UNK         0.3000 
    191 H191       -4.4845  -22.3757  -46.3986 H         1 UNK         0.0600 
    192 H192       -5.8459  -23.0429  -44.3901 H         1 UNK         0.0600 
    193 H193       -4.9801  -21.5358  -44.1498 H         1 UNK         0.0600 
    194 H194       -4.3818  -23.0219  -43.4116 H         1 UNK         0.0600 
    195 H195       -2.2408  -24.6531  -44.9335 H         1 UNK         0.3000 
    196 H196       -3.7517  -27.0058  -45.9778 H         1 UNK         0.0600 
    197 H197       -2.1503  -28.3040  -44.5903 H         1 UNK         0.0600 
    198 H198       -3.0298  -27.1376  -43.6138 H         1 UNK         0.0600 
    199 H199       -1.3592  -26.8202  -44.0713 H         1 UNK         0.0600 
    200 H200       -0.4946  -25.4702  -45.9967 H         1 UNK         0.3000 
    201 H201        0.6796  -27.3411  -47.7617 H         1 UNK         0.0600 
    202 H202        1.9506  -25.9845  -46.1190 H         1 UNK         0.0600 
    203 H203        1.5621  -24.5072  -46.9978 H         1 UNK         0.0600 
    204 H204        2.5866  -25.7321  -47.7375 H         1 UNK         0.0600 
    205 H205       -0.8618  -24.1825  -48.4231 H         1 UNK         0.3000 
    206 H206       -0.3923  -24.5472  -51.3614 H         1 UNK         0.0600 
    207 H207        0.9027  -22.6576  -50.3707 H         1 UNK         0.0600 
    208 H208       -0.3446  -22.0756  -51.4591 H         1 UNK         0.0600 
    209 H209       -0.5830  -21.9765  -49.7182 H         1 UNK         0.0600 
    210 H210       -2.6854  -25.0805  -49.1764 H         1 UNK         0.3000 
    211 H211       -4.8782  -25.3052  -49.1268 H         1 UNK         0.0600 
    212 H212       -4.8603  -24.8867  -52.1553 H         1 UNK         0.0600 
    213 H213       -6.1101  -25.6849  -51.2132 H         1 UNK         0.0600 
    214 H214       -4.5171  -26.4106  -51.3374 H         1 UNK         0.0600 
    215 H215       -3.7452  -22.6045  -48.8381 H         1 UNK         0.3000 
    216 H216       -4.3736  -20.5961  -48.1883 H         1 UNK         0.0600 
    217 H217       -6.5186  -21.6674  -47.3031 H         1 UNK         0.0600 
    218 H218       -6.6830  -19.9751  -47.7340 H         1 UNK         0.0600 
    219 H219       -7.3106  -21.2122  -48.8070 H         1 UNK         0.0600 
    220 H220       -5.2055  -18.4575  -48.9552 H         1 UNK         0.3000 
    221 H221       -4.1815  -17.8968  -51.4901 H         1 UNK         0.0600 
    222 H222       -5.9797  -16.1948  -49.6930 H         1 UNK         0.0600 
    223 H223       -4.2161  -16.2752  -49.6390 H         1 UNK         0.0600 
    224 H224       -5.0203  -15.5887  -51.0390 H         1 UNK         0.0600 
    225 H225       -7.4176  -18.8367  -50.6970 H         1 UNK         0.3000 
    226 H226       -8.8667  -17.8781  -52.9404 H         1 UNK         0.0600 
    227 H227       -9.2766  -20.3703  -51.1987 H         1 UNK         0.0600 
    228 H228       -9.9393  -18.7654  -50.8843 H         1 UNK         0.0600 
    229 H229      -10.4782  -19.6798  -52.2831 H         1 UNK         0.0600 
    230 H230       -6.4941  -20.4768  -52.7115 H         1 UNK         0.3000 
    231 H231       -7.3134  -21.8207  -55.1688 H         1 UNK         0.0600 
    232 H232       -5.2769  -23.1597  -54.7798 H         1 UNK         0.0600 
    233 H233       -6.2079  -23.0386  -53.2946 H         1 UNK         0.0600 
    234 H234       -4.7563  -22.0685  -53.5064 H         1 UNK         0.0600 
    235 H235       -5.8279  -18.8678  -54.6046 H         1 UNK         0.3000 
    236 H236       -4.9626  -17.2939  -55.8071 H         1 UNK         0.0600 
    237 H237       -6.5929  -17.9191  -57.5666 H         1 UNK         0.0600 
    238 H238       -5.1120  -17.2877  -58.2695 H         1 UNK         0.0600 
    239 H239       -5.4214  -19.0164  -58.2959 H         1 UNK         0.0600 
    240 H240       -3.5284  -20.3981  -56.7802 H         1 UNK         0.3000 
    241 H241       -1.4536  -21.1307  -57.0323 H         1 UNK         0.0600 
    242 H242       -2.4065  -19.0330  -59.0899 H         1 UNK         0.3800 
    243 H243       -0.9224  -18.6639  -59.9297 H         1 UNK         0.3800 
    244 H244        0.4333  -20.0815  -55.6734 H         1 UNK         0.0800 
    245 H245       -0.6542  -18.8199  -55.1913 H         1 UNK         0.0800 
    246 H246       -3.0867  -20.6887  -52.7994 H         1 UNK         0.0800 
    247 H247       -3.0091  -19.3944  -53.9487 H         1 UNK         0.0800 
@<TRIPOS>BOND
     1    1    2 1    
     2    1  127 1    
     3    1  128 1    
     4    1  129 1    
     5    2    3 2    
     6    2    4 am   BACKBONE|DICT|INTERRES
     7    4    5 1    
     8    4  130 1    
     9    5    6 1    
    10    5   65 1    
    11    5  131 1    
    12    6    7 1    
    13    6  132 1    
    14    6  133 1    
    15    7    8 1    
    16    8    9 1    
    17    8  134 1    
    18    8  135 1    
    19    9   10 ar   
    20    9   14 ar   
    21   10   11 ar   
    22   10  136 1    
    23   11   12 ar   
    24   11  126 1    
    25   12   13 ar   
    26   12  137 1    
    27   13   14 ar   
    28   13   15 1    
    29   14  138 1    
    30   15   16 1    
    31   15  139 1    
    32   15  140 1    
    33   16   17 1    
    34   17   18 1    
    35   17  141 1    
    36   17  142 1    
    37   18   19 1    
    38   18   67 1    
    39   18  143 1    
    40   19   20 am   BACKBONE|DICT|INTERRES
    41   19  144 1    
    42   20   21 2    
    43   20   22 1    
    44   22   23 1    
    45   22   24 1    
    46   22  145 1    
    47   23  146 1    
    48   23  147 1    
    49   23  148 1    
    50   24   25 am   BACKBONE|DICT|INTERRES
    51   24  149 1    
    52   25   26 2    
    53   25   27 1    
    54   27   28 1    
    55   27   29 1    
    56   27  150 1    
    57   28  151 1    
    58   28  152 1    
    59   28  153 1    
    60   29   30 am   BACKBONE|DICT|INTERRES
    61   29  154 1    
    62   30   31 2    
    63   30   32 1    
    64   32   33 1    
    65   32   34 1    
    66   32  155 1    
    67   33  156 1    
    68   33  157 1    
    69   33  158 1    
    70   34   35 am   BACKBONE|DICT|INTERRES
    71   34  159 1    
    72   35   36 2    
    73   35   37 1    
    74   37   38 1    
    75   37   39 1    
    76   37  160 1    
    77   38  161 1    
    78   38  162 1    
    79   38  163 1    
    80   39   40 am   BACKBONE|DICT|INTERRES
    81   39  164 1    
    82   40   41 2    
    83   40   42 1    
    84   42   43 1    
    85   42   44 1    
    86   42  165 1    
    87   43  166 1    
    88   43  167 1    
    89   43  168 1    
    90   44   45 am   BACKBONE|DICT|INTERRES
    91   44  169 1    
    92   45   46 2    
    93   45   47 1    
    94   47   48 1    
    95   47   49 1    
    96   47  170 1    
    97   48  171 1    
    98   48  172 1    
    99   48  173 1    
   100   49   50 am   BACKBONE|DICT|INTERRES
   101   49  174 1    
   102   50   51 2    
   103   50   52 1    
   104   52   53 1    
   105   52   54 1    
   106   52  175 1    
   107   53  176 1    
   108   53  177 1    
   109   53  178 1    
   110   54   55 am   BACKBONE|DICT|INTERRES
   111   54  179 1    
   112   55   56 2    
   113   55   57 1    
   114   57   58 1    
   115   57   59 1    
   116   57  180 1    
   117   58  181 1    
   118   58  182 1    
   119   58  183 1    
   120   59   60 am   BACKBONE|DICT|INTERRES
   121   59  184 1    
   122   60   61 2    
   123   60   62 1    
   124   62   63 1    
   125   62   64 1    
   126   62  185 1    
   127   63  186 1    
   128   63  187 1    
   129   63  188 1    
   130   64   65 am   BACKBONE|DICT|INTERRES
   131   64  189 1    
   132   65   66 2    
   133   67   68 2    
   134   67   69 am   BACKBONE|DICT|INTERRES
   135   69   70 1    
   136   69  190 1    
   137   70   71 1    
   138   70   72 1    
   139   70  191 1    
   140   71  192 1    
   141   71  193 1    
   142   71  194 1    
   143   72   73 2    
   144   72   74 am   BACKBONE|DICT|INTERRES
   145   74   75 1    
   146   74  195 1    
   147   75   76 1    
   148   75   77 1    
   149   75  196 1    
   150   76  197 1    
   151   76  198 1    
   152   76  199 1    
   153   77   78 2    
   154   77   79 am   BACKBONE|DICT|INTERRES
   155   79   80 1    
   156   79  200 1    
   157   80   81 1    
   158   80   82 1    
   159   80  201 1    
   160   81  202 1    
   161   81  203 1    
   162   81  204 1    
   163   82   83 2    
   164   82   84 am   BACKBONE|DICT|INTERRES
   165   84   85 1    
   166   84  205 1    
   167   85   86 1    
   168   85   87 1    
   169   85  206 1    
   170   86  207 1    
   171   86  208 1    
   172   86  209 1    
   173   87   88 2    
   174   87   89 am   BACKBONE|DICT|INTERRES
   175   89   90 1    
   176   89  210 1    
   177   90   91 1    
   178   90   92 1    
   179   90  211 1    
   180   91  212 1    
   181   91  213 1    
   182   91  214 1    
   183   92   93 2    
   184   92   94 am   BACKBONE|DICT|INTERRES
   185   94   95 1    
   186   94  215 1    
   187   95   96 1    
   188   95   97 1    
   189   95  216 1    
   190   96  217 1    
   191   96  218 1    
   192   96  219 1    
   193   97   98 2    
   194   97   99 am   BACKBONE|DICT|INTERRES
   195   99  100 1    
   196   99  220 1    
   197  100  101 1    
   198  100  102 1    
   199  100  221 1    
   200  101  222 1    
   201  101  223 1    
   202  101  224 1    
   203  102  103 2    
   204  102  104 am   BACKBONE|DICT|INTERRES
   205  104  105 1    
   206  104  225 1    
   207  105  106 1    
   208  105  107 1    
   209  105  226 1    
   210  106  227 1    
   211  106  228 1    
   212  106  229 1    
   213  107  108 2    
   214  107  109 am   BACKBONE|DICT|INTERRES
   215  109  110 1    
   216  109  230 1    
   217  110  111 1    
   218  110  112 1    
   219  110  231 1    
   220  111  232 1    
   221  111  233 1    
   222  111  234 1    
   223  112  113 2    
   224  112  114 am   BACKBONE|DICT|INTERRES
   225  114  115 1    
   226  114  235 1    
   227  115  116 1    
   228  115  117 1    
   229  115  236 1    
   230  116  237 1    
   231  116  238 1    
   232  116  239 1    
   233  117  118 2    
   234  117  119 am   BACKBONE|DICT|INTERRES
   235  119  120 1    
   236  119  240 1    
   237  120  121 1    
   238  120  124 1    
   239  120  241 1    
   240  121  122 am   BACKBONE|DICT|INTERRES
   241  121  123 2    
   242  122  242 1    
   243  122  243 1    
   244  124  125 1    
   245  124  244 1    
   246  124  245 1    
   247  125  126 1    
   248  126  246 1    
   249  126  247 1    
@<TRIPOS>SUBSTRUCTURE
     1 UNK         1 GROUP             0       ****    0 ROOT    
