@<TRIPOS>MOLECULE
3R540
247   249    1
SMALL
USER_CHARGES


@<TRIPOS>ATOM
      1 CA          3.8111  -13.9038  -42.8318 C.3       0 UNK        -0.1800 
      2 C           2.6641  -13.1849  -43.5271 C.2       0 UNK         0.5000 
      3 O           2.5079  -11.9747  -43.3643 O.2       0 UNK        -0.5000 
      4 N           1.8668  -13.9232  -44.3036 N.am      1 UNK        -0.5000 
      5 CA          0.7792  -13.4060  -45.1284 C.3       1 UNK         0.1400 
      6 C6         -0.3146  -14.4714  -45.3767 C.3       23 UNK        -0.0398 
      7 S7         -1.1421  -15.0132  -43.8438 S.3       23 UNK        -0.2404 
      8 C8         -2.8969  -14.6673  -44.2018 C.3       23 UNK        -0.0205 
      9 C9         -3.3895  -15.3648  -45.4644 C.ar      23 UNK        -0.0193 
     10 C10        -3.8889  -14.6117  -46.5338 C.ar      23 UNK        -0.1150 
     11 C11        -4.3149  -15.2394  -47.7083 C.ar      23 UNK        -0.0193 
     12 C12        -4.2323  -16.6305  -47.8063 C.ar      23 UNK        -0.1150 
     13 C13        -3.7414  -17.3943  -46.7463 C.ar      23 UNK        -0.0193 
     14 C14        -3.3315  -16.7586  -45.5718 C.ar      23 UNK        -0.1150 
     15 C15        -3.6345  -18.9010  -46.8964 C.3       23 UNK        -0.0205 
     16 S16        -2.0103  -19.3575  -47.5733 S.3       23 UNK        -0.2404 
     17 C17        -1.1112  -19.8554  -46.0706 C.3       23 UNK        -0.0398 
     18 CA         -0.8510  -21.3805  -46.0153 C.3       11 UNK         0.1400 
     19 N           0.1687  -21.6949  -45.0155 N.am      11 UNK        -0.5000 
     20 C           0.7390  -22.8918  -44.8315 C.2       10 UNK         0.5000 
     21 O           0.4988  -23.8832  -45.5185 O.2       10 UNK        -0.5000 
     22 CA          1.6969  -23.0092  -43.6349 C.3       10 UNK         0.1400 
     23 CB          3.0779  -22.4253  -43.9718 C.3       10 UNK        -0.1800 
     24 N           1.1553  -22.3483  -42.4468 N.am      10 UNK        -0.5000 
     25 C           0.0902  -22.7863  -41.7604 C.2       9 UNK         0.5000 
     26 O          -0.5212  -23.8189  -42.0336 O.2       9 UNK        -0.5000 
     27 CA         -0.3930  -21.9033  -40.5955 C.3       9 UNK         0.1400 
     28 CB          0.4136  -22.1979  -39.3222 C.3       9 UNK        -0.1800 
     29 N          -0.3165  -20.4729  -40.8981 N.am      9 UNK        -0.5000 
     30 C          -1.0730  -19.8508  -41.8134 C.2       8 UNK         0.5000 
     31 O          -1.9237  -20.4158  -42.4982 O.2       8 UNK        -0.5000 
     32 CA         -0.7931  -18.3540  -42.0385 C.3       8 UNK         0.1400 
     33 CB         -1.5123  -17.5077  -40.9773 C.3       8 UNK        -0.1800 
     34 N           0.6347  -18.0210  -42.0470 N.am      8 UNK        -0.5000 
     35 C           1.5309  -18.5447  -42.8932 C.2       7 UNK         0.5000 
     36 O           1.2632  -19.4239  -43.7150 O.2       7 UNK        -0.5000 
     37 CA          2.9794  -18.0398  -42.7657 C.3       7 UNK         0.1400 
     38 CB          3.7360  -18.8634  -41.7128 C.3       7 UNK        -0.1800 
     39 N           3.6968  -18.1281  -44.0388 N.am      7 UNK        -0.5000 
     40 C           3.3968  -17.4058  -45.1239 C.2       6 UNK         0.5000 
     41 O           2.5508  -16.5081  -45.1352 O.2       6 UNK        -0.5000 
     42 CA          4.1561  -17.7530  -46.4105 C.3       6 UNK         0.1400 
     43 CB          3.5925  -19.0387  -47.0442 C.3       6 UNK        -0.1800 
     44 N           4.0125  -16.6442  -47.3455 N.am      6 UNK        -0.5000 
     45 C           4.8410  -16.3383  -48.3503 C.2       5 UNK         0.5000 
     46 O           5.8792  -16.9569  -48.5926 O.2       5 UNK        -0.5000 
     47 CA          4.4142  -15.1427  -49.2305 C.3       5 UNK         0.1400 
     48 CB          5.1849  -15.0482  -50.5635 C.3       5 UNK        -0.1800 
     49 N           2.9634  -15.1200  -49.4442 N.am      5 UNK        -0.5000 
     50 C           2.2180  -16.0430  -50.0721 C.2       4 UNK         0.5000 
     51 O           2.6803  -16.9858  -50.7139 O.2       4 UNK        -0.5000 
     52 CA          0.6931  -15.9122  -49.9270 C.3       4 UNK         0.1400 
     53 CB          0.2214  -16.7300  -48.7139 C.3       4 UNK        -0.1800 
     54 N           0.2741  -14.5217  -49.7442 N.am      4 UNK        -0.5000 
     55 C          -0.2787  -13.7601  -50.6977 C.2       3 UNK         0.5000 
     56 O          -0.5128  -14.1556  -51.8393 O.2       3 UNK        -0.5000 
     57 CA         -0.6551  -12.3131  -50.3179 C.3       3 UNK         0.1400 
     58 CB         -2.1522  -12.2222  -49.9878 C.3       3 UNK        -0.1800 
     59 N           0.1047  -11.7886  -49.1824 N.am      3 UNK        -0.5000 
     60 C           1.3957  -11.4327  -49.2210 C.2       2 UNK         0.5000 
     61 O           2.0823  -11.4571  -50.2424 O.2       2 UNK        -0.5000 
     62 CA          2.0360  -11.0069  -47.8835 C.3       2 UNK         0.1400 
     63 CB          1.9897   -9.4793  -47.7285 C.3       2 UNK        -0.1800 
     64 N           1.4318  -11.6277  -46.6972 N.am      2 UNK        -0.5000 
     65 C           1.3900  -12.9455  -46.4615 C.2       1 UNK         0.5000 
     66 O           1.8090  -13.7907  -47.2553 O.2       1 UNK        -0.5000 
     67 C          -2.1453  -22.1993  -45.7983 C.2       11 UNK         0.5000 
     68 O          -2.7009  -22.7262  -46.7612 O.2       11 UNK        -0.5000 
     69 N          -2.5817  -22.3300  -44.5367 N.am      12 UNK        -0.5000 
     70 CA         -3.7327  -23.1438  -44.1423 C.3       12 UNK         0.1400 
     71 CB         -4.0880  -22.8556  -42.6761 C.3       12 UNK        -0.1800 
     72 C          -3.5154  -24.6534  -44.3602 C.2       12 UNK         0.5000 
     73 O          -4.4662  -25.3514  -44.7131 O.2       12 UNK        -0.5000 
     74 N          -2.2809  -25.1320  -44.1509 N.am      13 UNK        -0.5000 
     75 CA         -1.8834  -26.5170  -44.3992 C.3       13 UNK         0.1400 
     76 CB         -0.5485  -26.8093  -43.6959 C.3       13 UNK        -0.1800 
     77 C          -1.8025  -26.8282  -45.9043 C.2       13 UNK         0.5000 
     78 O          -2.4324  -27.7796  -46.3685 O.2       13 UNK        -0.5000 
     79 N          -1.0562  -26.0042  -46.6497 N.am      14 UNK        -0.5000 
     80 CA         -0.8665  -26.1094  -48.0965 C.3       14 UNK         0.1400 
     81 CB          0.5270  -25.5599  -48.4519 C.3       14 UNK        -0.1800 
     82 C          -2.0001  -25.3941  -48.8585 C.2       14 UNK         0.5000 
     83 O          -1.7378  -24.4865  -49.6462 O.2       14 UNK        -0.5000 
     84 N          -3.2455  -25.8126  -48.5981 N.am      15 UNK        -0.5000 
     85 CA         -4.4748  -25.1861  -49.0938 C.3       15 UNK         0.1400 
     86 CB         -5.6530  -25.6827  -48.2423 C.3       15 UNK        -0.1800 
     87 C          -4.7669  -25.4103  -50.5930 C.2       15 UNK         0.5000 
     88 O          -5.6575  -24.7522  -51.1339 O.2       15 UNK        -0.5000 
     89 N          -4.0413  -26.3316  -51.2403 N.am      16 UNK        -0.5000 
     90 CA         -4.1721  -26.6651  -52.6608 C.3       16 UNK         0.1400 
     91 CB         -3.2316  -27.8365  -52.9814 C.3       16 UNK        -0.1800 
     92 C          -3.8775  -25.4709  -53.5917 C.2       16 UNK         0.5000 
     93 O          -3.0049  -24.6573  -53.2827 O.2       16 UNK        -0.5000 
     94 N          -4.6030  -25.4086  -54.7190 N.am      17 UNK        -0.5000 
     95 CA         -4.5069  -24.3952  -55.7796 C.3       17 UNK         0.1400 
     96 CB         -3.1693  -24.5322  -56.5374 C.3       17 UNK        -0.1800 
     97 C          -4.7581  -22.9643  -55.2581 C.2       17 UNK         0.5000 
     98 O          -3.9298  -22.0741  -55.4601 O.2       17 UNK        -0.5000 
     99 N          -5.8818  -22.7884  -54.5428 N.am      18 UNK        -0.5000 
    100 CA        -6.3061  -21.5537  -53.8597 C.3       18 UNK         0.1400 
    101 CB        -6.6485  -20.4552  -54.8879 C.3       18 UNK        -0.1800 
    102 C         -5.2846  -21.0827  -52.7998 C.2       18 UNK         0.5000 
    103 O         -5.0774  -19.8807  -52.6123 O.2       18 UNK        -0.5000 
    104 N         -4.6187  -22.0645  -52.1760 N.am      19 UNK        -0.5000 
    105 CA        -3.4887  -21.9568  -51.2511 C.3       19 UNK         0.1400 
    106 CB        -3.9469  -21.3118  -49.9308 C.3       19 UNK        -0.1800 
    107 C         -2.2401  -21.2705  -51.8496 C.2       19 UNK         0.5000 
    108 O         -1.3725  -20.8280  -51.0962 O.2       19 UNK        -0.5000 
    109 N         -2.1870  -21.1606  -53.1892 N.am      20 UNK        -0.5000 
    110 CA        -1.2625  -20.3403  -53.9793 C.3       20 UNK         0.1400 
    111 CB         0.1630  -20.9276  -53.9337 C.3       20 UNK        -0.1800 
    112 C         -1.3183  -18.8445  -53.5882 C.2       20 UNK         0.5000 
    113 O         -0.3026  -18.1497  -53.6565 O.2       20 UNK        -0.5000 
    114 N         -2.5011  -18.3879  -53.1566 N.am      21 UNK        -0.5000 
    115 CA        -2.7285  -17.0955  -52.5267 C.3       21 UNK         0.1400 
    116 CB        -2.5923  -17.2696  -50.9993 C.3       21 UNK        -0.1800 
    117 C         -4.0913  -16.5405  -52.9789 C.2       21 UNK         0.5000 
    118 O         -4.3962  -16.5729  -54.1728 O.2       21 UNK        -0.5000 
    119 N         -4.8774  -16.0236  -52.0284 N.am      22 UNK        -0.5000 
    120 CA        -6.2004  -15.4146  -52.2347 C.3       22 UNK         0.1400 
    121 C         -7.3802  -16.4220  -52.3899 C.2       22 UNK         0.5000 
    122 N         -7.1694  -17.7305  -52.3222 N.am      22 UNK        -0.7600 
    123 O         -8.5183  -16.0060  -52.5904 O.2       22 UNK        -0.5000 
    124 C124       -6.4879  -14.3256  -51.1633 C.3       23 UNK        -0.0398 
    125 S125       -6.4714  -14.9520  -49.4445 S.3       23 UNK        -0.2404 
    126 C126       -4.8190  -14.4208  -48.8893 C.3       23 UNK        -0.0205 
    127 H127        4.7326  -13.3304  -42.9337 H         1 UNK         0.0600 
    128 H128        3.5939  -14.0186  -41.7700 H         1 UNK         0.0600 
    129 H129        3.9833  -14.8922  -43.2568 H         1 UNK         0.0600 
    130 H130        2.0855  -14.9051  -44.4644 H         1 UNK         0.3000 
    131 H131        0.3140  -12.5518  -44.6324 H         1 UNK         0.0600 
    132 H132       -1.0568  -14.0849  -46.0751 H         1 UNK         0.0800 
    133 H133        0.1077  -15.3602  -45.8454 H         1 UNK         0.0800 
    134 H134       -3.5006  -14.9984  -43.3562 H         1 UNK         0.0800 
    135 H135       -3.0341  -13.5875  -44.2740 H         1 UNK         0.0800 
    136 H136       -3.9339  -13.5345  -46.4567 H         1 UNK         0.1150 
    137 H137       -4.5493  -17.1228  -48.7138 H         1 UNK         0.1150 
    138 H138       -2.9416  -17.3439  -44.7514 H         1 UNK         0.1150 
    139 H139       -3.8184  -19.3997  -45.9438 H         1 UNK         0.0800 
    140 H140       -4.4076  -19.2612  -47.5765 H         1 UNK         0.0800 
    141 H141       -1.6258  -19.5086  -45.1737 H         1 UNK         0.0800 
    142 H142       -0.1604  -19.3204  -46.0885 H         1 UNK         0.0800 
    143 H143       -0.4386  -21.6852  -46.9800 H         1 UNK         0.0600 
    144 H144        0.4683  -20.9234  -44.4228 H         1 UNK         0.3000 
    145 H145        1.8227  -24.0703  -43.4087 H         1 UNK         0.0600 
    146 H146        3.0252  -21.3627  -44.2091 H         1 UNK         0.0600 
    147 H147        3.7716  -22.5491  -43.1402 H         1 UNK         0.0600 
    148 H148        3.5122  -22.9308  -44.8352 H         1 UNK         0.0600 
    149 H149        1.5639  -21.4617  -42.1931 H         1 UNK         0.3000 
    150 H150       -1.4383  -22.1529  -40.4017 H         1 UNK         0.0600 
    151 H151        0.3602  -23.2562  -39.0631 H         1 UNK         0.0600 
    152 H152        0.0264  -21.6366  -38.4717 H         1 UNK         0.0600 
    153 H153        1.4671  -21.9420  -39.4425 H         1 UNK         0.0600 
    154 H154        0.3639  -19.9313  -40.3860 H         1 UNK         0.3000 
    155 H155       -1.1963  -18.0879  -43.0176 H         1 UNK         0.0600 
    156 H156       -2.5843  -17.7092  -40.9798 H         1 UNK         0.0600 
    157 H157       -1.3844  -16.4420  -41.1659 H         1 UNK         0.0600 
    158 H158       -1.1405  -17.7166  -39.9735 H         1 UNK         0.0600 
    159 H159        0.9321  -17.3125  -41.3926 H         1 UNK         0.3000 
    160 H160        2.9591  -16.9949  -42.4510 H         1 UNK         0.0600 
    161 H161        4.7548  -18.4974  -41.5847 H         1 UNK         0.0600 
    162 H162        3.7908  -19.9174  -41.9879 H         1 UNK         0.0600 
    163 H163        3.2468  -18.8030  -40.7398 H         1 UNK         0.0600 
    164 H164        4.3832  -18.8637  -44.1150 H         1 UNK         0.3000 
    165 H165        5.2112  -17.8894  -46.1642 H         1 UNK         0.0600 
    166 H166        4.1279  -19.2982  -47.9576 H         1 UNK         0.0600 
    167 H167        3.6810  -19.8869  -46.3645 H         1 UNK         0.0600 
    168 H168        2.5363  -18.9297  -47.2962 H         1 UNK         0.0600 
    169 H169        3.2090  -16.0537  -47.1638 H         1 UNK         0.3000 
    170 H170        4.6465  -14.2459  -48.6546 H         1 UNK         0.0600 
    171 H171        6.2520  -14.9111  -50.3858 H         1 UNK         0.0600 
    172 H172        5.0698  -15.9483  -51.1673 H         1 UNK         0.0600 
    173 H173        4.8429  -14.1996  -51.1560 H         1 UNK         0.0600 
    174 H174        2.4710  -14.4367  -48.8771 H         1 UNK         0.3000 
    175 H175        0.2373  -16.3324  -50.8254 H         1 UNK         0.0600 
    176 H176       -0.8476  -16.6064  -48.5391 H         1 UNK         0.0600 
    177 H177        0.4053  -17.7935  -48.8700 H         1 UNK         0.0600 
    178 H178        0.7449  -16.4422  -47.8024 H         1 UNK         0.0600 
    179 H179        0.4719  -14.1082  -48.8428 H         1 UNK         0.3000 
    180 H180       -0.4574  -11.6835  -51.1879 H         1 UNK         0.0600 
    181 H181       -2.4574  -11.1890  -49.8227 H         1 UNK         0.0600 
    182 H182       -2.7605  -12.6125  -50.8049 H         1 UNK         0.0600 
    183 H183       -2.3953  -12.7909  -49.0902 H         1 UNK         0.0600 
    184 H184       -0.3838  -11.7159  -48.3026 H         1 UNK         0.3000 
    185 H185        3.0833  -11.3143  -47.9160 H         1 UNK         0.0600 
    186 H186        2.5263   -9.1565  -46.8362 H         1 UNK         0.0600 
    187 H187        2.4556   -8.9849  -48.5822 H         1 UNK         0.0600 
    188 H188        0.9649   -9.1132  -47.6562 H         1 UNK         0.0600 
    189 H189        1.0891  -10.9952  -45.9879 H         1 UNK         0.3000 
    190 H190       -2.1189  -21.8118  -43.7952 H         1 UNK         0.3000 
    191 H191       -4.5807  -22.8420  -44.7605 H         1 UNK         0.0600 
    192 H192       -3.2615  -23.0974  -42.0074 H         1 UNK         0.0600 
    193 H193       -4.9506  -23.4432  -42.3594 H         1 UNK         0.0600 
    194 H194       -4.3404  -21.8051  -42.5311 H         1 UNK         0.0600 
    195 H195       -1.5649  -24.5046  -43.8046 H         1 UNK         0.3000 
    196 H196       -2.6392  -27.1737  -43.9631 H         1 UNK         0.0600 
    197 H197        0.2526  -26.1638  -44.0563 H         1 UNK         0.0600 
    198 H198       -0.2382  -27.8417  -43.8612 H         1 UNK         0.0600 
    199 H199       -0.6327  -26.6633  -42.6188 H         1 UNK         0.0600 
    200 H200       -0.5894  -25.2200  -46.1979 H         1 UNK         0.3000 
    201 H201       -0.8894  -27.1609  -48.3896 H         1 UNK         0.0600 
    202 H202        0.6145  -24.4998  -48.2101 H         1 UNK         0.0600 
    203 H203        0.7325  -25.6727  -49.5171 H         1 UNK         0.0600 
    204 H204        1.3102  -26.0912  -47.9113 H         1 UNK         0.0600 
    205 H205       -3.3569  -26.5631  -47.9269 H         1 UNK         0.3000 
    206 H206       -4.3820  -24.1092  -48.9429 H         1 UNK         0.0600 
    207 H207       -5.5104  -25.4338  -47.1913 H         1 UNK         0.0600 
    208 H208       -6.5896  -25.2205  -48.5569 H         1 UNK         0.0600 
    209 H209       -5.7769  -26.7634  -48.3188 H         1 UNK         0.0600 
    210 H210       -3.3118  -26.8034  -50.7283 H         1 UNK         0.3000 
    211 H211       -5.2010  -26.9902  -52.8278 H         1 UNK         0.0600 
    212 H212       -2.1884  -27.5735  -52.8016 H         1 UNK         0.0600 
    213 H213       -3.3191  -28.1346  -54.0270 H         1 UNK         0.0600 
    214 H214       -3.4675  -28.7110  -52.3749 H         1 UNK         0.0600 
    215 H215       -5.2973  -26.1264  -54.8758 H         1 UNK         0.3000 
    216 H216       -5.3080  -24.6075  -56.4891 H         1 UNK         0.0600 
    217 H217       -3.0371  -25.5427  -56.9237 H         1 UNK         0.0600 
    218 H218       -3.1323  -23.8522  -57.3893 H         1 UNK         0.0600 
    219 H219       -2.3146  -24.3027  -55.9000 H         1 UNK         0.0600 
    220 H220       -6.4846  -23.5885  -54.4083 H         1 UNK         0.3000 
    221 H221       -7.2199  -21.7973  -53.3162 H         1 UNK         0.0600 
    222 H222       -5.7605  -20.0928  -55.4067 H         1 UNK         0.0600 
    223 H223       -7.3496  -20.8211  -55.6378 H         1 UNK         0.0600 
    224 H224       -7.1134  -19.5965  -54.4049 H         1 UNK         0.0600 
    225 H225       -4.8769  -23.0163  -52.4039 H         1 UNK         0.3000 
    226 H226       -3.1903  -22.9803  -51.0396 H         1 UNK         0.0600 
    227 H227       -4.8732  -21.7562  -49.5674 H         1 UNK         0.0600 
    228 H228       -3.1945  -21.4621  -49.1576 H         1 UNK         0.0600 
    229 H229       -4.1060  -20.2386  -50.0380 H         1 UNK         0.0600 
    230 H230       -2.9352  -21.5847  -53.7275 H         1 UNK         0.3000 
    231 H231       -1.6119  -20.3982  -55.0110 H         1 UNK         0.0600 
    232 H232        0.1634  -21.9813  -54.2127 H         1 UNK         0.0600 
    233 H233        0.6040  -20.8428  -52.9400 H         1 UNK         0.0600 
    234 H234        0.8226  -20.4077  -54.6294 H         1 UNK         0.0600 
    235 H235       -3.3031  -19.0107  -53.1586 H         1 UNK         0.3000 
    236 H236       -1.9757  -16.3806  -52.8639 H         1 UNK         0.0600 
    237 H237       -2.6043  -16.3103  -50.4819 H         1 UNK         0.0600 
    238 H238       -3.3881  -17.8941  -50.5935 H         1 UNK         0.0600 
    239 H239       -1.6524  -17.7575  -50.7442 H         1 UNK         0.0600 
    240 H240       -4.5757  -16.0828  -51.0683 H         1 UNK         0.3000 
    241 H241       -6.1625  -14.8937  -53.1932 H         1 UNK         0.0600 
    242 H242       -7.9560  -18.3506  -52.4206 H         1 UNK         0.3800 
    243 H243       -6.2406  -18.1198  -52.2258 H         1 UNK         0.3800 
    244 H244       -5.7593  -13.5192  -51.2579 H         1 UNK         0.0800 
    245 H245       -7.4558  -13.8559  -51.3458 H         1 UNK         0.0800 
    246 H246       -4.1026  -14.5213  -49.7041 H         1 UNK         0.0800 
    247 H247       -4.8599  -13.3592  -48.6401 H         1 UNK         0.0800 
@<TRIPOS>BOND
     1    1    2 1    
     2    1  127 1    
     3    1  128 1    
     4    1  129 1    
     5    2    3 2    
     6    2    4 am   BACKBONE|DICT|INTERRES
     7    4    5 1    
     8    4  130 1    
     9    5    6 1    
    10    5   65 1    
    11    5  131 1    
    12    6    7 1    
    13    6  132 1    
    14    6  133 1    
    15    7    8 1    
    16    8    9 1    
    17    8  134 1    
    18    8  135 1    
    19    9   10 ar   
    20    9   14 ar   
    21   10   11 ar   
    22   10  136 1    
    23   11   12 ar   
    24   11  126 1    
    25   12   13 ar   
    26   12  137 1    
    27   13   14 ar   
    28   13   15 1    
    29   14  138 1    
    30   15   16 1    
    31   15  139 1    
    32   15  140 1    
    33   16   17 1    
    34   17   18 1    
    35   17  141 1    
    36   17  142 1    
    37   18   19 1    
    38   18   67 1    
    39   18  143 1    
    40   19   20 am   BACKBONE|DICT|INTERRES
    41   19  144 1    
    42   20   21 2    
    43   20   22 1    
    44   22   23 1    
    45   22   24 1    
    46   22  145 1    
    47   23  146 1    
    48   23  147 1    
    49   23  148 1    
    50   24   25 am   BACKBONE|DICT|INTERRES
    51   24  149 1    
    52   25   26 2    
    53   25   27 1    
    54   27   28 1    
    55   27   29 1    
    56   27  150 1    
    57   28  151 1    
    58   28  152 1    
    59   28  153 1    
    60   29   30 am   BACKBONE|DICT|INTERRES
    61   29  154 1    
    62   30   31 2    
    63   30   32 1    
    64   32   33 1    
    65   32   34 1    
    66   32  155 1    
    67   33  156 1    
    68   33  157 1    
    69   33  158 1    
    70   34   35 am   BACKBONE|DICT|INTERRES
    71   34  159 1    
    72   35   36 2    
    73   35   37 1    
    74   37   38 1    
    75   37   39 1    
    76   37  160 1    
    77   38  161 1    
    78   38  162 1    
    79   38  163 1    
    80   39   40 am   BACKBONE|DICT|INTERRES
    81   39  164 1    
    82   40   41 2    
    83   40   42 1    
    84   42   43 1    
    85   42   44 1    
    86   42  165 1    
    87   43  166 1    
    88   43  167 1    
    89   43  168 1    
    90   44   45 am   BACKBONE|DICT|INTERRES
    91   44  169 1    
    92   45   46 2    
    93   45   47 1    
    94   47   48 1    
    95   47   49 1    
    96   47  170 1    
    97   48  171 1    
    98   48  172 1    
    99   48  173 1    
   100   49   50 am   BACKBONE|DICT|INTERRES
   101   49  174 1    
   102   50   51 2    
   103   50   52 1    
   104   52   53 1    
   105   52   54 1    
   106   52  175 1    
   107   53  176 1    
   108   53  177 1    
   109   53  178 1    
   110   54   55 am   BACKBONE|DICT|INTERRES
   111   54  179 1    
   112   55   56 2    
   113   55   57 1    
   114   57   58 1    
   115   57   59 1    
   116   57  180 1    
   117   58  181 1    
   118   58  182 1    
   119   58  183 1    
   120   59   60 am   BACKBONE|DICT|INTERRES
   121   59  184 1    
   122   60   61 2    
   123   60   62 1    
   124   62   63 1    
   125   62   64 1    
   126   62  185 1    
   127   63  186 1    
   128   63  187 1    
   129   63  188 1    
   130   64   65 am   BACKBONE|DICT|INTERRES
   131   64  189 1    
   132   65   66 2    
   133   67   68 2    
   134   67   69 am   BACKBONE|DICT|INTERRES
   135   69   70 1    
   136   69  190 1    
   137   70   71 1    
   138   70   72 1    
   139   70  191 1    
   140   71  192 1    
   141   71  193 1    
   142   71  194 1    
   143   72   73 2    
   144   72   74 am   BACKBONE|DICT|INTERRES
   145   74   75 1    
   146   74  195 1    
   147   75   76 1    
   148   75   77 1    
   149   75  196 1    
   150   76  197 1    
   151   76  198 1    
   152   76  199 1    
   153   77   78 2    
   154   77   79 am   BACKBONE|DICT|INTERRES
   155   79   80 1    
   156   79  200 1    
   157   80   81 1    
   158   80   82 1    
   159   80  201 1    
   160   81  202 1    
   161   81  203 1    
   162   81  204 1    
   163   82   83 2    
   164   82   84 am   BACKBONE|DICT|INTERRES
   165   84   85 1    
   166   84  205 1    
   167   85   86 1    
   168   85   87 1    
   169   85  206 1    
   170   86  207 1    
   171   86  208 1    
   172   86  209 1    
   173   87   88 2    
   174   87   89 am   BACKBONE|DICT|INTERRES
   175   89   90 1    
   176   89  210 1    
   177   90   91 1    
   178   90   92 1    
   179   90  211 1    
   180   91  212 1    
   181   91  213 1    
   182   91  214 1    
   183   92   93 2    
   184   92   94 am   BACKBONE|DICT|INTERRES
   185   94   95 1    
   186   94  215 1    
   187   95   96 1    
   188   95   97 1    
   189   95  216 1    
   190   96  217 1    
   191   96  218 1    
   192   96  219 1    
   193   97   98 2    
   194   97   99 am   BACKBONE|DICT|INTERRES
   195   99  100 1    
   196   99  220 1    
   197  100  101 1    
   198  100  102 1    
   199  100  221 1    
   200  101  222 1    
   201  101  223 1    
   202  101  224 1    
   203  102  103 2    
   204  102  104 am   BACKBONE|DICT|INTERRES
   205  104  105 1    
   206  104  225 1    
   207  105  106 1    
   208  105  107 1    
   209  105  226 1    
   210  106  227 1    
   211  106  228 1    
   212  106  229 1    
   213  107  108 2    
   214  107  109 am   BACKBONE|DICT|INTERRES
   215  109  110 1    
   216  109  230 1    
   217  110  111 1    
   218  110  112 1    
   219  110  231 1    
   220  111  232 1    
   221  111  233 1    
   222  111  234 1    
   223  112  113 2    
   224  112  114 am   BACKBONE|DICT|INTERRES
   225  114  115 1    
   226  114  235 1    
   227  115  116 1    
   228  115  117 1    
   229  115  236 1    
   230  116  237 1    
   231  116  238 1    
   232  116  239 1    
   233  117  118 2    
   234  117  119 am   BACKBONE|DICT|INTERRES
   235  119  120 1    
   236  119  240 1    
   237  120  121 1    
   238  120  124 1    
   239  120  241 1    
   240  121  122 am   BACKBONE|DICT|INTERRES
   241  121  123 2    
   242  122  242 1    
   243  122  243 1    
   244  124  125 1    
   245  124  244 1    
   246  124  245 1    
   247  125  126 1    
   248  126  246 1    
   249  126  247 1    
@<TRIPOS>SUBSTRUCTURE
     1 UNK         1 GROUP             0       ****    0 ROOT    
