@<TRIPOS>MOLECULE
3R540
247   249    1
SMALL
USER_CHARGES


@<TRIPOS>ATOM
      1 CA          2.1443  -17.1759  -42.8185 C.3       0 UNK        -0.1800 
      2 C           2.5587  -15.8667  -43.4714 C.2       0 UNK         0.5000 
      3 O           2.1930  -14.7956  -42.9898 O.2       0 UNK        -0.5000 
      4 N           3.3308  -15.9403  -44.5625 N.am      1 UNK        -0.5000 
      5 CA          3.7749  -14.7834  -45.3542 C.3       1 UNK         0.1400 
      6 C6          4.3551  -15.1974  -46.7276 C.3       23 UNK        -0.0398 
      7 S7          3.1885  -16.2185  -47.6912 S.3       23 UNK        -0.2404 
      8 C8          3.8897  -16.0653  -49.3613 C.3       23 UNK        -0.0205 
      9 C9          3.3873  -17.1769  -50.2691 C.ar      23 UNK        -0.0193 
     10 C10         2.4724  -16.9151  -51.2943 C.ar      23 UNK        -0.1150 
     11 C11         2.0315  -17.9462  -52.1327 C.ar      23 UNK        -0.0193 
     12 C12         2.5215  -19.2417  -51.9416 C.ar      23 UNK        -0.1150 
     13 C13         3.4121  -19.5197  -50.9015 C.ar      23 UNK        -0.0193 
     14 C14         3.8507  -18.4806  -50.0785 C.ar      23 UNK        -0.1150 
     15 C15         3.8770  -20.9454  -50.6384 C.3       23 UNK        -0.0205 
     16 S16         2.4974  -22.0713  -50.2423 S.3       23 UNK        -0.2404 
     17 C17         1.5126  -21.0854  -49.0567 C.3       23 UNK        -0.0398 
     18 CA          0.6823  -21.9417  -48.0729 C.3       11 UNK         0.1400 
     19 N           0.0655  -21.1211  -47.0284 N.am      11 UNK        -0.5000 
     20 C          -0.4939  -21.6061  -45.9110 C.2       10 UNK         0.5000 
     21 O          -0.5063  -22.8002  -45.6133 O.2       10 UNK        -0.5000 
     22 CA         -1.1936  -20.5864  -44.9939 C.3       10 UNK         0.1400 
     23 CB         -0.1727  -19.9038  -44.0720 C.3       10 UNK        -0.1800 
     24 N          -1.9386  -19.5684  -45.7387 N.am      10 UNK        -0.5000 
     25 C          -2.9945  -19.8288  -46.5237 C.2       9 UNK         0.5000 
     26 O          -3.4700  -20.9530  -46.6747 O.2       9 UNK        -0.5000 
     27 CA         -3.5912  -18.6496  -47.3113 C.3       9 UNK         0.1400 
     28 CB         -4.5288  -17.8180  -46.4240 C.3       9 UNK        -0.1800 
     29 N          -2.5732  -17.7756  -47.8906 N.am      9 UNK        -0.5000 
     30 C          -1.6448  -18.1300  -48.7870 C.2       8 UNK         0.5000 
     31 O          -1.5473  -19.2695  -49.2420 O.2       8 UNK        -0.5000 
     32 CA         -0.6230  -17.0549  -49.2141 C.3       8 UNK         0.1400 
     33 CB         -1.1549  -16.1865  -50.3687 C.3       8 UNK        -0.1800 
     34 N          -0.1210  -16.2252  -48.1102 N.am      8 UNK        -0.5000 
     35 C          -0.7879  -15.3414  -47.3556 C.2       7 UNK         0.5000 
     36 O          -1.9701  -15.0333  -47.5238 O.2       7 UNK        -0.5000 
     37 CA         -0.0047  -14.7255  -46.1849 C.3       7 UNK         0.1400 
     38 CB          0.4309  -13.2923  -46.5262 C.3       7 UNK        -0.1800 
     39 N          -0.7756  -14.7027  -44.9433 N.am      7 UNK        -0.5000 
     40 C          -1.3715  -15.7493  -44.3523 C.2       6 UNK         0.5000 
     41 O          -1.3103  -16.9014  -44.7854 O.2       6 UNK        -0.5000 
     42 CA         -2.1511  -15.4712  -43.0485 C.3       6 UNK         0.1400 
     43 CB         -1.5710  -16.2866  -41.8820 C.3       6 UNK        -0.1800 
     44 N          -2.1345  -14.0570  -42.6708 N.am      6 UNK        -0.5000 
     45 C          -2.9329  -13.0974  -43.1504 C.2       5 UNK         0.5000 
     46 O          -3.8779  -13.3145  -43.9081 O.2       5 UNK        -0.5000 
     47 CA         -2.5789  -11.6431  -42.7711 C.3       5 UNK         0.1400 
     48 CB         -3.1661  -11.2606  -41.3989 C.3       5 UNK        -0.1800 
     49 N          -1.1401  -11.3308  -42.8596 N.am      5 UNK        -0.5000 
     50 C          -0.1317  -11.7886  -42.1018 C.2       4 UNK         0.5000 
     51 O          -0.2919  -12.5656  -41.1572 O.2       4 UNK        -0.5000 
     52 CA          1.2845  -11.3521  -42.5293 C.3       4 UNK         0.1400 
     53 CB          1.4987   -9.8306  -42.3898 C.3       4 UNK        -0.1800 
     54 N           2.3280  -12.1248  -41.8482 N.am      4 UNK        -0.5000 
     55 C           2.7305  -12.0478  -40.5705 C.2       3 UNK         0.5000 
     56 O           2.3740  -11.1792  -39.7732 O.2       3 UNK        -0.5000 
     57 CA          3.7032  -13.1433  -40.0969 C.3       3 UNK         0.1400 
     58 CB          2.9251  -14.3205  -39.4870 C.3       3 UNK        -0.1800 
     59 N           4.5541  -13.6454  -41.1773 N.am      3 UNK        -0.5000 
     60 C           5.6788  -13.0511  -41.5995 C.2       2 UNK         0.5000 
     61 O           6.1329  -12.0182  -41.1060 O.2       2 UNK        -0.5000 
     62 CA          6.4298  -13.7278  -42.7634 C.3       2 UNK         0.1400 
     63 CB          7.4914  -14.6989  -42.2243 C.3       2 UNK        -0.1800 
     64 N           5.5341  -14.4538  -43.6659 N.am      2 UNK        -0.5000 
     65 C           4.7531  -13.8702  -44.5859 C.2       1 UNK         0.5000 
     66 O           4.7584  -12.6610  -44.8172 O.2       1 UNK        -0.5000 
     67 C          -0.3790  -22.8004  -48.7894 C.2       11 UNK         0.5000 
     68 O          -0.1773  -24.0046  -48.9408 O.2       11 UNK        -0.5000 
     69 N          -1.5097  -22.1834  -49.1615 N.am      12 UNK        -0.5000 
     70 CA         -2.6510  -22.8545  -49.7836 C.3       12 UNK         0.1400 
     71 CB         -3.7074  -21.8123  -50.1721 C.3       12 UNK        -0.1800 
     72 C          -3.2642  -23.9539  -48.8958 C.2       12 UNK         0.5000 
     73 O          -3.5687  -25.0389  -49.3915 O.2       12 UNK        -0.5000 
     74 N          -3.3915  -23.6728  -47.5917 N.am      13 UNK        -0.5000 
     75 CA         -3.8467  -24.6219  -46.5766 C.3       13 UNK         0.1400 
     76 CB         -4.0730  -23.8853  -45.2478 C.3       13 UNK        -0.1800 
     77 C          -2.8796  -25.8052  -46.3873 C.2       13 UNK         0.5000 
     78 O          -3.3367  -26.9431  -46.2778 O.2       13 UNK        -0.5000 
     79 N          -1.5683  -25.5240  -46.3744 N.am      14 UNK        -0.5000 
     80 CA         -0.5078  -26.5284  -46.2697 C.3       14 UNK         0.1400 
     81 CB          0.8333  -25.8356  -45.9832 C.3       14 UNK        -0.1800 
     82 C          -0.4068  -27.4209  -47.5206 C.2       14 UNK         0.5000 
     83 O          -0.2427  -28.6346  -47.3892 O.2       14 UNK        -0.5000 
     84 N          -0.5221  -26.8090  -48.7070 N.am      15 UNK        -0.5000 
     85 CA         -0.5261  -27.4910  -50.0023 C.3       15 UNK         0.1400 
     86 CB         -0.3232  -26.4508  -51.1158 C.3       15 UNK        -0.1800 
     87 C          -1.8152  -28.2924  -50.2621 C.2       15 UNK         0.5000 
     88 O          -1.7751  -29.2678  -51.0129 O.2       15 UNK        -0.5000 
     89 N          -2.9266  -27.8490  -49.6557 N.am      16 UNK        -0.5000 
     90 CA         -4.3015  -28.3194  -49.8468 C.3       16 UNK         0.1400 
     91 CB         -4.4677  -29.7735  -49.3587 C.3       16 UNK        -0.1800 
     92 C          -4.7899  -28.0937  -51.2939 C.2       16 UNK         0.5000 
     93 O          -5.4792  -28.9436  -51.8614 O.2       16 UNK        -0.5000 
     94 N          -4.4069  -26.9477  -51.8675 N.am      17 UNK        -0.5000 
     95 CA         -4.6892  -26.5347  -53.2368 C.3       17 UNK         0.1400 
     96 CB         -3.7139  -27.2285  -54.2047 C.3       17 UNK        -0.1800 
     97 C          -4.5531  -25.0096  -53.3223 C.2       17 UNK         0.5000 
     98 O          -3.8178  -24.4231  -52.5266 O.2       17 UNK        -0.5000 
     99 N          -5.2566  -24.4019  -54.2889 N.am      18 UNK        -0.5000 
    100 CA        -5.3430  -22.9540  -54.5287 C.3       18 UNK         0.1400 
    101 CB        -3.9902  -22.3883  -55.0053 C.3       18 UNK        -0.1800 
    102 C         -5.9206  -22.1961  -53.3143 C.2       18 UNK         0.5000 
    103 O         -5.3841  -21.1637  -52.9033 O.2       18 UNK        -0.5000 
    104 N         -7.0179  -22.7437  -52.7673 N.am      19 UNK        -0.5000 
    105 CA        -7.7097  -22.3341  -51.5369 C.3       19 UNK         0.1400 
    106 CB        -8.8595  -23.3188  -51.2734 C.3       19 UNK        -0.1800 
    107 C         -8.2247  -20.8794  -51.5038 C.2       19 UNK         0.5000 
    108 O         -8.5586  -20.3810  -50.4290 O.2       19 UNK        -0.5000 
    109 N         -8.2355  -20.2084  -52.6622 N.am      20 UNK        -0.5000 
    110 CA        -8.4556  -18.7692  -52.8213 C.3       20 UNK         0.1400 
    111 CB        -8.7894  -18.4953  -54.2976 C.3       20 UNK        -0.1800 
    112 C         -7.2622  -17.8998  -52.3533 C.2       20 UNK         0.5000 
    113 O         -7.3263  -16.6796  -52.5013 O.2       20 UNK        -0.5000 
    114 N         -6.2047  -18.5351  -51.8225 N.am      21 UNK        -0.5000 
    115 CA        -4.9292  -17.9773  -51.3687 C.3       21 UNK         0.1400 
    116 CB        -5.1180  -16.8427  -50.3385 C.3       21 UNK        -0.1800 
    117 C         -4.0614  -17.5953  -52.5775 C.2       21 UNK         0.5000 
    118 O         -3.7732  -16.4183  -52.7971 O.2       21 UNK        -0.5000 
    119 N         -3.6989  -18.6236  -53.3564 N.am      22 UNK        -0.5000 
    120 CA        -2.8885  -18.5544  -54.5885 C.3       22 UNK         0.1400 
    121 C         -3.6450  -17.9888  -55.8294 C.2       22 UNK         0.5000 
    122 N         -4.9484  -17.7463  -55.7632 N.am      22 UNK        -0.7600 
    123 O         -3.0493  -17.7983  -56.8862 O.2       22 UNK        -0.5000 
    124 C124       -1.4946  -17.8861  -54.4017 C.3       23 UNK        -0.0398 
    125 S125       -0.4828  -18.6568  -53.0943 S.3       23 UNK        -0.2404 
    126 C126        1.0370  -17.6622  -53.2505 C.3       23 UNK        -0.0205 
    127 H127        2.3448  -17.1431  -41.7477 H         1 UNK         0.0600 
    128 H128        2.6803  -18.0263  -43.2403 H         1 UNK         0.0600 
    129 H129        1.0775  -17.3408  -42.9627 H         1 UNK         0.0600 
    130 H130        3.5978  -16.8449  -44.9245 H         1 UNK         0.3000 
    131 H131        2.8952  -14.1714  -45.5476 H         1 UNK         0.0600 
    132 H132        4.6049  -14.3107  -47.3136 H         1 UNK         0.0800 
    133 H133        5.2826  -15.7591  -46.6024 H         1 UNK         0.0800 
    134 H134        3.6417  -15.0844  -49.7697 H         1 UNK         0.0800 
    135 H135        4.9784  -16.1155  -49.3090 H         1 UNK         0.0800 
    136 H136        2.1058  -15.9087  -51.4394 H         1 UNK         0.1150 
    137 H137        2.1801  -20.0436  -52.5814 H         1 UNK         0.1150 
    138 H138        4.5434  -18.6851  -49.2740 H         1 UNK         0.1150 
    139 H139        4.4018  -21.3203  -51.5180 H         1 UNK         0.0800 
    140 H140        4.5948  -20.9727  -49.8170 H         1 UNK         0.0800 
    141 H141        0.8707  -20.4065  -49.6206 H         1 UNK         0.0800 
    142 H142        2.1970  -20.4546  -48.4877 H         1 UNK         0.0800 
    143 H143        1.3709  -22.6281  -47.5749 H         1 UNK         0.0600 
    144 H144       -0.0188  -20.1333  -47.2148 H         1 UNK         0.3000 
    145 H145       -1.9038  -21.1340  -44.3710 H         1 UNK         0.0600 
    146 H146        0.4089  -20.6400  -43.5157 H         1 UNK         0.0600 
    147 H147        0.5278  -19.2857  -44.6348 H         1 UNK         0.0600 
    148 H148       -0.6698  -19.2659  -43.3420 H         1 UNK         0.0600 
    149 H149       -1.6448  -18.6029  -45.6116 H         1 UNK         0.3000 
    150 H150       -4.1777  -19.0623  -48.1342 H         1 UNK         0.0600 
    151 H151       -5.3166  -18.4403  -45.9974 H         1 UNK         0.0600 
    152 H152       -5.0132  -17.0263  -46.9958 H         1 UNK         0.0600 
    153 H153       -3.9927  -17.3517  -45.5967 H         1 UNK         0.0600 
    154 H154       -2.5630  -16.8092  -47.5751 H         1 UNK         0.3000 
    155 H155        0.2436  -17.5995  -49.5917 H         1 UNK         0.0600 
    156 H156       -1.9881  -15.5535  -50.0665 H         1 UNK         0.0600 
    157 H157       -1.5103  -16.8070  -51.1885 H         1 UNK         0.0600 
    158 H158       -0.3727  -15.5407  -50.7665 H         1 UNK         0.0600 
    159 H159        0.8502  -16.3929  -47.8778 H         1 UNK         0.3000 
    160 H160        0.8789  -15.3346  -45.9968 H         1 UNK         0.0600 
    161 H161       -0.4265  -12.6553  -46.7479 H         1 UNK         0.0600 
    162 H162        1.0829  -13.2821  -47.4007 H         1 UNK         0.0600 
    163 H163        0.9802  -12.8342  -45.7043 H         1 UNK         0.0600 
    164 H164       -0.9039  -13.8010  -44.5135 H         1 UNK         0.3000 
    165 H165       -3.1830  -15.7881  -43.2123 H         1 UNK         0.0600 
    166 H166       -2.1553  -16.1417  -40.9732 H         1 UNK         0.0600 
    167 H167       -1.5781  -17.3542  -42.1030 H         1 UNK         0.0600 
    168 H168       -0.5413  -15.9986  -41.6655 H         1 UNK         0.0600 
    169 H169       -1.3921  -13.7629  -42.0393 H         1 UNK         0.3000 
    170 H170       -3.0600  -11.0052  -43.5144 H         1 UNK         0.0600 
    171 H171       -4.2503  -11.3793  -41.3960 H         1 UNK         0.0600 
    172 H172       -2.7717  -11.8816  -40.5945 H         1 UNK         0.0600 
    173 H173       -2.9525  -10.2199  -41.1553 H         1 UNK         0.0600 
    174 H174       -0.9003  -10.7126  -43.6224 H         1 UNK         0.3000 
    175 H175        1.3872  -11.6059  -43.5850 H         1 UNK         0.0600 
    176 H176        1.2647   -9.4737  -41.3866 H         1 UNK         0.0600 
    177 H177        2.5292   -9.5548  -42.6139 H         1 UNK         0.0600 
    178 H178        0.8607   -9.2805  -43.0819 H         1 UNK         0.0600 
    179 H179        2.6127  -12.9590  -42.3510 H         1 UNK         0.3000 
    180 H180        4.3352  -12.7154  -39.3156 H         1 UNK         0.0600 
    181 H181        2.2599  -14.7858  -40.2155 H         1 UNK         0.0600 
    182 H182        2.3094  -13.9875  -38.6505 H         1 UNK         0.0600 
    183 H183        3.6005  -15.0879  -39.1087 H         1 UNK         0.0600 
    184 H184        4.2290  -14.4690  -41.6613 H         1 UNK         0.3000 
    185 H185        6.9416  -12.9459  -43.3288 H         1 UNK         0.0600 
    186 H186        8.0728  -15.1374  -43.0355 H         1 UNK         0.0600 
    187 H187        8.1919  -14.1843  -41.5652 H         1 UNK         0.0600 
    188 H188        7.0419  -15.5129  -41.6541 H         1 UNK         0.0600 
    189 H189        5.4708  -15.4540  -43.5427 H         1 UNK         0.3000 
    190 H190       -1.5887  -21.1782  -49.0333 H         1 UNK         0.3000 
    191 H191       -2.2886  -23.3311  -50.6958 H         1 UNK         0.0600 
    192 H192       -4.0601  -21.2472  -49.3103 H         1 UNK         0.0600 
    193 H193       -4.5723  -22.2985  -50.6213 H         1 UNK         0.0600 
    194 H194       -3.3128  -21.1058  -50.9024 H         1 UNK         0.0600 
    195 H195       -3.1805  -22.7308  -47.2720 H         1 UNK         0.3000 
    196 H196       -4.8055  -25.0270  -46.9068 H         1 UNK         0.0600 
    197 H197       -4.4268  -24.5699  -44.4760 H         1 UNK         0.0600 
    198 H198       -4.8224  -23.1010  -45.3555 H         1 UNK         0.0600 
    199 H199       -3.1558  -23.4224  -44.8826 H         1 UNK         0.0600 
    200 H200       -1.2722  -24.5554  -46.4287 H         1 UNK         0.3000 
    201 H201       -0.7401  -27.1742  -45.4204 H         1 UNK         0.0600 
    202 H202        0.7933  -25.2717  -45.0511 H         1 UNK         0.0600 
    203 H203        1.1093  -25.1443  -46.7798 H         1 UNK         0.0600 
    204 H204        1.6379  -26.5656  -45.8876 H         1 UNK         0.0600 
    205 H205       -0.5827  -25.7927  -48.7297 H         1 UNK         0.3000 
    206 H206        0.3130  -28.1892  -50.0263 H         1 UNK         0.0600 
    207 H207        0.6155  -25.9117  -50.9865 H         1 UNK         0.0600 
    208 H208       -0.2941  -26.9265  -52.0968 H         1 UNK         0.0600 
    209 H209       -1.1306  -25.7169  -51.1309 H         1 UNK         0.0600 
    210 H210       -2.8476  -26.9914  -49.1215 H         1 UNK         0.3000 
    211 H211       -4.9258  -27.6875  -49.2135 H         1 UNK         0.0600 
    212 H212       -3.9246  -30.4797  -49.9871 H         1 UNK         0.0600 
    213 H213       -5.5172  -30.0694  -49.3681 H         1 UNK         0.0600 
    214 H214       -4.1077  -29.8876  -48.3361 H         1 UNK         0.0600 
    215 H215       -3.8993  -26.2600  -51.3185 H         1 UNK         0.3000 
    216 H216       -5.7161  -26.8070  -53.4890 H         1 UNK         0.0600 
    217 H217       -3.8921  -26.9157  -55.2342 H         1 UNK         0.0600 
    218 H218       -3.8253  -28.3124  -54.1719 H         1 UNK         0.0600 
    219 H219       -2.6766  -26.9925  -53.9629 H         1 UNK         0.0600 
    220 H220       -5.8188  -24.9759  -54.9021 H         1 UNK         0.3000 
    221 H221       -6.0573  -22.8186  -55.3421 H         1 UNK         0.0600 
    222 H222       -3.5858  -22.9727  -55.8316 H         1 UNK         0.0600 
    223 H223       -3.2473  -22.3758  -54.2068 H         1 UNK         0.0600 
    224 H224       -4.1106  -21.3658  -55.3619 H         1 UNK         0.0600 
    225 H225       -7.3745  -23.5831  -53.2000 H         1 UNK         0.3000 
    226 H226       -6.9926  -22.4281  -50.7195 H         1 UNK         0.0600 
    227 H227       -8.4910  -24.3406  -51.1789 H         1 UNK         0.0600 
    228 H228       -9.3797  -23.0779  -50.3452 H         1 UNK         0.0600 
    229 H229       -9.5963  -23.2989  -52.0773 H         1 UNK         0.0600 
    230 H230       -7.9369  -20.7063  -53.4877 H         1 UNK         0.3000 
    231 H231       -9.3183  -18.4831  -52.2164 H         1 UNK         0.0600 
    232 H232       -9.0192  -17.4418  -54.4621 H         1 UNK         0.0600 
    233 H233       -9.6612  -19.0668  -54.6171 H         1 UNK         0.0600 
    234 H234       -7.9579  -18.7568  -54.9531 H         1 UNK         0.0600 
    235 H235       -6.2297  -19.5475  -51.8500 H         1 UNK         0.3000 
    236 H236       -4.4079  -18.7866  -50.8547 H         1 UNK         0.0600 
    237 H237       -4.1607  -16.5438  -49.9143 H         1 UNK         0.0600 
    238 H238       -5.5619  -15.9500  -50.7783 H         1 UNK         0.0600 
    239 H239       -5.7528  -17.1627  -49.5126 H         1 UNK         0.0600 
    240 H240       -4.0488  -19.5467  -53.1224 H         1 UNK         0.3000 
    241 H241       -2.6929  -19.5944  -54.8472 H         1 UNK         0.0600 
    242 H242       -5.4286  -17.3904  -56.5747 H         1 UNK         0.3800 
    243 H243       -5.4448  -17.8770  -54.8979 H         1 UNK         0.3800 
    244 H244       -1.6027  -16.8231  -54.1833 H         1 UNK         0.0800 
    245 H245       -0.9222  -17.9456  -55.3289 H         1 UNK         0.0800 
    246 H246        0.7685  -16.6047  -53.2596 H         1 UNK         0.0800 
    247 H247        1.5096  -17.8731  -54.2107 H         1 UNK         0.0800 
@<TRIPOS>BOND
     1    1    2 1    
     2    1  127 1    
     3    1  128 1    
     4    1  129 1    
     5    2    3 2    
     6    2    4 am   BACKBONE|DICT|INTERRES
     7    4    5 1    
     8    4  130 1    
     9    5    6 1    
    10    5   65 1    
    11    5  131 1    
    12    6    7 1    
    13    6  132 1    
    14    6  133 1    
    15    7    8 1    
    16    8    9 1    
    17    8  134 1    
    18    8  135 1    
    19    9   10 ar   
    20    9   14 ar   
    21   10   11 ar   
    22   10  136 1    
    23   11   12 ar   
    24   11  126 1    
    25   12   13 ar   
    26   12  137 1    
    27   13   14 ar   
    28   13   15 1    
    29   14  138 1    
    30   15   16 1    
    31   15  139 1    
    32   15  140 1    
    33   16   17 1    
    34   17   18 1    
    35   17  141 1    
    36   17  142 1    
    37   18   19 1    
    38   18   67 1    
    39   18  143 1    
    40   19   20 am   BACKBONE|DICT|INTERRES
    41   19  144 1    
    42   20   21 2    
    43   20   22 1    
    44   22   23 1    
    45   22   24 1    
    46   22  145 1    
    47   23  146 1    
    48   23  147 1    
    49   23  148 1    
    50   24   25 am   BACKBONE|DICT|INTERRES
    51   24  149 1    
    52   25   26 2    
    53   25   27 1    
    54   27   28 1    
    55   27   29 1    
    56   27  150 1    
    57   28  151 1    
    58   28  152 1    
    59   28  153 1    
    60   29   30 am   BACKBONE|DICT|INTERRES
    61   29  154 1    
    62   30   31 2    
    63   30   32 1    
    64   32   33 1    
    65   32   34 1    
    66   32  155 1    
    67   33  156 1    
    68   33  157 1    
    69   33  158 1    
    70   34   35 am   BACKBONE|DICT|INTERRES
    71   34  159 1    
    72   35   36 2    
    73   35   37 1    
    74   37   38 1    
    75   37   39 1    
    76   37  160 1    
    77   38  161 1    
    78   38  162 1    
    79   38  163 1    
    80   39   40 am   BACKBONE|DICT|INTERRES
    81   39  164 1    
    82   40   41 2    
    83   40   42 1    
    84   42   43 1    
    85   42   44 1    
    86   42  165 1    
    87   43  166 1    
    88   43  167 1    
    89   43  168 1    
    90   44   45 am   BACKBONE|DICT|INTERRES
    91   44  169 1    
    92   45   46 2    
    93   45   47 1    
    94   47   48 1    
    95   47   49 1    
    96   47  170 1    
    97   48  171 1    
    98   48  172 1    
    99   48  173 1    
   100   49   50 am   BACKBONE|DICT|INTERRES
   101   49  174 1    
   102   50   51 2    
   103   50   52 1    
   104   52   53 1    
   105   52   54 1    
   106   52  175 1    
   107   53  176 1    
   108   53  177 1    
   109   53  178 1    
   110   54   55 am   BACKBONE|DICT|INTERRES
   111   54  179 1    
   112   55   56 2    
   113   55   57 1    
   114   57   58 1    
   115   57   59 1    
   116   57  180 1    
   117   58  181 1    
   118   58  182 1    
   119   58  183 1    
   120   59   60 am   BACKBONE|DICT|INTERRES
   121   59  184 1    
   122   60   61 2    
   123   60   62 1    
   124   62   63 1    
   125   62   64 1    
   126   62  185 1    
   127   63  186 1    
   128   63  187 1    
   129   63  188 1    
   130   64   65 am   BACKBONE|DICT|INTERRES
   131   64  189 1    
   132   65   66 2    
   133   67   68 2    
   134   67   69 am   BACKBONE|DICT|INTERRES
   135   69   70 1    
   136   69  190 1    
   137   70   71 1    
   138   70   72 1    
   139   70  191 1    
   140   71  192 1    
   141   71  193 1    
   142   71  194 1    
   143   72   73 2    
   144   72   74 am   BACKBONE|DICT|INTERRES
   145   74   75 1    
   146   74  195 1    
   147   75   76 1    
   148   75   77 1    
   149   75  196 1    
   150   76  197 1    
   151   76  198 1    
   152   76  199 1    
   153   77   78 2    
   154   77   79 am   BACKBONE|DICT|INTERRES
   155   79   80 1    
   156   79  200 1    
   157   80   81 1    
   158   80   82 1    
   159   80  201 1    
   160   81  202 1    
   161   81  203 1    
   162   81  204 1    
   163   82   83 2    
   164   82   84 am   BACKBONE|DICT|INTERRES
   165   84   85 1    
   166   84  205 1    
   167   85   86 1    
   168   85   87 1    
   169   85  206 1    
   170   86  207 1    
   171   86  208 1    
   172   86  209 1    
   173   87   88 2    
   174   87   89 am   BACKBONE|DICT|INTERRES
   175   89   90 1    
   176   89  210 1    
   177   90   91 1    
   178   90   92 1    
   179   90  211 1    
   180   91  212 1    
   181   91  213 1    
   182   91  214 1    
   183   92   93 2    
   184   92   94 am   BACKBONE|DICT|INTERRES
   185   94   95 1    
   186   94  215 1    
   187   95   96 1    
   188   95   97 1    
   189   95  216 1    
   190   96  217 1    
   191   96  218 1    
   192   96  219 1    
   193   97   98 2    
   194   97   99 am   BACKBONE|DICT|INTERRES
   195   99  100 1    
   196   99  220 1    
   197  100  101 1    
   198  100  102 1    
   199  100  221 1    
   200  101  222 1    
   201  101  223 1    
   202  101  224 1    
   203  102  103 2    
   204  102  104 am   BACKBONE|DICT|INTERRES
   205  104  105 1    
   206  104  225 1    
   207  105  106 1    
   208  105  107 1    
   209  105  226 1    
   210  106  227 1    
   211  106  228 1    
   212  106  229 1    
   213  107  108 2    
   214  107  109 am   BACKBONE|DICT|INTERRES
   215  109  110 1    
   216  109  230 1    
   217  110  111 1    
   218  110  112 1    
   219  110  231 1    
   220  111  232 1    
   221  111  233 1    
   222  111  234 1    
   223  112  113 2    
   224  112  114 am   BACKBONE|DICT|INTERRES
   225  114  115 1    
   226  114  235 1    
   227  115  116 1    
   228  115  117 1    
   229  115  236 1    
   230  116  237 1    
   231  116  238 1    
   232  116  239 1    
   233  117  118 2    
   234  117  119 am   BACKBONE|DICT|INTERRES
   235  119  120 1    
   236  119  240 1    
   237  120  121 1    
   238  120  124 1    
   239  120  241 1    
   240  121  122 am   BACKBONE|DICT|INTERRES
   241  121  123 2    
   242  122  242 1    
   243  122  243 1    
   244  124  125 1    
   245  124  244 1    
   246  124  245 1    
   247  125  126 1    
   248  126  246 1    
   249  126  247 1    
@<TRIPOS>SUBSTRUCTURE
     1 UNK         1 GROUP             0       ****    0 ROOT    
