@<TRIPOS>MOLECULE
3R540
247   249    1
SMALL
USER_CHARGES


@<TRIPOS>ATOM
      1 CA         -1.1641  -13.4043  -50.3840 C.3       0 UNK        -0.1800 
      2 C          -0.2071  -14.1214  -49.4439 C.2       0 UNK         0.5000 
      3 O          -0.5605  -15.1637  -48.8960 O.2       0 UNK        -0.5000 
      4 N           0.9935  -13.5589  -49.2369 N.am      1 UNK        -0.5000 
      5 CA          2.1158  -14.1224  -48.4598 C.3       1 UNK         0.1400 
      6 C6          2.6818  -15.4287  -49.0800 C.3       23 UNK        -0.0398 
      7 S7          3.2964  -15.2245  -50.7882 S.3       23 UNK        -0.2404 
      8 C8          2.0101  -16.0629  -51.7813 C.3       23 UNK        -0.0205 
      9 C9          1.6874  -17.4943  -51.3525 C.ar      23 UNK        -0.0193 
     10 C10         0.3754  -17.9591  -51.4689 C.ar      23 UNK        -0.1150 
     11 C11         0.0436  -19.2612  -51.0883 C.ar      23 UNK        -0.0193 
     12 C12         1.0347  -20.1021  -50.5712 C.ar      23 UNK        -0.1150 
     13 C13         2.3563  -19.6533  -50.4389 C.ar      23 UNK        -0.0193 
     14 C14         2.6712  -18.3554  -50.8524 C.ar      23 UNK        -0.1150 
     15 C15         3.4879  -20.5246  -49.8855 C.3       23 UNK        -0.0205 
     16 S16         2.9903  -21.9828  -48.9045 S.3       23 UNK        -0.2404 
     17 C17         2.2244  -21.2064  -47.4438 C.3       23 UNK        -0.0398 
     18 CA          1.5949  -22.2790  -46.5191 C.3       11 UNK         0.1400 
     19 N           2.5886  -22.9164  -45.6511 N.am      11 UNK        -0.5000 
     20 C           2.5015  -24.1752  -45.1992 C.2       10 UNK         0.5000 
     21 O           1.5694  -24.9327  -45.4710 O.2       10 UNK        -0.5000 
     22 CA          3.6193  -24.6588  -44.2529 C.3       10 UNK         0.1400 
     23 CB          4.7440  -25.3335  -45.0521 C.3       10 UNK        -0.1800 
     24 N           4.1922  -23.5947  -43.4234 N.am      10 UNK        -0.5000 
     25 C           3.5074  -22.8694  -42.5288 C.2       9 UNK         0.5000 
     26 O           2.3096  -23.0355  -42.3039 O.2       9 UNK        -0.5000 
     27 CA          4.2572  -21.7463  -41.7857 C.3       9 UNK         0.1400 
     28 CB          5.7962  -21.8362  -41.8903 C.3       9 UNK        -0.1800 
     29 N           3.7909  -20.4217  -42.2050 N.am      9 UNK        -0.5000 
     30 C           3.8048  -19.9137  -43.4483 C.2       8 UNK         0.5000 
     31 O           4.1948  -20.5424  -44.4347 O.2       8 UNK        -0.5000 
     32 CA          3.2868  -18.4737  -43.6456 C.3       8 UNK         0.1400 
     33 CB          2.1268  -18.4489  -44.6415 C.3       8 UNK        -0.1800 
     34 N           2.8350  -17.8308  -42.4122 N.am      8 UNK        -0.5000 
     35 C           3.6333  -17.2155  -41.5310 C.2       7 UNK         0.5000 
     36 O           4.8509  -17.1027  -41.6754 O.2       7 UNK        -0.5000 
     37 CA          2.9651  -16.6455  -40.2629 C.3       7 UNK         0.1400 
     38 CB          2.6802  -15.1461  -40.4429 C.3       7 UNK        -0.1800 
     39 N           1.7186  -17.3138  -39.8762 N.am      7 UNK        -0.5000 
     40 C           1.5698  -18.6163  -39.5940 C.2       6 UNK         0.5000 
     41 O           2.4900  -19.4335  -39.6435 O.2       6 UNK        -0.5000 
     42 CA          0.1546  -19.0934  -39.2068 C.3       6 UNK         0.1400 
     43 CB          0.0620  -19.3011  -37.6875 C.3       6 UNK        -0.1800 
     44 N          -0.9303  -18.1982  -39.6269 N.am      6 UNK        -0.5000 
     45 C          -1.2598  -17.9038  -40.8924 C.2       5 UNK         0.5000 
     46 O          -0.6547  -18.3382  -41.8748 O.2       5 UNK        -0.5000 
     47 CA         -2.4402  -16.9326  -41.0618 C.3       5 UNK         0.1400 
     48 CB         -2.0229  -15.5063  -40.6624 C.3       5 UNK        -0.1800 
     49 N          -2.8900  -16.9047  -42.4505 N.am      5 UNK        -0.5000 
     50 C          -4.1357  -17.1532  -42.8790 C.2       4 UNK         0.5000 
     51 O          -5.0625  -17.4593  -42.1276 O.2       4 UNK        -0.5000 
     52 CA         -4.4202  -17.0175  -44.3923 C.3       4 UNK         0.1400 
     53 CB         -5.3028  -15.7918  -44.6746 C.3       4 UNK        -0.1800 
     54 N          -3.2014  -16.9013  -45.1895 N.am      4 UNK        -0.5000 
     55 C          -2.4276  -17.9317  -45.5477 C.2       3 UNK         0.5000 
     56 O          -2.7598  -19.1053  -45.3992 O.2       3 UNK        -0.5000 
     57 CA         -1.0440  -17.6043  -46.1416 C.3       3 UNK         0.1400 
     58 CB         -0.8780  -18.1347  -47.5737 C.3       3 UNK        -0.1800 
     59 N          -0.6722  -16.1835  -46.1068 N.am      3 UNK        -0.5000 
     60 C          -0.3923  -15.4789  -44.9972 C.2       2 UNK         0.5000 
     61 O          -0.5086  -15.9444  -43.8653 O.2       2 UNK        -0.5000 
     62 CA          0.0611  -14.0111  -45.1725 C.3       2 UNK         0.1400 
     63 CB          0.9504  -13.5223  -44.0089 C.3       2 UNK        -0.1800 
     64 N           0.6927  -13.7571  -46.4719 N.am      2 UNK        -0.5000 
     65 C           1.8081  -14.3266  -46.9542 C.2       1 UNK         0.5000 
     66 O           2.5670  -15.0146  -46.2701 O.2       1 UNK        -0.5000 
     67 C           0.3768  -21.7399  -45.7407 C.2       11 UNK         0.5000 
     68 O          -0.5791  -21.3149  -46.3847 O.2       11 UNK        -0.5000 
     69 N           0.3619  -21.8181  -44.3994 N.am      12 UNK        -0.5000 
     70 CA         -0.8048  -21.4606  -43.5789 C.3       12 UNK         0.1400 
     71 CB         -0.4262  -21.5267  -42.0947 C.3       12 UNK        -0.1800 
     72 C          -2.0329  -22.3566  -43.8473 C.2       12 UNK         0.5000 
     73 O          -3.1687  -21.9180  -43.6674 O.2       12 UNK        -0.5000 
     74 N          -1.7798  -23.5942  -44.2951 N.am      13 UNK        -0.5000 
     75 CA         -2.7942  -24.5571  -44.7193 C.3       13 UNK         0.1400 
     76 CB         -2.1782  -25.9641  -44.6715 C.3       13 UNK        -0.1800 
     77 C          -3.3607  -24.2657  -46.1245 C.2       13 UNK         0.5000 
     78 O          -4.4081  -24.8139  -46.4692 O.2       13 UNK        -0.5000 
     79 N          -2.6697  -23.4320  -46.9172 N.am      14 UNK        -0.5000 
     80 CA         -3.0497  -23.0890  -48.2896 C.3       14 UNK         0.1400 
     81 CB         -1.7820  -22.7827  -49.0993 C.3       14 UNK        -0.1800 
     82 C          -4.0680  -21.9328  -48.3644 C.2       14 UNK         0.5000 
     83 O          -4.6183  -21.6888  -49.4382 O.2       14 UNK        -0.5000 
     84 N          -4.3137  -21.2532  -47.2329 N.am      15 UNK        -0.5000 
     85 CA         -5.4056  -20.3037  -46.9766 C.3       15 UNK         0.1400 
     86 CB         -6.7563  -21.0493  -46.9797 C.3       15 UNK        -0.1800 
     87 C          -5.4293  -19.0555  -47.8875 C.2       15 UNK         0.5000 
     88 O          -6.4830  -18.4344  -48.0350 O.2       15 UNK        -0.5000 
     89 N          -4.2755  -18.7104  -48.4784 N.am      16 UNK        -0.5000 
     90 CA         -4.0700  -17.6171  -49.4369 C.3       16 UNK         0.1400 
     91 CB         -4.2327  -16.2406  -48.7584 C.3       16 UNK        -0.1800 
     92 C          -4.9094  -17.7690  -50.7230 C.2       16 UNK         0.5000 
     93 O          -5.3892  -16.7748  -51.2715 O.2       16 UNK        -0.5000 
     94 N          -5.0517  -19.0140  -51.2014 N.am      17 UNK        -0.5000 
     95 CA         -5.7922  -19.4045  -52.4050 C.3       17 UNK         0.1400 
     96 CB         -6.0516  -20.9202  -52.3429 C.3       17 UNK        -0.1800 
     97 C          -5.1065  -18.9860  -53.7272 C.2       17 UNK         0.5000 
     98 O          -4.9394  -19.8114  -54.6258 O.2       17 UNK        -0.5000 
     99 N          -4.7282  -17.7073  -53.8443 N.am      18 UNK        -0.5000 
    100 CA        -4.0697  -17.1024  -55.0090 C.3       18 UNK         0.1400 
    101 CB        -3.6264  -15.6787  -54.6417 C.3       18 UNK        -0.1800 
    102 C         -4.9331  -17.0957  -56.2857 C.2       18 UNK         0.5000 
    103 O         -4.3893  -17.0544  -57.3891 O.2       18 UNK        -0.5000 
    104 N         -6.2589  -17.1585  -56.1132 N.am      19 UNK        -0.5000 
    105 CA        -7.2408  -17.2884  -57.1891 C.3       19 UNK         0.1400 
    106 CB        -8.5791  -16.7168  -56.6924 C.3       19 UNK        -0.1800 
    107 C         -7.4212  -18.7424  -57.6771 C.2       19 UNK         0.5000 
    108 O         -8.1378  -18.9538  -58.6569 O.2       19 UNK        -0.5000 
    109 N         -6.8090  -19.7161  -56.9892 N.am      20 UNK        -0.5000 
    110 CA        -6.9492  -21.1429  -57.2531 C.3       20 UNK         0.1400 
    111 CB        -8.0580  -21.7210  -56.3485 C.3       20 UNK        -0.1800 
    112 C         -5.5796  -21.8257  -57.1027 C.2       20 UNK         0.5000 
    113 O         -4.7074  -21.6069  -57.9450 O.2       20 UNK        -0.5000 
    114 N         -5.4167  -22.6424  -56.0522 N.am      21 UNK        -0.5000 
    115 CA        -4.2777  -23.5301  -55.7967 C.3       21 UNK         0.1400 
    116 CB        -4.5145  -24.2656  -54.4681 C.3       21 UNK        -0.1800 
    117 C         -2.8889  -22.8620  -55.7914 C.2       21 UNK         0.5000 
    118 O         -1.9177  -23.5053  -56.1933 O.2       21 UNK        -0.5000 
    119 N         -2.8171  -21.6014  -55.3515 N.am      22 UNK        -0.5000 
    120 CA        -1.5865  -20.7935  -55.3302 C.3       22 UNK         0.1400 
    121 C         -1.4377  -19.8696  -56.5750 C.2       22 UNK         0.5000 
    122 N         -2.3264  -19.9165  -57.5606 N.am      22 UNK        -0.7600 
    123 O         -0.4881  -19.0955  -56.6565 O.2       22 UNK        -0.5000 
    124 C124       -1.4332  -19.9914  -54.0116 C.3       23 UNK        -0.0398 
    125 S125       -1.5600  -21.0227  -52.5150 S.3       23 UNK        -0.2404 
    126 C126       -1.3896  -19.7526  -51.2257 C.3       23 UNK        -0.0205 
    127 H127       -0.7273  -12.4916  -50.7897 H         1 UNK         0.0600 
    128 H128       -2.0804  -13.1405  -49.8561 H         1 UNK         0.0600 
    129 H129       -1.4261  -14.0568  -51.2170 H         1 UNK         0.0600 
    130 H130        1.2037  -12.6876  -49.7040 H         1 UNK         0.3000 
    131 H131        2.9073  -13.3724  -48.4923 H         1 UNK         0.0600 
    132 H132        1.9344  -16.2212  -49.0322 H         1 UNK         0.0800 
    133 H133        3.5311  -15.7932  -48.4997 H         1 UNK         0.0800 
    134 H134        2.3338  -16.0809  -52.8224 H         1 UNK         0.0800 
    135 H135        1.1080  -15.4511  -51.7529 H         1 UNK         0.0800 
    136 H136       -0.3906  -17.3040  -51.8596 H         1 UNK         0.1150 
    137 H137        0.7658  -21.1077  -50.2826 H         1 UNK         0.1150 
    138 H138        3.6922  -18.0104  -50.7718 H         1 UNK         0.1150 
    139 H139        4.0877  -20.8726  -50.7273 H         1 UNK         0.0800 
    140 H140        4.1498  -19.9137  -49.2695 H         1 UNK         0.0800 
    141 H141        1.4791  -20.4930  -47.7995 H         1 UNK         0.0800 
    142 H142        2.9797  -20.6248  -46.9157 H         1 UNK         0.0800 
    143 H143        1.1685  -23.0502  -47.1654 H         1 UNK         0.0600 
    144 H144        3.3606  -22.3346  -45.3445 H         1 UNK         0.3000 
    145 H145        3.1817  -25.4021  -43.5833 H         1 UNK         0.0600 
    146 H146        5.4997  -25.7572  -44.3905 H         1 UNK         0.0600 
    147 H147        4.3542  -26.1491  -45.6627 H         1 UNK         0.0600 
    148 H148        5.2392  -24.6295  -45.7222 H         1 UNK         0.0600 
    149 H149        5.1658  -23.3749  -43.5752 H         1 UNK         0.3000 
    150 H150        3.9915  -21.8475  -40.7324 H         1 UNK         0.0600 
    151 H151        6.1586  -22.8026  -41.5376 H         1 UNK         0.0600 
    152 H152        6.2695  -21.0732  -41.2722 H         1 UNK         0.0600 
    153 H153        6.1541  -21.6972  -42.9109 H         1 UNK         0.0600 
    154 H154        3.3976  -19.8548  -41.4616 H         1 UNK         0.3000 
    155 H155        4.1065  -17.8913  -44.0710 H         1 UNK         0.0600 
    156 H156        1.2879  -19.0421  -44.2767 H         1 UNK         0.0600 
    157 H157        2.4228  -18.8395  -45.6134 H         1 UNK         0.0600 
    158 H158        1.7848  -17.4276  -44.8031 H         1 UNK         0.0600 
    159 H159        1.8431  -17.8772  -42.2156 H         1 UNK         0.3000 
    160 H160        3.6723  -16.7672  -39.4401 H         1 UNK         0.0600 
    161 H161        1.9474  -14.9696  -41.2317 H         1 UNK         0.0600 
    162 H162        3.5879  -14.6036  -40.7110 H         1 UNK         0.0600 
    163 H163        2.2983  -14.7023  -39.5234 H         1 UNK         0.0600 
    164 H164        0.8990  -16.7285  -39.8177 H         1 UNK         0.3000 
    165 H165       -0.0026  -20.0596  -39.6860 H         1 UNK         0.0600 
    166 H166       -0.9004  -19.7281  -37.4049 H         1 UNK         0.0600 
    167 H167        0.8342  -19.9881  -37.3381 H         1 UNK         0.0600 
    168 H168        0.1874  -18.3633  -37.1448 H         1 UNK         0.0600 
    169 H169       -1.4739  -17.7888  -38.8805 H         1 UNK         0.3000 
    170 H170       -3.2441  -17.2659  -40.4025 H         1 UNK         0.0600 
    171 H171       -1.7180  -15.4578  -39.6166 H         1 UNK         0.0600 
    172 H172       -1.1876  -15.1479  -41.2660 H         1 UNK         0.0600 
    173 H173       -2.8488  -14.8062  -40.7892 H         1 UNK         0.0600 
    174 H174       -2.1500  -16.7226  -43.1231 H         1 UNK         0.3000 
    175 H175       -4.9700  -17.9075  -44.7027 H         1 UNK         0.0600 
    176 H176       -4.8091  -14.8641  -44.3828 H         1 UNK         0.0600 
    177 H177       -5.5520  -15.7227  -45.7339 H         1 UNK         0.0600 
    178 H178       -6.2430  -15.8510  -44.1249 H         1 UNK         0.0600 
    179 H179       -2.8516  -15.9692  -45.3508 H         1 UNK         0.3000 
    180 H180       -0.3461  -18.1527  -45.5159 H         1 UNK         0.0600 
    181 H181        0.1707  -18.1321  -47.8719 H         1 UNK         0.0600 
    182 H182       -1.4203  -17.5215  -48.2870 H         1 UNK         0.0600 
    183 H183       -1.2399  -19.1576  -47.6741 H         1 UNK         0.0600 
    184 H184       -0.5760  -15.7325  -47.0129 H         1 UNK         0.3000 
    185 H185       -0.8511  -13.4135  -45.1594 H         1 UNK         0.0600 
    186 H186        1.8383  -14.1432  -43.8859 H         1 UNK         0.0600 
    187 H187        1.2770  -12.4944  -44.1652 H         1 UNK         0.0600 
    188 H188        0.4056  -13.5486  -43.0645 H         1 UNK         0.0600 
    189 H189        0.1462  -13.2103  -47.1222 H         1 UNK         0.3000 
    190 H190        1.1559  -22.2123  -43.9081 H         1 UNK         0.3000 
    191 H191       -1.0780  -20.4306  -43.8150 H         1 UNK         0.0600 
    192 H192       -1.2391  -21.1474  -41.4747 H         1 UNK         0.0600 
    193 H193        0.4569  -20.9219  -41.8876 H         1 UNK         0.0600 
    194 H194       -0.2211  -22.5482  -41.7738 H         1 UNK         0.0600 
    195 H195       -0.8159  -23.8765  -44.4054 H         1 UNK         0.3000 
    196 H196       -3.6276  -24.5240  -44.0144 H         1 UNK         0.0600 
    197 H197       -1.3290  -26.0542  -45.3505 H         1 UNK         0.0600 
    198 H198       -1.8319  -26.2092  -43.6673 H         1 UNK         0.0600 
    199 H199       -2.9089  -26.7224  -44.9559 H         1 UNK         0.0600 
    200 H200       -1.8527  -22.9585  -46.5504 H         1 UNK         0.3000 
    201 H201       -3.5244  -23.9585  -48.7489 H         1 UNK         0.0600 
    202 H202       -1.2984  -21.8642  -48.7707 H         1 UNK         0.0600 
    203 H203       -2.0231  -22.6714  -50.1556 H         1 UNK         0.0600 
    204 H204       -1.0546  -23.5906  -49.0202 H         1 UNK         0.0600 
    205 H205       -3.7456  -21.4731  -46.4253 H         1 UNK         0.3000 
    206 H206       -5.2456  -19.9336  -45.9642 H         1 UNK         0.0600 
    207 H207       -6.7304  -21.9145  -46.3170 H         1 UNK         0.0600 
    208 H208       -7.5650  -20.4042  -46.6343 H         1 UNK         0.0600 
    209 H209       -7.0199  -21.3996  -47.9784 H         1 UNK         0.0600 
    210 H210       -3.4756  -19.2942  -48.2816 H         1 UNK         0.3000 
    211 H211       -3.0365  -17.6861  -49.7697 H         1 UNK         0.0600 
    212 H212       -3.9710  -15.4335  -49.4437 H         1 UNK         0.0600 
    213 H213       -3.5764  -16.1463  -47.8947 H         1 UNK         0.0600 
    214 H214       -5.2561  -16.0684  -48.4249 H         1 UNK         0.0600 
    215 H215       -4.6616  -19.7807  -50.6662 H         1 UNK         0.3000 
    216 H216       -6.7613  -18.9025  -52.3824 H         1 UNK         0.0600 
    217 H217       -5.1180  -21.4844  -52.3517 H         1 UNK         0.0600 
    218 H218       -6.6501  -21.2567  -53.1895 H         1 UNK         0.0600 
    219 H219       -6.5955  -21.1901  -51.4374 H         1 UNK         0.0600 
    220 H220       -4.9163  -17.0968  -53.0527 H         1 UNK         0.3000 
    221 H221       -3.1776  -17.6839  -55.2405 H         1 UNK         0.0600 
    222 H222       -2.9380  -15.6863  -53.7962 H         1 UNK         0.0600 
    223 H223       -4.4770  -15.0494  -54.3766 H         1 UNK         0.0600 
    224 H224       -3.1103  -15.2013  -55.4758 H         1 UNK         0.0600 
    225 H225       -6.6162  -17.1762  -55.1695 H         1 UNK         0.3000 
    226 H226       -6.9140  -16.6945  -58.0453 H         1 UNK         0.0600 
    227 H227       -8.9662  -17.2796  -55.8421 H         1 UNK         0.0600 
    228 H228       -8.4744  -15.6754  -56.3872 H         1 UNK         0.0600 
    229 H229       -9.3353  -16.7477  -57.4779 H         1 UNK         0.0600 
    230 H230       -6.1812  -19.4747  -56.2302 H         1 UNK         0.3000 
    231 H231       -7.2455  -21.3038  -58.2917 H         1 UNK         0.0600 
    232 H232       -7.8603  -21.5391  -55.2919 H         1 UNK         0.0600 
    233 H233       -8.1690  -22.7964  -56.4937 H         1 UNK         0.0600 
    234 H234       -9.0218  -21.2681  -56.5820 H         1 UNK         0.0600 
    235 H235       -6.1839  -22.7204  -55.4018 H         1 UNK         0.3000 
    236 H236       -4.2707  -24.2723  -56.5974 H         1 UNK         0.0600 
    237 H237       -5.4402  -24.8407  -54.4920 H         1 UNK         0.0600 
    238 H238       -3.7045  -24.9654  -54.2579 H         1 UNK         0.0600 
    239 H239       -4.5709  -23.5697  -53.6302 H         1 UNK         0.0600 
    240 H240       -3.6684  -21.1212  -55.0711 H         1 UNK         0.3000 
    241 H241       -0.7272  -21.4644  -55.3773 H         1 UNK         0.0600 
    242 H242       -2.2161  -19.3029  -58.3517 H         1 UNK         0.3800 
    243 H243       -3.1094  -20.5626  -57.5383 H         1 UNK         0.3800 
    244 H244       -2.1880  -19.2117  -53.9454 H         1 UNK         0.0800 
    245 H245       -0.4665  -19.4853  -53.9889 H         1 UNK         0.0800 
    246 H246       -1.7276  -20.1523  -50.2710 H         1 UNK         0.0800 
    247 H247       -2.0590  -18.9267  -51.4641 H         1 UNK         0.0800 
@<TRIPOS>BOND
     1    1    2 1    
     2    1  127 1    
     3    1  128 1    
     4    1  129 1    
     5    2    3 2    
     6    2    4 am   BACKBONE|DICT|INTERRES
     7    4    5 1    
     8    4  130 1    
     9    5    6 1    
    10    5   65 1    
    11    5  131 1    
    12    6    7 1    
    13    6  132 1    
    14    6  133 1    
    15    7    8 1    
    16    8    9 1    
    17    8  134 1    
    18    8  135 1    
    19    9   10 ar   
    20    9   14 ar   
    21   10   11 ar   
    22   10  136 1    
    23   11   12 ar   
    24   11  126 1    
    25   12   13 ar   
    26   12  137 1    
    27   13   14 ar   
    28   13   15 1    
    29   14  138 1    
    30   15   16 1    
    31   15  139 1    
    32   15  140 1    
    33   16   17 1    
    34   17   18 1    
    35   17  141 1    
    36   17  142 1    
    37   18   19 1    
    38   18   67 1    
    39   18  143 1    
    40   19   20 am   BACKBONE|DICT|INTERRES
    41   19  144 1    
    42   20   21 2    
    43   20   22 1    
    44   22   23 1    
    45   22   24 1    
    46   22  145 1    
    47   23  146 1    
    48   23  147 1    
    49   23  148 1    
    50   24   25 am   BACKBONE|DICT|INTERRES
    51   24  149 1    
    52   25   26 2    
    53   25   27 1    
    54   27   28 1    
    55   27   29 1    
    56   27  150 1    
    57   28  151 1    
    58   28  152 1    
    59   28  153 1    
    60   29   30 am   BACKBONE|DICT|INTERRES
    61   29  154 1    
    62   30   31 2    
    63   30   32 1    
    64   32   33 1    
    65   32   34 1    
    66   32  155 1    
    67   33  156 1    
    68   33  157 1    
    69   33  158 1    
    70   34   35 am   BACKBONE|DICT|INTERRES
    71   34  159 1    
    72   35   36 2    
    73   35   37 1    
    74   37   38 1    
    75   37   39 1    
    76   37  160 1    
    77   38  161 1    
    78   38  162 1    
    79   38  163 1    
    80   39   40 am   BACKBONE|DICT|INTERRES
    81   39  164 1    
    82   40   41 2    
    83   40   42 1    
    84   42   43 1    
    85   42   44 1    
    86   42  165 1    
    87   43  166 1    
    88   43  167 1    
    89   43  168 1    
    90   44   45 am   BACKBONE|DICT|INTERRES
    91   44  169 1    
    92   45   46 2    
    93   45   47 1    
    94   47   48 1    
    95   47   49 1    
    96   47  170 1    
    97   48  171 1    
    98   48  172 1    
    99   48  173 1    
   100   49   50 am   BACKBONE|DICT|INTERRES
   101   49  174 1    
   102   50   51 2    
   103   50   52 1    
   104   52   53 1    
   105   52   54 1    
   106   52  175 1    
   107   53  176 1    
   108   53  177 1    
   109   53  178 1    
   110   54   55 am   BACKBONE|DICT|INTERRES
   111   54  179 1    
   112   55   56 2    
   113   55   57 1    
   114   57   58 1    
   115   57   59 1    
   116   57  180 1    
   117   58  181 1    
   118   58  182 1    
   119   58  183 1    
   120   59   60 am   BACKBONE|DICT|INTERRES
   121   59  184 1    
   122   60   61 2    
   123   60   62 1    
   124   62   63 1    
   125   62   64 1    
   126   62  185 1    
   127   63  186 1    
   128   63  187 1    
   129   63  188 1    
   130   64   65 am   BACKBONE|DICT|INTERRES
   131   64  189 1    
   132   65   66 2    
   133   67   68 2    
   134   67   69 am   BACKBONE|DICT|INTERRES
   135   69   70 1    
   136   69  190 1    
   137   70   71 1    
   138   70   72 1    
   139   70  191 1    
   140   71  192 1    
   141   71  193 1    
   142   71  194 1    
   143   72   73 2    
   144   72   74 am   BACKBONE|DICT|INTERRES
   145   74   75 1    
   146   74  195 1    
   147   75   76 1    
   148   75   77 1    
   149   75  196 1    
   150   76  197 1    
   151   76  198 1    
   152   76  199 1    
   153   77   78 2    
   154   77   79 am   BACKBONE|DICT|INTERRES
   155   79   80 1    
   156   79  200 1    
   157   80   81 1    
   158   80   82 1    
   159   80  201 1    
   160   81  202 1    
   161   81  203 1    
   162   81  204 1    
   163   82   83 2    
   164   82   84 am   BACKBONE|DICT|INTERRES
   165   84   85 1    
   166   84  205 1    
   167   85   86 1    
   168   85   87 1    
   169   85  206 1    
   170   86  207 1    
   171   86  208 1    
   172   86  209 1    
   173   87   88 2    
   174   87   89 am   BACKBONE|DICT|INTERRES
   175   89   90 1    
   176   89  210 1    
   177   90   91 1    
   178   90   92 1    
   179   90  211 1    
   180   91  212 1    
   181   91  213 1    
   182   91  214 1    
   183   92   93 2    
   184   92   94 am   BACKBONE|DICT|INTERRES
   185   94   95 1    
   186   94  215 1    
   187   95   96 1    
   188   95   97 1    
   189   95  216 1    
   190   96  217 1    
   191   96  218 1    
   192   96  219 1    
   193   97   98 2    
   194   97   99 am   BACKBONE|DICT|INTERRES
   195   99  100 1    
   196   99  220 1    
   197  100  101 1    
   198  100  102 1    
   199  100  221 1    
   200  101  222 1    
   201  101  223 1    
   202  101  224 1    
   203  102  103 2    
   204  102  104 am   BACKBONE|DICT|INTERRES
   205  104  105 1    
   206  104  225 1    
   207  105  106 1    
   208  105  107 1    
   209  105  226 1    
   210  106  227 1    
   211  106  228 1    
   212  106  229 1    
   213  107  108 2    
   214  107  109 am   BACKBONE|DICT|INTERRES
   215  109  110 1    
   216  109  230 1    
   217  110  111 1    
   218  110  112 1    
   219  110  231 1    
   220  111  232 1    
   221  111  233 1    
   222  111  234 1    
   223  112  113 2    
   224  112  114 am   BACKBONE|DICT|INTERRES
   225  114  115 1    
   226  114  235 1    
   227  115  116 1    
   228  115  117 1    
   229  115  236 1    
   230  116  237 1    
   231  116  238 1    
   232  116  239 1    
   233  117  118 2    
   234  117  119 am   BACKBONE|DICT|INTERRES
   235  119  120 1    
   236  119  240 1    
   237  120  121 1    
   238  120  124 1    
   239  120  241 1    
   240  121  122 am   BACKBONE|DICT|INTERRES
   241  121  123 2    
   242  122  242 1    
   243  122  243 1    
   244  124  125 1    
   245  124  244 1    
   246  124  245 1    
   247  125  126 1    
   248  126  246 1    
   249  126  247 1    
@<TRIPOS>SUBSTRUCTURE
     1 UNK         1 GROUP             0       ****    0 ROOT    
