@<TRIPOS>MOLECULE
3R540
247   249    1
SMALL
USER_CHARGES


@<TRIPOS>ATOM
      1 CA          1.9011  -14.5974  -53.5453 C.3       0 UNK        -0.1800 
      2 C           1.3696  -14.4415  -52.1270 C.2       0 UNK         0.5000 
      3 O           1.9332  -15.0168  -51.1960 O.2       0 UNK        -0.5000 
      4 N           0.2882  -13.6682  -51.9641 N.am      1 UNK        -0.5000 
      5 CA         -0.3259  -13.3497  -50.6728 C.3       1 UNK         0.1400 
      6 C6         -1.7180  -12.6986  -50.8649 C.3       23 UNK        -0.0398 
      7 S7         -2.7164  -12.6969  -49.3353 S.3       23 UNK        -0.2404 
      8 C8         -3.8860  -14.0538  -49.6514 C.3       23 UNK        -0.0205 
      9 C9         -3.1981  -15.4100  -49.6512 C.ar      23 UNK        -0.0193 
     10 C10        -2.8719  -16.0348  -50.8582 C.ar      23 UNK        -0.1150 
     11 C11        -2.2719  -17.2964  -50.8668 C.ar      23 UNK        -0.0193 
     12 C12        -1.9845  -17.9247  -49.6519 C.ar      23 UNK        -0.1150 
     13 C13        -2.3321  -17.3238  -48.4404 C.ar      23 UNK        -0.0193 
     14 C14        -2.9273  -16.0598  -48.4437 C.ar      23 UNK        -0.1150 
     15 C15        -2.1071  -18.0697  -47.1380 C.3       23 UNK        -0.0205 
     16 S16        -3.3704  -19.3602  -46.9050 S.3       23 UNK        -0.2404 
     17 C17        -2.7591  -20.1375  -45.3760 C.3       23 UNK        -0.0398 
     18 CA         -1.7158  -21.2492  -45.6553 C.3       11 UNK         0.1400 
     19 N          -0.6866  -21.2773  -44.6151 N.am      11 UNK        -0.5000 
     20 C           0.4400  -22.0011  -44.6235 C.2       10 UNK         0.5000 
     21 O           0.7664  -22.7401  -45.5519 O.2       10 UNK        -0.5000 
     22 CA          1.3026  -21.9517  -43.3466 C.3       10 UNK         0.1400 
     23 CB          2.5101  -21.0214  -43.5327 C.3       10 UNK        -0.1800 
     24 N           0.5605  -21.5552  -42.1429 N.am      10 UNK        -0.5000 
     25 C          -0.4680  -22.2399  -41.6130 C.2       9 UNK         0.5000 
     26 O          -0.9295  -23.2603  -42.1275 O.2       9 UNK        -0.5000 
     27 CA         -1.1108  -21.6773  -40.3251 C.3       9 UNK         0.1400 
     28 CB         -1.7732  -22.7707  -39.4612 C.3       9 UNK        -0.1800 
     29 N          -0.1952  -20.8571  -39.5265 N.am      9 UNK        -0.5000 
     30 C           0.9624  -21.2365  -38.9628 C.2       8 UNK         0.5000 
     31 O           1.3645  -22.4009  -38.9437 O.2       8 UNK        -0.5000 
     32 CA          1.8246  -20.1206  -38.3284 C.3       8 UNK         0.1400 
     33 CB          3.3343  -20.3778  -38.5186 C.3       8 UNK        -0.1800 
     34 N           1.4847  -18.7578  -38.7683 N.am      8 UNK        -0.5000 
     35 C           1.5101  -18.2742  -40.0197 C.2       7 UNK         0.5000 
     36 O           1.7884  -18.9479  -41.0144 O.2       7 UNK        -0.5000 
     37 CA          1.1679  -16.7790  -40.1602 C.3       7 UNK         0.1400 
     38 CB          2.4389  -15.9318  -39.9931 C.3       7 UNK        -0.1800 
     39 N           0.5350  -16.4373  -41.4341 N.am      7 UNK        -0.5000 
     40 C          -0.6208  -16.9314  -41.9000 C.2       6 UNK         0.5000 
     41 O          -1.3146  -17.7500  -41.2936 O.2       6 UNK        -0.5000 
     42 CA         -1.0803  -16.4178  -43.2787 C.3       6 UNK         0.1400 
     43 CB         -1.8321  -15.0847  -43.1477 C.3       6 UNK        -0.1800 
     44 N           0.0354  -16.2511  -44.2100 N.am      6 UNK        -0.5000 
     45 C           0.6689  -17.2681  -44.8095 C.2       5 UNK         0.5000 
     46 O           0.3203  -18.4410  -44.6994 O.2       5 UNK        -0.5000 
     47 CA          1.8923  -16.9231  -45.6757 C.3       5 UNK         0.1400 
     48 CB          1.4740  -16.6580  -47.1317 C.3       5 UNK        -0.1800 
     49 N           2.6125  -15.7632  -45.1490 N.am      5 UNK        -0.5000 
     50 C           3.4945  -15.8255  -44.1397 C.2       4 UNK         0.5000 
     51 O           3.8494  -16.8777  -43.6093 O.2       4 UNK        -0.5000 
     52 CA          4.0811  -14.4950  -43.6247 C.3       4 UNK         0.1400 
     53 CB          5.4449  -14.2232  -44.2775 C.3       4 UNK        -0.1800 
     54 N           3.2108  -13.3407  -43.8515 N.am      4 UNK        -0.5000 
     55 C           2.0161  -13.1497  -43.2745 C.2       3 UNK         0.5000 
     56 O           1.5240  -13.9201  -42.4528 O.2       3 UNK        -0.5000 
     57 CA          1.2060  -11.9307  -43.7563 C.3       3 UNK         0.1400 
     58 CB          1.5393  -10.6918  -42.9126 C.3       3 UNK        -0.1800 
     59 N           1.4249  -11.6300  -45.1753 N.am      3 UNK        -0.5000 
     60 C           1.1288  -12.4693  -46.1758 C.2       2 UNK         0.5000 
     61 O           0.6031  -13.5737  -46.0083 O.2       2 UNK        -0.5000 
     62 CA          1.5618  -12.0388  -47.5809 C.3       2 UNK         0.1400 
     63 CB          3.0581  -12.3392  -47.7943 C.3       2 UNK        -0.1800 
     64 N           0.7605  -12.7710  -48.5524 N.am      2 UNK        -0.5000 
     65 C           0.6087  -12.4469  -49.8391 C.2       1 UNK         0.5000 
     66 O           1.1502  -11.4736  -50.3708 O.2       1 UNK        -0.5000 
     67 C          -2.3835  -22.6235  -45.8993 C.2       11 UNK         0.5000 
     68 O          -2.9555  -22.8338  -46.9694 O.2       11 UNK        -0.5000 
     69 N          -2.2585  -23.5615  -44.9468 N.am      12 UNK        -0.5000 
     70 CA         -2.6521  -24.9618  -45.1091 C.3       12 UNK         0.1400 
     71 CB         -2.5095  -25.6915  -43.7660 C.3       12 UNK        -0.1800 
     72 C          -1.8493  -25.6886  -46.2076 C.2       12 UNK         0.5000 
     73 O          -2.4153  -26.5295  -46.9056 O.2       12 UNK        -0.5000 
     74 N          -0.5706  -25.3200  -46.3892 N.am      13 UNK        -0.5000 
     75 CA          0.2913  -25.8387  -47.4576 C.3       13 UNK         0.1400 
     76 CB          1.7614  -25.5463  -47.1219 C.3       13 UNK        -0.1800 
     77 C          -0.0758  -25.2658  -48.8408 C.2       13 UNK         0.5000 
     78 O           0.1622  -25.9220  -49.8544 O.2       13 UNK        -0.5000 
     79 N          -0.6868  -24.0730  -48.8524 N.am      14 UNK        -0.5000 
     80 CA         -1.2769  -23.4341  -50.0296 C.3       14 UNK         0.1400 
     81 CB         -1.2348  -21.9078  -49.8391 C.3       14 UNK        -0.1800 
     82 C          -2.7193  -23.9107  -50.3008 C.2       14 UNK         0.5000 
     83 O          -3.3348  -23.4256  -51.2508 O.2       14 UNK        -0.5000 
     84 N          -3.2383  -24.8229  -49.4629 N.am      15 UNK        -0.5000 
     85 CA         -4.5945  -25.3793  -49.4619 C.3       15 UNK         0.1400 
     86 CB         -4.8346  -26.2435  -50.7152 C.3       15 UNK        -0.1800 
     87 C          -5.6708  -24.2945  -49.2674 C.2       15 UNK         0.5000 
     88 O          -6.6740  -24.2851  -49.9815 O.2       15 UNK        -0.5000 
     89 N          -5.4157  -23.3745  -48.3246 N.am      16 UNK        -0.5000 
     90 CA         -6.2106  -22.1777  -48.0330 C.3       16 UNK         0.1400 
     91 CB         -7.5960  -22.5496  -47.4642 C.3       16 UNK        -0.1800 
     92 C          -6.2744  -21.2365  -49.2527 C.2       16 UNK         0.5000 
     93 O          -7.3532  -20.7900  -49.6447 O.2       16 UNK        -0.5000 
     94 N          -5.0916  -20.9938  -49.8361 N.am      17 UNK        -0.5000 
     95 CA         -4.7907  -20.1338  -50.9861 C.3       17 UNK         0.1400 
     96 CB         -5.3618  -18.7143  -50.7821 C.3       17 UNK        -0.1800 
     97 C          -5.1755  -20.7112  -52.3651 C.2       17 UNK         0.5000 
     98 O          -4.8652  -20.0824  -53.3807 O.2       17 UNK        -0.5000 
     99 N          -5.8285  -21.8800  -52.3965 N.am      18 UNK        -0.5000 
    100 CA        -6.3779  -22.4865  -53.6071 C.3       18 UNK         0.1400 
    101 CB        -7.4805  -23.4823  -53.2180 C.3       18 UNK        -0.1800 
    102 C         -5.3275  -23.1769  -54.4941 C.2       18 UNK         0.5000 
    103 O         -5.4044  -23.0510  -55.7165 O.2       18 UNK        -0.5000 
    104 N         -4.3804  -23.9052  -53.8856 N.am      19 UNK        -0.5000 
    105 CA        -3.3980  -24.7205  -54.6099 C.3       19 UNK         0.1400 
    106 CB        -2.8936  -25.8662  -53.7195 C.3       19 UNK        -0.1800 
    107 C         -2.2213  -23.8874  -55.1366 C.2       19 UNK         0.5000 
    108 O         -1.7159  -24.1667  -56.2242 O.2       19 UNK        -0.5000 
    109 N         -1.8243  -22.8645  -54.3687 N.am      20 UNK        -0.5000 
    110 CA        -0.8046  -21.8894  -54.7649 C.3       20 UNK         0.1400 
    111 CB        -0.2097  -21.2561  -53.5022 C.3       20 UNK        -0.1800 
    112 C         -1.3482  -20.8187  -55.7356 C.2       20 UNK         0.5000 
    113 O         -0.5564  -20.1202  -56.3675 O.2       20 UNK        -0.5000 
    114 N         -2.6823  -20.7244  -55.8433 N.am      21 UNK        -0.5000 
    115 CA        -3.4740  -19.9289  -56.7894 C.3       21 UNK         0.1400 
    116 CB        -3.1356  -20.3043  -58.2468 C.3       21 UNK        -0.1800 
    117 C         -3.4513  -18.4030  -56.5637 C.2       21 UNK         0.5000 
    118 O         -4.1002  -17.6809  -57.3226 O.2       21 UNK        -0.5000 
    119 N         -2.7571  -17.9296  -55.5214 N.am      22 UNK        -0.5000 
    120 CA        -2.7815  -16.5297  -55.0628 C.3       22 UNK         0.1400 
    121 C         -4.1095  -16.0813  -54.3793 C.2       22 UNK         0.5000 
    122 N         -5.0451  -16.9723  -54.0705 N.am      22 UNK        -0.7600 
    123 O         -4.3004  -14.8928  -54.1381 O.2       22 UNK        -0.5000 
    124 C124       -1.5096  -16.1198  -54.2551 C.3       23 UNK        -0.0398 
    125 S125       -0.7062  -17.3834  -53.1983 S.3       23 UNK        -0.2404 
    126 C126       -2.0467  -18.0473  -52.1703 C.3       23 UNK        -0.0205 
    127 H127        1.9227  -15.6512  -53.8235 H         1 UNK         0.0600 
    128 H128        1.2835  -14.0679  -54.2711 H         1 UNK         0.0600 
    129 H129        2.9160  -14.2056  -53.6108 H         1 UNK         0.0600 
    130 H130       -0.0950  -13.1847  -52.7628 H         1 UNK         0.3000 
    131 H131       -0.4599  -14.2967  -50.1445 H         1 UNK         0.0600 
    132 H132       -1.6228  -11.6712  -51.2213 H         1 UNK         0.0800 
    133 H133       -2.2741  -13.2249  -51.6416 H         1 UNK         0.0800 
    134 H134       -4.4030  -13.8819  -50.5970 H         1 UNK         0.0800 
    135 H135       -4.6569  -14.0395  -48.8796 H         1 UNK         0.0800 
    136 H136       -3.1156  -15.5496  -51.7897 H         1 UNK         0.1150 
    137 H137       -1.5432  -18.9111  -49.6439 H         1 UNK         0.1150 
    138 H138       -3.2010  -15.5902  -47.5093 H         1 UNK         0.1150 
    139 H139       -1.1178  -18.5282  -47.1467 H         1 UNK         0.0800 
    140 H140       -2.1265  -17.3798  -46.2931 H         1 UNK         0.0800 
    141 H141       -2.3274  -19.3478  -44.7597 H         1 UNK         0.0800 
    142 H142       -3.6081  -20.5159  -44.8036 H         1 UNK         0.0800 
    143 H143       -1.1829  -21.0023  -46.5758 H         1 UNK         0.0600 
    144 H144       -0.8301  -20.6652  -43.8256 H         1 UNK         0.3000 
    145 H145        1.6796  -22.9626  -43.1795 H         1 UNK         0.0600 
    146 H146        3.1834  -21.0760  -42.6771 H         1 UNK         0.0600 
    147 H147        3.0848  -21.2948  -44.4184 H         1 UNK         0.0600 
    148 H148        2.2045  -19.9813  -43.6463 H         1 UNK         0.0600 
    149 H149        0.8818  -20.7112  -41.6786 H         1 UNK         0.3000 
    150 H150       -1.9001  -21.0026  -40.6597 H         1 UNK         0.0600 
    151 H151       -2.5691  -23.2748  -40.0107 H         1 UNK         0.0600 
    152 H152       -2.2206  -22.3465  -38.5624 H         1 UNK         0.0600 
    153 H153       -1.0580  -23.5337  -39.1529 H         1 UNK         0.0600 
    154 H154       -0.4177  -19.8717  -39.4965 H         1 UNK         0.3000 
    155 H155        1.6164  -20.1554  -37.2582 H         1 UNK         0.0600 
    156 H156        3.9300  -19.5911  -38.0556 H         1 UNK         0.0600 
    157 H157        3.6056  -20.4268  -39.5738 H         1 UNK         0.0600 
    158 H158        3.6347  -21.3206  -38.0601 H         1 UNK         0.0600 
    159 H159        1.2272  -18.1253  -38.0229 H         1 UNK         0.3000 
    160 H160        0.4654  -16.5110  -39.3687 H         1 UNK         0.0600 
    161 H161        3.1519  -16.1212  -40.7963 H         1 UNK         0.0600 
    162 H162        2.9404  -16.1527  -39.0500 H         1 UNK         0.0600 
    163 H163        2.2074  -14.8667  -39.9925 H         1 UNK         0.0600 
    164 H164        1.0028  -15.7224  -41.9822 H         1 UNK         0.3000 
    165 H165       -1.7726  -17.1528  -43.6939 H         1 UNK         0.0600 
    166 H166       -1.1972  -14.3009  -42.7338 H         1 UNK         0.0600 
    167 H167       -2.1980  -14.7424  -44.1160 H         1 UNK         0.0600 
    168 H168       -2.6962  -15.1882  -42.4904 H         1 UNK         0.0600 
    169 H169        0.3618  -15.3087  -44.3746 H         1 UNK         0.3000 
    170 H170        2.5603  -17.7872  -45.6726 H         1 UNK         0.0600 
    171 H171        1.0762  -17.5639  -47.5898 H         1 UNK         0.0600 
    172 H172        0.7004  -15.8937  -47.2043 H         1 UNK         0.0600 
    173 H173        2.3214  -16.3363  -47.7374 H         1 UNK         0.0600 
    174 H174        2.3355  -14.8601  -45.5090 H         1 UNK         0.3000 
    175 H175        4.2304  -14.5966  -42.5478 H         1 UNK         0.0600 
    176 H176        5.3549  -14.0886  -45.3562 H         1 UNK         0.0600 
    177 H177        5.9095  -13.3280  -43.8639 H         1 UNK         0.0600 
    178 H178        6.1324  -15.0527  -44.1063 H         1 UNK         0.0600 
    179 H179        3.5345  -12.6549  -44.5170 H         1 UNK         0.3000 
    180 H180        0.1476  -12.1636  -43.6212 H         1 UNK         0.0600 
    181 H181        1.3661  -10.8839  -41.8528 H         1 UNK         0.0600 
    182 H182        2.5826  -10.3944  -43.0261 H         1 UNK         0.0600 
    183 H183        0.9150   -9.8435  -43.1937 H         1 UNK         0.0600 
    184 H184        1.8603  -10.7435  -45.3868 H         1 UNK         0.3000 
    185 H185        1.3750  -10.9687  -47.6923 H         1 UNK         0.0600 
    186 H186        3.6750  -11.8155  -47.0633 H         1 UNK         0.0600 
    187 H187        3.2698  -13.4054  -47.7013 H         1 UNK         0.0600 
    188 H188        3.3922  -12.0197  -48.7814 H         1 UNK         0.0600 
    189 H189        0.2555  -13.5552  -48.1574 H         1 UNK         0.3000 
    190 H190       -1.7770  -23.3279  -44.0851 H         1 UNK         0.3000 
    191 H191       -3.7048  -24.9819  -45.3990 H         1 UNK         0.0600 
    192 H192       -2.8394  -26.7280  -43.8470 H         1 UNK         0.0600 
    193 H193       -3.1138  -25.2167  -42.9927 H         1 UNK         0.0600 
    194 H194       -1.4745  -25.7014  -43.4219 H         1 UNK         0.0600 
    195 H195       -0.1797  -24.5786  -45.8181 H         1 UNK         0.3000 
    196 H196        0.1657  -26.9226  -47.5036 H         1 UNK         0.0600 
    197 H197        2.4252  -26.0108  -47.8521 H         1 UNK         0.0600 
    198 H198        2.0301  -25.9398  -46.1415 H         1 UNK         0.0600 
    199 H199        1.9730  -24.4769  -47.1255 H         1 UNK         0.0600 
    200 H200       -0.8539  -23.6163  -47.9674 H         1 UNK         0.3000 
    201 H201       -0.6840  -23.6822  -50.9123 H         1 UNK         0.0600 
    202 H202       -0.2132  -21.5566  -49.6935 H         1 UNK         0.0600 
    203 H203       -1.8247  -21.5854  -48.9818 H         1 UNK         0.0600 
    204 H204       -1.6309  -21.3926  -50.7129 H         1 UNK         0.0600 
    205 H205       -2.6489  -25.1493  -48.7092 H         1 UNK         0.3000 
    206 H206       -4.6567  -26.0345  -48.5920 H         1 UNK         0.0600 
    207 H207       -4.0305  -26.9647  -50.8607 H         1 UNK         0.0600 
    208 H208       -5.7648  -26.8056  -50.6266 H         1 UNK         0.0600 
    209 H209       -4.9115  -25.6331  -51.6139 H         1 UNK         0.0600 
    210 H210       -4.5276  -23.4248  -47.8304 H         1 UNK         0.3000 
    211 H211       -5.6726  -21.6346  -47.2544 H         1 UNK         0.0600 
    212 H212       -8.2210  -23.0518  -48.2030 H         1 UNK         0.0600 
    213 H213       -8.1324  -21.6583  -47.1370 H         1 UNK         0.0600 
    214 H214       -7.5027  -23.2077  -46.6005 H         1 UNK         0.0600 
    215 H215       -4.2897  -21.4628  -49.4401 H         1 UNK         0.3000 
    216 H216       -3.7055  -20.0537  -50.9947 H         1 UNK         0.0600 
    217 H217       -6.4498  -18.6962  -50.8376 H         1 UNK         0.0600 
    218 H218       -5.0003  -18.0285  -51.5450 H         1 UNK         0.0600 
    219 H219       -5.0659  -18.3042  -49.8162 H         1 UNK         0.0600 
    220 H220       -6.0162  -22.3521  -51.5225 H         1 UNK         0.3000 
    221 H221       -6.8416  -21.6955  -54.2007 H         1 UNK         0.0600 
    222 H222       -7.0822  -24.3210  -52.6461 H         1 UNK         0.0600 
    223 H223       -8.2524  -23.0029  -52.6156 H         1 UNK         0.0600 
    224 H224       -7.9662  -23.8926  -54.1042 H         1 UNK         0.0600 
    225 H225       -4.3068  -23.8819  -52.8724 H         1 UNK         0.3000 
    226 H226       -3.8886  -25.1732  -55.4746 H         1 UNK         0.0600 
    227 H227       -3.7063  -26.5395  -53.4495 H         1 UNK         0.0600 
    228 H228       -2.1455  -26.4642  -54.2415 H         1 UNK         0.0600 
    229 H229       -2.4336  -25.5000  -52.8023 H         1 UNK         0.0600 
    230 H230       -2.2914  -22.7186  -53.4843 H         1 UNK         0.3000 
    231 H231        0.0016  -22.4104  -55.2859 H         1 UNK         0.0600 
    232 H232       -0.9899  -20.8286  -52.8807 H         1 UNK         0.0600 
    233 H233        0.3236  -21.9957  -52.9049 H         1 UNK         0.0600 
    234 H234        0.4971  -20.4620  -53.7471 H         1 UNK         0.0600 
    235 H235       -3.2314  -21.3233  -55.2433 H         1 UNK         0.3000 
    236 H236       -4.5079  -20.2296  -56.6131 H         1 UNK         0.0600 
    237 H237       -3.1952  -21.3820  -58.3996 H         1 UNK         0.0600 
    238 H238       -3.8352  -19.8409  -58.9434 H         1 UNK         0.0600 
    239 H239       -2.1342  -19.9786  -58.5289 H         1 UNK         0.0600 
    240 H240       -2.2242  -18.5765  -54.9597 H         1 UNK         0.3000 
    241 H241       -2.7537  -15.9197  -55.9682 H         1 UNK         0.0600 
    242 H242       -4.9051  -17.9609  -54.2262 H         1 UNK         0.3800 
    243 H243       -5.9016  -16.6524  -53.6485 H         1 UNK         0.3800 
    244 H244       -1.6834  -15.2260  -53.6546 H         1 UNK         0.0800 
    245 H245       -0.7444  -15.8187  -54.9715 H         1 UNK         0.0800 
    246 H246       -1.7882  -19.0761  -51.9359 H         1 UNK         0.0800 
    247 H247       -2.9744  -18.1083  -52.7314 H         1 UNK         0.0800 
@<TRIPOS>BOND
     1    1    2 1    
     2    1  127 1    
     3    1  128 1    
     4    1  129 1    
     5    2    3 2    
     6    2    4 am   BACKBONE|DICT|INTERRES
     7    4    5 1    
     8    4  130 1    
     9    5    6 1    
    10    5   65 1    
    11    5  131 1    
    12    6    7 1    
    13    6  132 1    
    14    6  133 1    
    15    7    8 1    
    16    8    9 1    
    17    8  134 1    
    18    8  135 1    
    19    9   10 ar   
    20    9   14 ar   
    21   10   11 ar   
    22   10  136 1    
    23   11   12 ar   
    24   11  126 1    
    25   12   13 ar   
    26   12  137 1    
    27   13   14 ar   
    28   13   15 1    
    29   14  138 1    
    30   15   16 1    
    31   15  139 1    
    32   15  140 1    
    33   16   17 1    
    34   17   18 1    
    35   17  141 1    
    36   17  142 1    
    37   18   19 1    
    38   18   67 1    
    39   18  143 1    
    40   19   20 am   BACKBONE|DICT|INTERRES
    41   19  144 1    
    42   20   21 2    
    43   20   22 1    
    44   22   23 1    
    45   22   24 1    
    46   22  145 1    
    47   23  146 1    
    48   23  147 1    
    49   23  148 1    
    50   24   25 am   BACKBONE|DICT|INTERRES
    51   24  149 1    
    52   25   26 2    
    53   25   27 1    
    54   27   28 1    
    55   27   29 1    
    56   27  150 1    
    57   28  151 1    
    58   28  152 1    
    59   28  153 1    
    60   29   30 am   BACKBONE|DICT|INTERRES
    61   29  154 1    
    62   30   31 2    
    63   30   32 1    
    64   32   33 1    
    65   32   34 1    
    66   32  155 1    
    67   33  156 1    
    68   33  157 1    
    69   33  158 1    
    70   34   35 am   BACKBONE|DICT|INTERRES
    71   34  159 1    
    72   35   36 2    
    73   35   37 1    
    74   37   38 1    
    75   37   39 1    
    76   37  160 1    
    77   38  161 1    
    78   38  162 1    
    79   38  163 1    
    80   39   40 am   BACKBONE|DICT|INTERRES
    81   39  164 1    
    82   40   41 2    
    83   40   42 1    
    84   42   43 1    
    85   42   44 1    
    86   42  165 1    
    87   43  166 1    
    88   43  167 1    
    89   43  168 1    
    90   44   45 am   BACKBONE|DICT|INTERRES
    91   44  169 1    
    92   45   46 2    
    93   45   47 1    
    94   47   48 1    
    95   47   49 1    
    96   47  170 1    
    97   48  171 1    
    98   48  172 1    
    99   48  173 1    
   100   49   50 am   BACKBONE|DICT|INTERRES
   101   49  174 1    
   102   50   51 2    
   103   50   52 1    
   104   52   53 1    
   105   52   54 1    
   106   52  175 1    
   107   53  176 1    
   108   53  177 1    
   109   53  178 1    
   110   54   55 am   BACKBONE|DICT|INTERRES
   111   54  179 1    
   112   55   56 2    
   113   55   57 1    
   114   57   58 1    
   115   57   59 1    
   116   57  180 1    
   117   58  181 1    
   118   58  182 1    
   119   58  183 1    
   120   59   60 am   BACKBONE|DICT|INTERRES
   121   59  184 1    
   122   60   61 2    
   123   60   62 1    
   124   62   63 1    
   125   62   64 1    
   126   62  185 1    
   127   63  186 1    
   128   63  187 1    
   129   63  188 1    
   130   64   65 am   BACKBONE|DICT|INTERRES
   131   64  189 1    
   132   65   66 2    
   133   67   68 2    
   134   67   69 am   BACKBONE|DICT|INTERRES
   135   69   70 1    
   136   69  190 1    
   137   70   71 1    
   138   70   72 1    
   139   70  191 1    
   140   71  192 1    
   141   71  193 1    
   142   71  194 1    
   143   72   73 2    
   144   72   74 am   BACKBONE|DICT|INTERRES
   145   74   75 1    
   146   74  195 1    
   147   75   76 1    
   148   75   77 1    
   149   75  196 1    
   150   76  197 1    
   151   76  198 1    
   152   76  199 1    
   153   77   78 2    
   154   77   79 am   BACKBONE|DICT|INTERRES
   155   79   80 1    
   156   79  200 1    
   157   80   81 1    
   158   80   82 1    
   159   80  201 1    
   160   81  202 1    
   161   81  203 1    
   162   81  204 1    
   163   82   83 2    
   164   82   84 am   BACKBONE|DICT|INTERRES
   165   84   85 1    
   166   84  205 1    
   167   85   86 1    
   168   85   87 1    
   169   85  206 1    
   170   86  207 1    
   171   86  208 1    
   172   86  209 1    
   173   87   88 2    
   174   87   89 am   BACKBONE|DICT|INTERRES
   175   89   90 1    
   176   89  210 1    
   177   90   91 1    
   178   90   92 1    
   179   90  211 1    
   180   91  212 1    
   181   91  213 1    
   182   91  214 1    
   183   92   93 2    
   184   92   94 am   BACKBONE|DICT|INTERRES
   185   94   95 1    
   186   94  215 1    
   187   95   96 1    
   188   95   97 1    
   189   95  216 1    
   190   96  217 1    
   191   96  218 1    
   192   96  219 1    
   193   97   98 2    
   194   97   99 am   BACKBONE|DICT|INTERRES
   195   99  100 1    
   196   99  220 1    
   197  100  101 1    
   198  100  102 1    
   199  100  221 1    
   200  101  222 1    
   201  101  223 1    
   202  101  224 1    
   203  102  103 2    
   204  102  104 am   BACKBONE|DICT|INTERRES
   205  104  105 1    
   206  104  225 1    
   207  105  106 1    
   208  105  107 1    
   209  105  226 1    
   210  106  227 1    
   211  106  228 1    
   212  106  229 1    
   213  107  108 2    
   214  107  109 am   BACKBONE|DICT|INTERRES
   215  109  110 1    
   216  109  230 1    
   217  110  111 1    
   218  110  112 1    
   219  110  231 1    
   220  111  232 1    
   221  111  233 1    
   222  111  234 1    
   223  112  113 2    
   224  112  114 am   BACKBONE|DICT|INTERRES
   225  114  115 1    
   226  114  235 1    
   227  115  116 1    
   228  115  117 1    
   229  115  236 1    
   230  116  237 1    
   231  116  238 1    
   232  116  239 1    
   233  117  118 2    
   234  117  119 am   BACKBONE|DICT|INTERRES
   235  119  120 1    
   236  119  240 1    
   237  120  121 1    
   238  120  124 1    
   239  120  241 1    
   240  121  122 am   BACKBONE|DICT|INTERRES
   241  121  123 2    
   242  122  242 1    
   243  122  243 1    
   244  124  125 1    
   245  124  244 1    
   246  124  245 1    
   247  125  126 1    
   248  126  246 1    
   249  126  247 1    
@<TRIPOS>SUBSTRUCTURE
     1 UNK         1 GROUP             0       ****    0 ROOT    
