@<TRIPOS>MOLECULE
3R540
247   249    1
SMALL
USER_CHARGES


@<TRIPOS>ATOM
      1 CA          4.6362  -15.0416  -52.1628 C.3       0 UNK        -0.1800 
      2 C           4.5821  -13.9888  -51.0646 C.2       0 UNK         0.5000 
      3 O           4.7683  -12.8033  -51.3405 O.2       0 UNK        -0.5000 
      4 N           4.3447  -14.4231  -49.8215 N.am      1 UNK        -0.5000 
      5 CA          4.2294  -13.5846  -48.6240 C.3       1 UNK         0.1400 
      6 C6          4.1390  -14.4156  -47.3174 C.3       23 UNK        -0.0398 
      7 S7          5.4411  -15.6892  -47.1706 S.3       23 UNK        -0.2404 
      8 C8          4.4668  -17.2281  -47.1293 C.3       23 UNK        -0.0205 
      9 C9          4.0559  -17.7159  -48.5144 C.ar      23 UNK        -0.0193 
     10 C10         2.9654  -17.1467  -49.1805 C.ar      23 UNK        -0.1150 
     11 C11         2.5949  -17.5866  -50.4537 C.ar      23 UNK        -0.0193 
     12 C12         3.3036  -18.6305  -51.0499 C.ar      23 UNK        -0.1150 
     13 C13         4.3650  -19.2422  -50.3784 C.ar      23 UNK        -0.0193 
     14 C14         4.7497  -18.7678  -49.1209 C.ar      23 UNK        -0.1150 
     15 C15         5.0903  -20.4181  -51.0155 C.3       23 UNK        -0.0205 
     16 S16         4.6963  -22.0035  -50.2040 S.3       23 UNK        -0.2404 
     17 C17         2.8894  -22.1590  -50.4545 C.3       23 UNK        -0.0398 
     18 CA          2.1669  -22.7480  -49.2172 C.3       11 UNK         0.1400 
     19 N           2.4815  -22.0148  -47.9858 N.am      11 UNK        -0.5000 
     20 C           2.1506  -22.3933  -46.7441 C.2       10 UNK         0.5000 
     21 O           1.3738  -23.3190  -46.5105 O.2       10 UNK        -0.5000 
     22 CA          2.8336  -21.6536  -45.5765 C.3       10 UNK         0.1400 
     23 CB          3.6856  -20.4500  -46.0199 C.3       10 UNK        -0.1800 
     24 N           1.8546  -21.1946  -44.5980 N.am      10 UNK        -0.5000 
     25 C           1.4331  -21.8795  -43.5281 C.2       9 UNK         0.5000 
     26 O           1.8252  -23.0098  -43.2348 O.2       9 UNK        -0.5000 
     27 CA          0.4216  -21.1712  -42.6069 C.3       9 UNK         0.1400 
     28 CB          1.1533  -20.4161  -41.4866 C.3       9 UNK        -0.1800 
     29 N          -0.4369  -20.2332  -43.3294 N.am      9 UNK        -0.5000 
     30 C          -1.5135  -20.5924  -44.0410 C.2       8 UNK         0.5000 
     31 O          -1.9403  -21.7444  -44.1039 O.2       8 UNK        -0.5000 
     32 CA         -2.2473  -19.4800  -44.8107 C.3       8 UNK         0.1400 
     33 CB         -3.3495  -18.8650  -43.9351 C.3       8 UNK        -0.1800 
     34 N          -1.3688  -18.4150  -45.2957 N.am      8 UNK        -0.5000 
     35 C          -0.3781  -18.5712  -46.1855 C.2       7 UNK         0.5000 
     36 O          -0.0732  -19.6449  -46.7068 O.2       7 UNK        -0.5000 
     37 CA          0.4514  -17.3163  -46.5035 C.3       7 UNK         0.1400 
     38 CB         -0.3231  -16.3565  -47.4172 C.3       7 UNK        -0.1800 
     39 N           0.8898  -16.5954  -45.3086 N.am      7 UNK        -0.5000 
     40 C           1.6356  -17.1188  -44.3252 C.2       6 UNK         0.5000 
     41 O           2.0597  -18.2716  -44.3238 O.2       6 UNK        -0.5000 
     42 CA          1.9189  -16.2120  -43.1200 C.3       6 UNK         0.1400 
     43 CB          3.0262  -15.1990  -43.4493 C.3       6 UNK        -0.1800 
     44 N           0.7079  -15.5169  -42.6864 N.am      6 UNK        -0.5000 
     45 C          -0.3331  -16.1236  -42.0962 C.2       5 UNK         0.5000 
     46 O          -0.3532  -17.3184  -41.8001 O.2       5 UNK        -0.5000 
     47 CA         -1.5751  -15.2551  -41.8267 C.3       5 UNK         0.1400 
     48 CB         -1.4280  -14.4948  -40.5002 C.3       5 UNK        -0.1800 
     49 N          -1.8409  -14.3021  -42.9055 N.am      5 UNK        -0.5000 
     50 C          -2.2019  -14.6480  -44.1494 C.2       4 UNK         0.5000 
     51 O          -2.3739  -15.8103  -44.5136 O.2       4 UNK        -0.5000 
     52 CA         -2.3536  -13.5040  -45.1679 C.3       4 UNK         0.1400 
     53 CB         -3.7709  -12.9153  -45.1102 C.3       4 UNK        -0.1800 
     54 N          -1.3731  -12.4311  -44.9838 N.am      4 UNK        -0.5000 
     55 C          -0.0485  -12.5781  -45.1143 C.2       3 UNK         0.5000 
     56 O           0.5042  -13.6515  -45.3680 O.2       3 UNK        -0.5000 
     57 CA          0.8049  -11.3196  -44.8917 C.3       3 UNK         0.1400 
     58 CB          1.7151  -11.4822  -43.6644 C.3       3 UNK        -0.1800 
     59 N           1.6237  -11.0412  -46.0677 N.am      3 UNK        -0.5000 
     60 C           1.1627  -10.4951  -47.2013 C.2       2 UNK         0.5000 
     61 O           0.0016  -10.1127  -47.3524 O.2       2 UNK        -0.5000 
     62 CA          2.1679  -10.3398  -48.3586 C.3       2 UNK         0.1400 
     63 CB          2.8270   -8.9525  -48.3150 C.3       2 UNK        -0.1800 
     64 N           3.2129  -11.3667  -48.3530 N.am      2 UNK        -0.5000 
     65 C           3.0147  -12.6389  -48.7219 C.2       1 UNK         0.5000 
     66 O           1.9290  -13.0818  -49.1043 O.2       1 UNK        -0.5000 
     67 C           0.6570  -22.9079  -49.4936 C.2       11 UNK         0.5000 
     68 O           0.2746  -23.8714  -50.1593 O.2       11 UNK        -0.5000 
     69 N          -0.1803  -21.9988  -48.9708 N.am      12 UNK        -0.5000 
     70 CA         -1.6343  -22.0755  -49.1140 C.3       12 UNK         0.1400 
     71 CB         -2.2577  -20.6857  -48.9275 C.3       12 UNK        -0.1800 
     72 C          -2.2899  -23.1039  -48.1723 C.2       12 UNK         0.5000 
     73 O          -3.4564  -23.4309  -48.3896 O.2       12 UNK        -0.5000 
     74 N          -1.5598  -23.6286  -47.1732 N.am      13 UNK        -0.5000 
     75 CA         -2.0561  -24.6353  -46.2246 C.3       13 UNK         0.1400 
     76 CB         -0.9953  -24.9161  -45.1503 C.3       13 UNK        -0.1800 
     77 C          -2.4735  -25.9543  -46.9020 C.2       13 UNK         0.5000 
     78 O          -3.4445  -26.5791  -46.4750 O.2       13 UNK        -0.5000 
     79 N          -1.7732  -26.3202  -47.9857 N.am      14 UNK        -0.5000 
     80 CA         -2.0833  -27.4672  -48.8454 C.3       14 UNK         0.1400 
     81 CB         -0.9072  -27.6906  -49.8080 C.3       14 UNK        -0.1800 
     82 C          -3.4013  -27.3055  -49.6332 C.2       14 UNK         0.5000 
     83 O          -3.9739  -28.3021  -50.0740 O.2       14 UNK        -0.5000 
     84 N          -3.8601  -26.0570  -49.7771 N.am      15 UNK        -0.5000 
     85 CA         -5.1114  -25.6527  -50.4131 C.3       15 UNK         0.1400 
     86 CB         -4.7753  -24.5171  -51.3892 C.3       15 UNK        -0.1800 
     87 C          -6.1504  -25.2017  -49.3626 C.2       15 UNK         0.5000 
     88 O          -7.1087  -24.5042  -49.7102 O.2       15 UNK        -0.5000 
     89 N          -5.9125  -25.5608  -48.0886 N.am      16 UNK        -0.5000 
     90 CA         -6.7028  -25.2582  -46.8884 C.3       16 UNK         0.1400 
     91 CB         -8.0682  -25.9726  -46.9607 C.3       16 UNK        -0.1800 
     92 C          -6.8536  -23.7507  -46.5876 C.2       16 UNK         0.5000 
     93 O          -7.7570  -23.3704  -45.8414 O.2       16 UNK        -0.5000 
     94 N          -5.9959  -22.9185  -47.2002 N.am      17 UNK        -0.5000 
     95 CA         -6.0668  -21.4552  -47.2734 C.3       17 UNK         0.1400 
     96 CB         -5.7625  -20.8292  -45.8979 C.3       17 UNK        -0.1800 
     97 C          -7.3857  -20.9405  -47.8984 C.2       17 UNK         0.5000 
     98 O          -7.8103  -19.8228  -47.5991 O.2       17 UNK        -0.5000 
     99 N          -8.0178  -21.7753  -48.7360 N.am      18 UNK        -0.5000 
    100 CA        -9.3226  -21.5338  -49.3439 C.3       18 UNK         0.1400 
    101 CB       -10.3115  -22.6038  -48.8528 C.3       18 UNK        -0.1800 
    102 C         -9.2160  -21.5482  -50.8730 C.2       18 UNK         0.5000 
    103 O         -9.6949  -20.6168  -51.5206 O.2       18 UNK        -0.5000 
    104 N         -8.5755  -22.5881  -51.4270 N.am      19 UNK        -0.5000 
    105 CA        -8.3658  -22.7427  -52.8700 C.3       19 UNK         0.1400 
    106 CB        -8.3483  -24.2401  -53.2230 C.3       19 UNK        -0.1800 
    107 C         -7.1124  -22.0006  -53.3823 C.2       19 UNK         0.5000 
    108 O         -6.9223  -21.9056  -54.5953 O.2       19 UNK        -0.5000 
    109 N         -6.2987  -21.4692  -52.4626 N.am      20 UNK        -0.5000 
    110 CA        -5.1738  -20.5765  -52.7173 C.3       20 UNK         0.1400 
    111 CB        -3.8589  -21.3629  -52.5807 C.3       20 UNK        -0.1800 
    112 C         -5.2595  -19.4554  -51.6625 C.2       20 UNK         0.5000 
    113 O         -5.5339  -19.7807  -50.5066 O.2       20 UNK        -0.5000 
    114 N         -5.0402  -18.1671  -51.9729 N.am      21 UNK        -0.5000 
    115 CA        -4.7328  -17.5164  -53.2545 C.3       21 UNK         0.1400 
    116 CB        -5.9592  -17.5009  -54.1932 C.3       21 UNK        -0.1800 
    117 C         -3.4330  -18.0234  -53.9090 C.2       21 UNK         0.5000 
    118 O         -3.4192  -18.3606  -55.0929 O.2       21 UNK        -0.5000 
    119 N         -2.3716  -18.0991  -53.0977 N.am      22 UNK        -0.5000 
    120 CA        -1.0217  -18.5381  -53.4928 C.3       22 UNK         0.1400 
    121 C         -0.2308  -17.5411  -54.3923 C.2       22 UNK         0.5000 
    122 N         -0.6685  -16.2993  -54.5605 N.am      22 UNK        -0.7600 
    123 O          0.7980  -17.9066  -54.9538 O.2       22 UNK        -0.5000 
    124 C124       -0.1867  -18.9903  -52.2633 C.3       23 UNK        -0.0398 
    125 S125       -0.1372  -17.7550  -50.9159 S.3       23 UNK        -0.2404 
    126 C126        1.4510  -16.9109  -51.1930 C.3       23 UNK        -0.0205 
    127 H127        4.7503  -16.0452  -51.7525 H         1 UNK         0.0600 
    128 H128        5.4806  -14.8534  -52.8259 H         1 UNK         0.0600 
    129 H129        3.7218  -15.0141  -52.7553 H         1 UNK         0.0600 
    130 H130        4.2142  -15.4128  -49.6645 H         1 UNK         0.3000 
    131 H131        5.1374  -12.9798  -48.5751 H         1 UNK         0.0600 
    132 H132        4.2365  -13.7543  -46.4547 H         1 UNK         0.0800 
    133 H133        3.1573  -14.8794  -47.2111 H         1 UNK         0.0800 
    134 H134        5.0716  -17.9888  -46.6344 H         1 UNK         0.0800 
    135 H135        3.5895  -17.0947  -46.4988 H         1 UNK         0.0800 
    136 H136        2.4071  -16.3453  -48.7209 H         1 UNK         0.1150 
    137 H137        3.0245  -18.9744  -52.0352 H         1 UNK         0.1150 
    138 H138        5.5812  -19.2316  -48.6088 H         1 UNK         0.1150 
    139 H139        4.8519  -20.4923  -52.0776 H         1 UNK         0.0800 
    140 H140        6.1664  -20.2493  -50.9564 H         1 UNK         0.0800 
    141 H141        2.7305  -22.7966  -51.3261 H         1 UNK         0.0800 
    142 H142        2.4595  -21.1908  -50.7087 H         1 UNK         0.0800 
    143 H143        2.5523  -23.7595  -49.0716 H         1 UNK         0.0600 
    144 H144        3.1176  -21.2385  -48.0966 H         1 UNK         0.3000 
    145 H145        3.5057  -22.3716  -45.1027 H         1 UNK         0.0600 
    146 H146        4.1500  -19.9650  -45.1612 H         1 UNK         0.0600 
    147 H147        4.4934  -20.7519  -46.6877 H         1 UNK         0.0600 
    148 H148        3.0786  -19.7024  -46.5317 H         1 UNK         0.0600 
    149 H149        1.4971  -20.2570  -44.7388 H         1 UNK         0.3000 
    150 H150       -0.2025  -21.9392  -42.1448 H         1 UNK         0.0600 
    151 H151        1.7891  -21.0897  -40.9109 H         1 UNK         0.0600 
    152 H152        0.4469  -19.9613  -40.7918 H         1 UNK         0.0600 
    153 H153        1.7880  -19.6229  -41.8836 H         1 UNK         0.0600 
    154 H154       -0.1683  -19.2582  -43.3062 H         1 UNK         0.3000 
    155 H155       -2.7212  -19.9415  -45.6776 H         1 UNK         0.0600 
    156 H156       -3.9542  -18.1575  -44.5027 H         1 UNK         0.0600 
    157 H157       -2.9310  -18.3359  -43.0779 H         1 UNK         0.0600 
    158 H158       -4.0225  -19.6329  -43.5518 H         1 UNK         0.0600 
    159 H159       -1.5643  -17.4807  -44.9443 H         1 UNK         0.3000 
    160 H160        1.3404  -17.6560  -47.0327 H         1 UNK         0.0600 
    161 H161       -1.1840  -15.9251  -46.9100 H         1 UNK         0.0600 
    162 H162       -0.7004  -16.8747  -48.2965 H         1 UNK         0.0600 
    163 H163        0.3076  -15.5362  -47.7607 H         1 UNK         0.0600 
    164 H164        0.6097  -15.6215  -45.2390 H         1 UNK         0.3000 
    165 H165        2.2672  -16.8402  -42.2972 H         1 UNK         0.0600 
    166 H166        2.7662  -14.5758  -44.3045 H         1 UNK         0.0600 
    167 H167        3.2297  -14.5442  -42.6021 H         1 UNK         0.0600 
    168 H168        3.9570  -15.7114  -43.6962 H         1 UNK         0.0600 
    169 H169        0.6234  -14.5446  -42.9415 H         1 UNK         0.3000 
    170 H170       -2.4356  -15.9228  -41.7450 H         1 UNK         0.0600 
    171 H171       -1.2456  -15.1837  -39.6744 H         1 UNK         0.0600 
    172 H172       -0.5970  -13.7889  -40.5287 H         1 UNK         0.0600 
    173 H173       -2.3344  -13.9376  -40.2626 H         1 UNK         0.0600 
    174 H174       -1.7242  -13.3228  -42.6919 H         1 UNK         0.3000 
    175 H175       -2.2024  -13.9237  -46.1639 H         1 UNK         0.0600 
    176 H176       -3.9756  -12.4481  -44.1461 H         1 UNK         0.0600 
    177 H177       -3.9177  -12.1637  -45.8862 H         1 UNK         0.0600 
    178 H178       -4.5220  -13.6911  -45.2653 H         1 UNK         0.0600 
    179 H179       -1.7452  -11.5141  -44.7827 H         1 UNK         0.3000 
    180 H180        0.1469  -10.4668  -44.7104 H         1 UNK         0.0600 
    181 H181        2.4536  -12.2704  -43.8082 H         1 UNK         0.0600 
    182 H182        1.1350  -11.7311  -42.7748 H         1 UNK         0.0600 
    183 H183        2.2536  -10.5585  -43.4517 H         1 UNK         0.0600 
    184 H184        2.5815  -11.3549  -46.0384 H         1 UNK         0.3000 
    185 H185        1.6092  -10.4193  -49.2939 H         1 UNK         0.0600 
    186 H186        3.4868   -8.8021  -49.1698 H         1 UNK         0.0600 
    187 H187        2.0754   -8.1623  -48.3437 H         1 UNK         0.0600 
    188 H188        3.4149   -8.8130  -47.4070 H         1 UNK         0.0600 
    189 H189        4.1345  -11.0700  -48.0651 H         1 UNK         0.3000 
    190 H190        0.1843  -21.2545  -48.3875 H         1 UNK         0.3000 
    191 H191       -1.8565  -22.3937  -50.1345 H         1 UNK         0.0600 
    192 H192       -2.2298  -20.3671  -47.8883 H         1 UNK         0.0600 
    193 H193       -3.3033  -20.6889  -49.2333 H         1 UNK         0.0600 
    194 H194       -1.7483  -19.9324  -49.5270 H         1 UNK         0.0600 
    195 H195       -0.5970  -23.3313  -47.0486 H         1 UNK         0.3000 
    196 H196       -2.9375  -24.2165  -45.7342 H         1 UNK         0.0600 
    197 H197       -1.3846  -25.5873  -44.3840 H         1 UNK         0.0600 
    198 H198       -0.6810  -24.0009  -44.6501 H         1 UNK         0.0600 
    199 H199       -0.1062  -25.3838  -45.5746 H         1 UNK         0.0600 
    200 H200       -1.0006  -25.7360  -48.2736 H         1 UNK         0.3000 
    201 H201       -2.1849  -28.3506  -48.2117 H         1 UNK         0.0600 
    202 H202        0.0176  -27.8825  -49.2636 H         1 UNK         0.0600 
    203 H203       -0.7446  -26.8242  -50.4511 H         1 UNK         0.0600 
    204 H204       -1.0871  -28.5509  -50.4541 H         1 UNK         0.0600 
    205 H205       -3.3438  -25.3027  -49.3406 H         1 UNK         0.3000 
    206 H206       -5.5456  -26.4822  -50.9741 H         1 UNK         0.0600 
    207 H207       -3.9974  -24.8133  -52.0929 H         1 UNK         0.0600 
    208 H208       -5.6398  -24.2193  -51.9748 H         1 UNK         0.0600 
    209 H209       -4.4271  -23.6360  -50.8538 H         1 UNK         0.0600 
    210 H210       -5.0701  -26.0925  -47.9081 H         1 UNK         0.3000 
    211 H211       -6.1505  -25.6792  -46.0473 H         1 UNK         0.0600 
    212 H212       -8.7037  -25.5510  -47.7402 H         1 UNK         0.0600 
    213 H213       -8.6084  -25.8869  -46.0172 H         1 UNK         0.0600 
    214 H214       -7.9464  -27.0361  -47.1659 H         1 UNK         0.0600 
    215 H215       -5.2455  -23.3297  -47.7496 H         1 UNK         0.3000 
    216 H216       -5.2740  -21.1504  -47.9566 H         1 UNK         0.0600 
    217 H217       -4.8429  -21.2360  -45.4775 H         1 UNK         0.0600 
    218 H218       -6.5660  -21.0113  -45.1838 H         1 UNK         0.0600 
    219 H219       -5.6345  -19.7494  -45.9795 H         1 UNK         0.0600 
    220 H220       -7.5929  -22.6762  -48.9267 H         1 UNK         0.3000 
    221 H221       -9.7104  -20.5558  -49.0515 H         1 UNK         0.0600 
    222 H222       -9.9777  -23.6115  -49.1040 H         1 UNK         0.0600 
    223 H223      -10.4328  -22.5559  -47.7704 H         1 UNK         0.0600 
    224 H224      -11.2966  -22.4609  -49.2985 H         1 UNK         0.0600 
    225 H225       -8.1918  -23.3176  -50.8328 H         1 UNK         0.3000 
    226 H226       -9.2127  -22.3035  -53.4016 H         1 UNK         0.0600 
    227 H227       -9.3347  -24.6801  -53.0757 H         1 UNK         0.0600 
    228 H228       -8.0788  -24.3999  -54.2678 H         1 UNK         0.0600 
    229 H229       -7.6494  -24.8053  -52.6099 H         1 UNK         0.0600 
    230 H230       -6.5599  -21.5395  -51.4880 H         1 UNK         0.3000 
    231 H231       -5.2389  -20.1842  -53.7284 H         1 UNK         0.0600 
    232 H232       -3.0073  -20.7742  -52.9155 H         1 UNK         0.0600 
    233 H233       -3.8753  -22.2711  -53.1831 H         1 UNK         0.0600 
    234 H234       -3.6655  -21.6447  -51.5471 H         1 UNK         0.0600 
    235 H235       -5.1038  -17.5181  -51.2021 H         1 UNK         0.3000 
    236 H236       -4.5307  -16.4738  -53.0041 H         1 UNK         0.0600 
    237 H237       -6.8200  -17.0499  -53.6995 H         1 UNK         0.0600 
    238 H238       -5.7544  -16.9038  -55.0826 H         1 UNK         0.0600 
    239 H239       -6.2592  -18.4887  -54.5365 H         1 UNK         0.0600 
    240 H240       -2.4649  -17.8019  -52.1367 H         1 UNK         0.3000 
    241 H241       -1.1546  -19.4240  -54.1168 H         1 UNK         0.0600 
    242 H242       -1.5051  -15.9819  -54.0994 H         1 UNK         0.3800 
    243 H243       -0.1510  -15.6673  -55.1507 H         1 UNK         0.3800 
    244 H244       -0.6296  -19.8969  -51.8490 H         1 UNK         0.0800 
    245 H245        0.8237  -19.2759  -52.5553 H         1 UNK         0.0800 
    246 H246        1.3556  -15.8780  -50.8534 H         1 UNK         0.0800 
    247 H247        1.6720  -16.8539  -52.2593 H         1 UNK         0.0800 
@<TRIPOS>BOND
     1    1    2 1    
     2    1  127 1    
     3    1  128 1    
     4    1  129 1    
     5    2    3 2    
     6    2    4 am   BACKBONE|DICT|INTERRES
     7    4    5 1    
     8    4  130 1    
     9    5    6 1    
    10    5   65 1    
    11    5  131 1    
    12    6    7 1    
    13    6  132 1    
    14    6  133 1    
    15    7    8 1    
    16    8    9 1    
    17    8  134 1    
    18    8  135 1    
    19    9   10 ar   
    20    9   14 ar   
    21   10   11 ar   
    22   10  136 1    
    23   11   12 ar   
    24   11  126 1    
    25   12   13 ar   
    26   12  137 1    
    27   13   14 ar   
    28   13   15 1    
    29   14  138 1    
    30   15   16 1    
    31   15  139 1    
    32   15  140 1    
    33   16   17 1    
    34   17   18 1    
    35   17  141 1    
    36   17  142 1    
    37   18   19 1    
    38   18   67 1    
    39   18  143 1    
    40   19   20 am   BACKBONE|DICT|INTERRES
    41   19  144 1    
    42   20   21 2    
    43   20   22 1    
    44   22   23 1    
    45   22   24 1    
    46   22  145 1    
    47   23  146 1    
    48   23  147 1    
    49   23  148 1    
    50   24   25 am   BACKBONE|DICT|INTERRES
    51   24  149 1    
    52   25   26 2    
    53   25   27 1    
    54   27   28 1    
    55   27   29 1    
    56   27  150 1    
    57   28  151 1    
    58   28  152 1    
    59   28  153 1    
    60   29   30 am   BACKBONE|DICT|INTERRES
    61   29  154 1    
    62   30   31 2    
    63   30   32 1    
    64   32   33 1    
    65   32   34 1    
    66   32  155 1    
    67   33  156 1    
    68   33  157 1    
    69   33  158 1    
    70   34   35 am   BACKBONE|DICT|INTERRES
    71   34  159 1    
    72   35   36 2    
    73   35   37 1    
    74   37   38 1    
    75   37   39 1    
    76   37  160 1    
    77   38  161 1    
    78   38  162 1    
    79   38  163 1    
    80   39   40 am   BACKBONE|DICT|INTERRES
    81   39  164 1    
    82   40   41 2    
    83   40   42 1    
    84   42   43 1    
    85   42   44 1    
    86   42  165 1    
    87   43  166 1    
    88   43  167 1    
    89   43  168 1    
    90   44   45 am   BACKBONE|DICT|INTERRES
    91   44  169 1    
    92   45   46 2    
    93   45   47 1    
    94   47   48 1    
    95   47   49 1    
    96   47  170 1    
    97   48  171 1    
    98   48  172 1    
    99   48  173 1    
   100   49   50 am   BACKBONE|DICT|INTERRES
   101   49  174 1    
   102   50   51 2    
   103   50   52 1    
   104   52   53 1    
   105   52   54 1    
   106   52  175 1    
   107   53  176 1    
   108   53  177 1    
   109   53  178 1    
   110   54   55 am   BACKBONE|DICT|INTERRES
   111   54  179 1    
   112   55   56 2    
   113   55   57 1    
   114   57   58 1    
   115   57   59 1    
   116   57  180 1    
   117   58  181 1    
   118   58  182 1    
   119   58  183 1    
   120   59   60 am   BACKBONE|DICT|INTERRES
   121   59  184 1    
   122   60   61 2    
   123   60   62 1    
   124   62   63 1    
   125   62   64 1    
   126   62  185 1    
   127   63  186 1    
   128   63  187 1    
   129   63  188 1    
   130   64   65 am   BACKBONE|DICT|INTERRES
   131   64  189 1    
   132   65   66 2    
   133   67   68 2    
   134   67   69 am   BACKBONE|DICT|INTERRES
   135   69   70 1    
   136   69  190 1    
   137   70   71 1    
   138   70   72 1    
   139   70  191 1    
   140   71  192 1    
   141   71  193 1    
   142   71  194 1    
   143   72   73 2    
   144   72   74 am   BACKBONE|DICT|INTERRES
   145   74   75 1    
   146   74  195 1    
   147   75   76 1    
   148   75   77 1    
   149   75  196 1    
   150   76  197 1    
   151   76  198 1    
   152   76  199 1    
   153   77   78 2    
   154   77   79 am   BACKBONE|DICT|INTERRES
   155   79   80 1    
   156   79  200 1    
   157   80   81 1    
   158   80   82 1    
   159   80  201 1    
   160   81  202 1    
   161   81  203 1    
   162   81  204 1    
   163   82   83 2    
   164   82   84 am   BACKBONE|DICT|INTERRES
   165   84   85 1    
   166   84  205 1    
   167   85   86 1    
   168   85   87 1    
   169   85  206 1    
   170   86  207 1    
   171   86  208 1    
   172   86  209 1    
   173   87   88 2    
   174   87   89 am   BACKBONE|DICT|INTERRES
   175   89   90 1    
   176   89  210 1    
   177   90   91 1    
   178   90   92 1    
   179   90  211 1    
   180   91  212 1    
   181   91  213 1    
   182   91  214 1    
   183   92   93 2    
   184   92   94 am   BACKBONE|DICT|INTERRES
   185   94   95 1    
   186   94  215 1    
   187   95   96 1    
   188   95   97 1    
   189   95  216 1    
   190   96  217 1    
   191   96  218 1    
   192   96  219 1    
   193   97   98 2    
   194   97   99 am   BACKBONE|DICT|INTERRES
   195   99  100 1    
   196   99  220 1    
   197  100  101 1    
   198  100  102 1    
   199  100  221 1    
   200  101  222 1    
   201  101  223 1    
   202  101  224 1    
   203  102  103 2    
   204  102  104 am   BACKBONE|DICT|INTERRES
   205  104  105 1    
   206  104  225 1    
   207  105  106 1    
   208  105  107 1    
   209  105  226 1    
   210  106  227 1    
   211  106  228 1    
   212  106  229 1    
   213  107  108 2    
   214  107  109 am   BACKBONE|DICT|INTERRES
   215  109  110 1    
   216  109  230 1    
   217  110  111 1    
   218  110  112 1    
   219  110  231 1    
   220  111  232 1    
   221  111  233 1    
   222  111  234 1    
   223  112  113 2    
   224  112  114 am   BACKBONE|DICT|INTERRES
   225  114  115 1    
   226  114  235 1    
   227  115  116 1    
   228  115  117 1    
   229  115  236 1    
   230  116  237 1    
   231  116  238 1    
   232  116  239 1    
   233  117  118 2    
   234  117  119 am   BACKBONE|DICT|INTERRES
   235  119  120 1    
   236  119  240 1    
   237  120  121 1    
   238  120  124 1    
   239  120  241 1    
   240  121  122 am   BACKBONE|DICT|INTERRES
   241  121  123 2    
   242  122  242 1    
   243  122  243 1    
   244  124  125 1    
   245  124  244 1    
   246  124  245 1    
   247  125  126 1    
   248  126  246 1    
   249  126  247 1    
@<TRIPOS>SUBSTRUCTURE
     1 UNK         1 GROUP             0       ****    0 ROOT    
