@<TRIPOS>MOLECULE
3R540
247   249    1
SMALL
USER_CHARGES


@<TRIPOS>ATOM
      1 CA          0.7126  -13.4276  -50.5170 C.3       0 UNK        -0.1800 
      2 C           2.0407  -13.2566  -49.7914 C.2       0 UNK         0.5000 
      3 O           2.4704  -12.1256  -49.5610 O.2       0 UNK        -0.5000 
      4 N           2.6932  -14.3717  -49.4409 N.am      1 UNK        -0.5000 
      5 CA          3.9388  -14.4127  -48.6645 C.3       1 UNK         0.1400 
      6 C6          4.6313  -15.7961  -48.7778 C.3       23 UNK        -0.0398 
      7 S7          5.3723  -16.0265  -50.4274 S.3       23 UNK        -0.2404 
      8 C8          5.7396  -17.8147  -50.4227 C.3       23 UNK        -0.0205 
      9 C9          4.4988  -18.7001  -50.4862 C.ar      23 UNK        -0.0193 
     10 C10         3.4248  -18.3757  -51.3198 C.ar      23 UNK        -0.1150 
     11 C11         2.2869  -19.1834  -51.3700 C.ar      23 UNK        -0.0193 
     12 C12         2.2337  -20.3474  -50.5981 C.ar      23 UNK        -0.1150 
     13 C13         3.3165  -20.7055  -49.7876 C.ar      23 UNK        -0.0193 
     14 C14         4.4408  -19.8752  -49.7314 C.ar      23 UNK        -0.1150 
     15 C15         3.2920  -22.0089  -49.0028 C.3       23 UNK        -0.0205 
     16 S16         3.2428  -21.7508  -47.2001 S.3       23 UNK        -0.2404 
     17 C17         1.6126  -20.9711  -46.9553 C.3       23 UNK        -0.0398 
     18 CA          0.5050  -21.9969  -46.6071 C.3       11 UNK         0.1400 
     19 N          -0.5385  -21.4224  -45.7554 N.am      11 UNK        -0.5000 
     20 C          -1.5248  -22.1185  -45.1725 C.2       10 UNK         0.5000 
     21 O          -1.6329  -23.3419  -45.2453 O.2       10 UNK        -0.5000 
     22 CA         -2.6007  -21.3093  -44.4251 C.3       10 UNK         0.1400 
     23 CB         -2.1331  -20.9452  -43.0086 C.3       10 UNK        -0.1800 
     24 N          -2.9886  -20.0984  -45.1497 N.am      10 UNK        -0.5000 
     25 C          -3.5936  -20.1039  -46.3460 C.2       9 UNK         0.5000 
     26 O          -3.9551  -21.1292  -46.9234 O.2       9 UNK        -0.5000 
     27 CA         -3.7884  -18.7452  -47.0375 C.3       9 UNK         0.1400 
     28 CB         -5.0435  -18.0324  -46.5145 C.3       9 UNK        -0.1800 
     29 N          -2.6295  -17.8618  -46.9116 N.am      9 UNK        -0.5000 
     30 C          -1.4150  -18.1184  -47.4191 C.2       8 UNK         0.5000 
     31 O          -1.1469  -19.1192  -48.0816 O.2       8 UNK        -0.5000 
     32 CA         -0.2959  -17.1188  -47.0728 C.3       8 UNK         0.1400 
     33 CB         -0.4025  -15.8555  -47.9386 C.3       8 UNK        -0.1800 
     34 N          -0.3007  -16.7498  -45.6560 N.am      8 UNK        -0.5000 
     35 C          -0.1296  -17.6131  -44.6441 C.2       7 UNK         0.5000 
     36 O           0.1155  -18.8077  -44.7989 O.2       7 UNK        -0.5000 
     37 CA         -0.3300  -17.0682  -43.2210 C.3       7 UNK         0.1400 
     38 CB          0.9449  -16.3845  -42.7038 C.3       7 UNK        -0.1800 
     39 N          -1.4612  -16.1430  -43.1584 N.am      7 UNK        -0.5000 
     40 C          -2.7449  -16.5194  -43.2520 C.2       6 UNK         0.5000 
     41 O          -3.1060  -17.6920  -43.3521 O.2       6 UNK        -0.5000 
     42 CA         -3.7983  -15.3953  -43.2778 C.3       6 UNK         0.1400 
     43 CB         -4.1580  -14.9585  -41.8501 C.3       6 UNK        -0.1800 
     44 N          -3.3616  -14.2279  -44.0457 N.am      6 UNK        -0.5000 
     45 C          -3.1543  -14.2295  -45.3701 C.2       5 UNK         0.5000 
     46 O          -3.3629  -15.2054  -46.0888 O.2       5 UNK        -0.5000 
     47 CA         -2.5621  -12.9459  -45.9865 C.3       5 UNK         0.1400 
     48 CB         -3.6829  -11.9742  -46.3854 C.3       5 UNK        -0.1800 
     49 N          -1.6142  -12.2481  -45.1116 N.am      5 UNK        -0.5000 
     50 C          -0.5081  -12.7862  -44.5812 C.2       4 UNK         0.5000 
     51 O          -0.1584  -13.9540  -44.7665 O.2       4 UNK        -0.5000 
     52 CA          0.2950  -11.8883  -43.6317 C.3       4 UNK         0.1400 
     53 CB         -0.5163  -11.5944  -42.3520 C.3       4 UNK        -0.1800 
     54 N           1.5488  -12.5505  -43.2816 N.am      4 UNK        -0.5000 
     55 C           2.6037  -11.9540  -42.7168 C.2       3 UNK         0.5000 
     56 O           2.6616  -10.7435  -42.4982 O.2       3 UNK        -0.5000 
     57 CA          3.7971  -12.8391  -42.3105 C.3       3 UNK         0.1400 
     58 CB          3.8017  -13.0388  -40.7867 C.3       3 UNK        -0.1800 
     59 N           3.8060  -14.1628  -42.9428 N.am      3 UNK        -0.5000 
     60 C           4.2900  -14.5000  -44.1473 C.2       2 UNK         0.5000 
     61 O           4.2943  -15.6742  -44.5192 O.2       2 UNK        -0.5000 
     62 CA          4.9067  -13.4152  -45.0660 C.3       2 UNK         0.1400 
     63 CB          6.3911  -13.2000  -44.7194 C.3       2 UNK        -0.1800 
     64 N           4.8329  -13.7529  -46.4892 N.am      2 UNK        -0.5000 
     65 C           3.7185  -14.0132  -47.1866 C.2       1 UNK         0.5000 
     66 O           2.5833  -13.9484  -46.7101 O.2       1 UNK        -0.5000 
     67 C          -0.0878  -22.6404  -47.8763 C.2       11 UNK         0.5000 
     68 O           0.2613  -23.7749  -48.1978 O.2       11 UNK        -0.5000 
     69 N          -1.0007  -21.9278  -48.5513 N.am      12 UNK        -0.5000 
     70 CA         -1.7272  -22.4101  -49.7259 C.3       12 UNK         0.1400 
     71 CB         -2.5692  -21.2697  -50.3141 C.3       12 UNK        -0.1800 
     72 C          -2.5899  -23.6496  -49.4210 C.2       12 UNK         0.5000 
     73 O          -2.5543  -24.6125  -50.1874 O.2       12 UNK        -0.5000 
     74 N          -3.2904  -23.6368  -48.2778 N.am      13 UNK        -0.5000 
     75 CA         -4.0565  -24.7743  -47.7681 C.3       13 UNK         0.1400 
     76 CB         -4.8643  -24.3447  -46.5347 C.3       13 UNK        -0.1800 
     77 C          -3.1697  -25.9944  -47.4508 C.2       13 UNK         0.5000 
     78 O          -3.5160  -27.1103  -47.8390 O.2       13 UNK        -0.5000 
     79 N          -2.0213  -25.7629  -46.7968 N.am      14 UNK        -0.5000 
     80 CA         -1.0117  -26.7826  -46.4916 C.3       14 UNK         0.1400 
     81 CB          0.0504  -26.1918  -45.5524 C.3       14 UNK        -0.1800 
     82 C          -0.3543  -27.3833  -47.7504 C.2       14 UNK         0.5000 
     83 O          -0.0426  -28.5743  -47.7647 O.2       14 UNK        -0.5000 
     84 N          -0.2015  -26.5630  -48.7982 N.am      15 UNK        -0.5000 
     85 CA          0.2600  -26.9526  -50.1327 C.3       15 UNK         0.1400 
     86 CB          0.7796  -25.7014  -50.8612 C.3       15 UNK        -0.1800 
     87 C          -0.8125  -27.6811  -50.9753 C.2       15 UNK         0.5000 
     88 O          -0.5230  -28.0550  -52.1127 O.2       15 UNK        -0.5000 
     89 N          -2.0166  -27.8737  -50.4151 N.am      16 UNK        -0.5000 
     90 CA         -3.1843  -28.5463  -50.9921 C.3       16 UNK         0.1400 
     91 CB         -2.8728  -30.0143  -51.3544 C.3       16 UNK        -0.1800 
     92 C          -3.8525  -27.7634  -52.1408 C.2       16 UNK         0.5000 
     93 O          -4.5440  -28.3623  -52.9675 O.2       16 UNK        -0.5000 
     94 N          -3.6765  -26.4368  -52.1505 N.am      17 UNK        -0.5000 
     95 CA         -4.4561  -25.4999  -52.9551 C.3       17 UNK         0.1400 
     96 CB         -3.5365  -24.3484  -53.4031 C.3       17 UNK        -0.1800 
     97 C          -5.6572  -24.9920  -52.1300 C.2       17 UNK         0.5000 
     98 O          -5.9086  -25.4788  -51.0231 O.2       17 UNK        -0.5000 
     99 N          -6.3914  -24.0174  -52.6800 N.am      18 UNK        -0.5000 
    100 CA        -7.4578  -23.3038  -51.9762 C.3       18 UNK         0.1400 
    101 CB        -8.2106  -22.4146  -52.9779 C.3       18 UNK        -0.1800 
    102 C         -6.8946  -22.4513  -50.8235 C.2       18 UNK         0.5000 
    103 O         -5.7956  -21.9063  -50.9472 O.2       18 UNK        -0.5000 
    104 N         -7.6712  -22.3126  -49.7426 N.am      19 UNK        -0.5000 
    105 CA        -7.3343  -21.5146  -48.5608 C.3       19 UNK         0.1400 
    106 CB        -8.1311  -22.0501  -47.3576 C.3       19 UNK        -0.1800 
    107 C         -7.5618  -20.0065  -48.8043 C.2       19 UNK         0.5000 
    108 O         -8.3508  -19.3709  -48.1031 O.2       19 UNK        -0.5000 
    109 N         -6.8734  -19.4705  -49.8134 N.am      20 UNK        -0.5000 
    110 CA        -6.8433  -18.0664  -50.2013 C.3       20 UNK         0.1400 
    111 CB        -7.5344  -17.9118  -51.5649 C.3       20 UNK        -0.1800 
    112 C         -5.3755  -17.6310  -50.2842 C.2       20 UNK         0.5000 
    113 O         -4.5018  -18.4748  -50.4982 O.2       20 UNK        -0.5000 
    114 N         -5.1243  -16.3273  -50.1169 N.am      21 UNK        -0.5000 
    115 CA        -3.7964  -15.7094  -50.0365 C.3       21 UNK         0.1400 
    116 CB        -3.9465  -14.3169  -49.4012 C.3       21 UNK        -0.1800 
    117 C         -3.0444  -15.6679  -51.3860 C.2       21 UNK         0.5000 
    118 O         -2.6925  -14.5914  -51.8707 O.2       21 UNK        -0.5000 
    119 N         -2.8182  -16.8525  -51.9619 N.am      22 UNK        -0.5000 
    120 CA        -2.0571  -17.1240  -53.1927 C.3       22 UNK         0.1400 
    121 C         -2.7392  -16.6418  -54.5098 C.2       22 UNK         0.5000 
    122 N         -4.0133  -16.2697  -54.5002 N.am      22 UNK        -0.7600 
    123 O         -2.1166  -16.6354  -55.5685 O.2       22 UNK        -0.5000 
    124 C124       -0.5695  -16.6831  -53.1002 C.3       23 UNK        -0.0398 
    125 S125        0.2817  -17.3213  -51.6147 S.3       23 UNK        -0.2404 
    126 C126        1.1327  -18.7857  -52.2738 C.3       23 UNK        -0.0205 
    127 H127        0.5062  -14.4722  -50.7458 H         1 UNK         0.0600 
    128 H128        0.7198  -12.8729  -51.4551 H         1 UNK         0.0600 
    129 H129       -0.1035  -13.0491  -49.9015 H         1 UNK         0.0600 
    130 H130        2.2888  -15.2695  -49.6616 H         1 UNK         0.3000 
    131 H131        4.6112  -13.6607  -49.0839 H         1 UNK         0.0600 
    132 H132        5.4369  -15.9068  -48.0500 H         1 UNK         0.0800 
    133 H133        3.9226  -16.6003  -48.5714 H         1 UNK         0.0800 
    134 H134        6.3346  -18.0475  -49.5381 H         1 UNK         0.0800 
    135 H135        6.3666  -18.0426  -51.2854 H         1 UNK         0.0800 
    136 H136        3.4631  -17.4818  -51.9264 H         1 UNK         0.1150 
    137 H137        1.3581  -20.9803  -50.6401 H         1 UNK         0.1150 
    138 H138        5.2749  -20.1531  -49.1022 H         1 UNK         0.1150 
    139 H139        2.4534  -22.6337  -49.3105 H         1 UNK         0.0800 
    140 H140        4.1902  -22.5786  -49.2449 H         1 UNK         0.0800 
    141 H141        1.3439  -20.3453  -47.8079 H         1 UNK         0.0800 
    142 H142        1.7491  -20.2800  -46.1241 H         1 UNK         0.0800 
    143 H143        0.9568  -22.7992  -46.0196 H         1 UNK         0.0600 
    144 H144       -0.4910  -20.4197  -45.5949 H         1 UNK         0.3000 
    145 H145       -3.4869  -21.9409  -44.3348 H         1 UNK         0.0600 
    146 H146       -2.9157  -20.4237  -42.4573 H         1 UNK         0.0600 
    147 H147       -1.8763  -21.8407  -42.4414 H         1 UNK         0.0600 
    148 H148       -1.2521  -20.3040  -43.0248 H         1 UNK         0.0600 
    149 H149       -2.7707  -19.2107  -44.7101 H         1 UNK         0.3000 
    150 H150       -3.9281  -18.9533  -48.0964 H         1 UNK         0.0600 
    151 H151       -5.9223  -18.6722  -46.5982 H         1 UNK         0.0600 
    152 H152       -5.2456  -17.1242  -47.0826 H         1 UNK         0.0600 
    153 H153       -4.9396  -17.7535  -45.4658 H         1 UNK         0.0600 
    154 H154       -2.7799  -16.9849  -46.4196 H         1 UNK         0.3000 
    155 H155        0.6613  -17.5987  -47.2871 H         1 UNK         0.0600 
    156 H156       -1.3538  -15.3459  -47.7983 H         1 UNK         0.0600 
    157 H157       -0.3208  -16.1025  -48.9962 H         1 UNK         0.0600 
    158 H158        0.3912  -15.1474  -47.7037 H         1 UNK         0.0600 
    159 H159       -0.4411  -15.7686  -45.4338 H         1 UNK         0.3000 
    160 H160       -0.5459  -17.9132  -42.5636 H         1 UNK         0.0600 
    161 H161        1.2712  -15.5831  -43.3645 H         1 UNK         0.0600 
    162 H162        1.7651  -17.1004  -42.6383 H         1 UNK         0.0600 
    163 H163        0.7965  -15.9655  -41.7084 H         1 UNK         0.0600 
    164 H164       -1.2396  -15.1580  -43.1708 H         1 UNK         0.3000 
    165 H165       -4.6985  -15.7945  -43.7501 H         1 UNK         0.0600 
    166 H166       -4.9593  -14.2194  -41.8541 H         1 UNK         0.0600 
    167 H167       -4.5032  -15.8073  -41.2581 H         1 UNK         0.0600 
    168 H168       -3.3019  -14.5236  -41.3327 H         1 UNK         0.0600 
    169 H169       -3.1690  -13.3836  -43.5280 H         1 UNK         0.3000 
    170 H170       -2.0220  -13.2346  -46.8896 H         1 UNK         0.0600 
    171 H171       -4.4168  -12.4585  -47.0297 H         1 UNK         0.0600 
    172 H172       -4.2163  -11.5955  -45.5127 H         1 UNK         0.0600 
    173 H173       -3.2866  -11.1197  -46.9341 H         1 UNK         0.0600 
    174 H174       -1.8337  -11.2854  -44.8999 H         1 UNK         0.3000 
    175 H175        0.5158  -10.9558  -44.1550 H         1 UNK         0.0600 
    176 H176       -0.7480  -12.5103  -41.8066 H         1 UNK         0.0600 
    177 H177        0.0273  -10.9348  -41.6757 H         1 UNK         0.0600 
    178 H178       -1.4607  -11.0998  -42.5809 H         1 UNK         0.0600 
    179 H179        1.5842  -13.5333  -43.5210 H         1 UNK         0.3000 
    180 H180        4.7051  -12.2944  -42.5672 H         1 UNK         0.0600 
    181 H181        2.9140  -13.5747  -40.4477 H         1 UNK         0.0600 
    182 H182        3.8256  -12.0812  -40.2645 H         1 UNK         0.0600 
    183 H183        4.6777  -13.6025  -40.4652 H         1 UNK         0.0600 
    184 H184        3.4330  -14.9053  -42.3711 H         1 UNK         0.3000 
    185 H185        4.3660  -12.4774  -44.9371 H         1 UNK         0.0600 
    186 H186        6.8139  -12.3747  -45.2928 H         1 UNK         0.0600 
    187 H187        6.5372  -12.9659  -43.6654 H         1 UNK         0.0600 
    188 H188        6.9825  -14.0918  -44.9317 H         1 UNK         0.0600 
    189 H189        5.7223  -13.8361  -46.9590 H         1 UNK         0.3000 
    190 H190       -1.2016  -20.9757  -48.2524 H         1 UNK         0.3000 
    191 H191       -0.9856  -22.6988  -50.4731 H         1 UNK         0.0600 
    192 H192       -3.3398  -20.9368  -49.6183 H         1 UNK         0.0600 
    193 H193       -3.0712  -21.5857  -51.2287 H         1 UNK         0.0600 
    194 H194       -1.9516  -20.4064  -50.5637 H         1 UNK         0.0600 
    195 H195       -3.3041  -22.7877  -47.7199 H         1 UNK         0.3000 
    196 H196       -4.7622  -25.0697  -48.5470 H         1 UNK         0.0600 
    197 H197       -5.4853  -25.1638  -46.1705 H         1 UNK         0.0600 
    198 H198       -5.5266  -23.5123  -46.7690 H         1 UNK         0.0600 
    199 H199       -4.2170  -24.0328  -45.7153 H         1 UNK         0.0600 
    200 H200       -1.8258  -24.8208  -46.4684 H         1 UNK         0.3000 
    201 H201       -1.5135  -27.5964  -45.9643 H         1 UNK         0.0600 
    202 H202       -0.3980  -25.8360  -44.6247 H         1 UNK         0.0600 
    203 H203        0.5748  -25.3543  -46.0127 H         1 UNK         0.0600 
    204 H204        0.7974  -26.9407  -45.2865 H         1 UNK         0.0600 
    205 H205       -0.4119  -25.5777  -48.6686 H         1 UNK         0.3000 
    206 H206        1.0966  -27.6441  -50.0161 H         1 UNK         0.0600 
    207 H207        1.5648  -25.2082  -50.2878 H         1 UNK         0.0600 
    208 H208        1.2020  -25.9580  -51.8333 H         1 UNK         0.0600 
    209 H209       -0.0158  -24.9760  -51.0311 H         1 UNK         0.0600 
    210 H210       -2.1665  -27.4958  -49.4872 H         1 UNK         0.3000 
    211 H211       -3.9259  -28.5682  -50.1926 H         1 UNK         0.0600 
    212 H212       -2.2099  -30.0896  -52.2165 H         1 UNK         0.0600 
    213 H213       -3.7860  -30.5575  -51.6000 H         1 UNK         0.0600 
    214 H214       -2.4023  -30.5353  -50.5205 H         1 UNK         0.0600 
    215 H215       -3.1471  -26.0111  -51.3938 H         1 UNK         0.3000 
    216 H216       -4.8429  -25.9982  -53.8461 H         1 UNK         0.0600 
    217 H217       -4.0283  -23.7118  -54.1388 H         1 UNK         0.0600 
    218 H218       -2.6263  -24.7287  -53.8670 H         1 UNK         0.0600 
    219 H219       -3.2439  -23.7134  -52.5672 H         1 UNK         0.0600 
    220 H220       -6.1185  -23.6443  -53.5769 H         1 UNK         0.3000 
    221 H221       -8.1537  -24.0394  -51.5671 H         1 UNK         0.0600 
    222 H222       -7.5550  -21.6639  -53.4214 H         1 UNK         0.0600 
    223 H223       -8.6406  -23.0061  -53.7865 H         1 UNK         0.0600 
    224 H224       -9.0311  -21.8854  -52.4915 H         1 UNK         0.0600 
    225 H225       -8.5779  -22.7568  -49.7328 H         1 UNK         0.3000 
    226 H226       -6.2731  -21.6480  -48.3392 H         1 UNK         0.0600 
    227 H227       -7.9315  -23.1086  -47.1905 H         1 UNK         0.0600 
    228 H228       -7.8579  -21.5215  -46.4435 H         1 UNK         0.0600 
    229 H229       -9.2059  -21.9313  -47.4997 H         1 UNK         0.0600 
    230 H230       -6.2119  -20.0662  -50.3062 H         1 UNK         0.3000 
    231 H231       -7.3515  -17.4483  -49.4583 H         1 UNK         0.0600 
    232 H232       -8.5741  -18.2360  -51.5164 H         1 UNK         0.0600 
    233 H233       -7.0371  -18.5010  -52.3369 H         1 UNK         0.0600 
    234 H234       -7.5328  -16.8712  -51.8911 H         1 UNK         0.0600 
    235 H235       -5.9044  -15.6989  -49.9905 H         1 UNK         0.3000 
    236 H236       -3.1890  -16.3122  -49.3586 H         1 UNK         0.0600 
    237 H237       -2.9734  -13.8504  -49.2429 H         1 UNK         0.0600 
    238 H238       -4.5364  -13.6477  -50.0285 H         1 UNK         0.0600 
    239 H239       -4.4369  -14.3846  -48.4309 H         1 UNK         0.0600 
    240 H240       -3.2146  -17.6677  -51.4983 H         1 UNK         0.3000 
    241 H241       -2.0546  -18.2110  -53.2789 H         1 UNK         0.0600 
    242 H242       -4.4503  -15.9696  -55.3575 H         1 UNK         0.3800 
    243 H243       -4.5368  -16.2688  -53.6402 H         1 UNK         0.3800 
    244 H244       -0.5002  -15.5947  -53.0830 H         1 UNK         0.0800 
    245 H245       -0.0193  -16.9980  -53.9879 H         1 UNK         0.0800 
    246 H246        1.5250  -18.5783  -53.2702 H         1 UNK         0.0800 
    247 H247        0.4163  -19.6016  -52.3806 H         1 UNK         0.0800 
@<TRIPOS>BOND
     1    1    2 1    
     2    1  127 1    
     3    1  128 1    
     4    1  129 1    
     5    2    3 2    
     6    2    4 am   BACKBONE|DICT|INTERRES
     7    4    5 1    
     8    4  130 1    
     9    5    6 1    
    10    5   65 1    
    11    5  131 1    
    12    6    7 1    
    13    6  132 1    
    14    6  133 1    
    15    7    8 1    
    16    8    9 1    
    17    8  134 1    
    18    8  135 1    
    19    9   10 ar   
    20    9   14 ar   
    21   10   11 ar   
    22   10  136 1    
    23   11   12 ar   
    24   11  126 1    
    25   12   13 ar   
    26   12  137 1    
    27   13   14 ar   
    28   13   15 1    
    29   14  138 1    
    30   15   16 1    
    31   15  139 1    
    32   15  140 1    
    33   16   17 1    
    34   17   18 1    
    35   17  141 1    
    36   17  142 1    
    37   18   19 1    
    38   18   67 1    
    39   18  143 1    
    40   19   20 am   BACKBONE|DICT|INTERRES
    41   19  144 1    
    42   20   21 2    
    43   20   22 1    
    44   22   23 1    
    45   22   24 1    
    46   22  145 1    
    47   23  146 1    
    48   23  147 1    
    49   23  148 1    
    50   24   25 am   BACKBONE|DICT|INTERRES
    51   24  149 1    
    52   25   26 2    
    53   25   27 1    
    54   27   28 1    
    55   27   29 1    
    56   27  150 1    
    57   28  151 1    
    58   28  152 1    
    59   28  153 1    
    60   29   30 am   BACKBONE|DICT|INTERRES
    61   29  154 1    
    62   30   31 2    
    63   30   32 1    
    64   32   33 1    
    65   32   34 1    
    66   32  155 1    
    67   33  156 1    
    68   33  157 1    
    69   33  158 1    
    70   34   35 am   BACKBONE|DICT|INTERRES
    71   34  159 1    
    72   35   36 2    
    73   35   37 1    
    74   37   38 1    
    75   37   39 1    
    76   37  160 1    
    77   38  161 1    
    78   38  162 1    
    79   38  163 1    
    80   39   40 am   BACKBONE|DICT|INTERRES
    81   39  164 1    
    82   40   41 2    
    83   40   42 1    
    84   42   43 1    
    85   42   44 1    
    86   42  165 1    
    87   43  166 1    
    88   43  167 1    
    89   43  168 1    
    90   44   45 am   BACKBONE|DICT|INTERRES
    91   44  169 1    
    92   45   46 2    
    93   45   47 1    
    94   47   48 1    
    95   47   49 1    
    96   47  170 1    
    97   48  171 1    
    98   48  172 1    
    99   48  173 1    
   100   49   50 am   BACKBONE|DICT|INTERRES
   101   49  174 1    
   102   50   51 2    
   103   50   52 1    
   104   52   53 1    
   105   52   54 1    
   106   52  175 1    
   107   53  176 1    
   108   53  177 1    
   109   53  178 1    
   110   54   55 am   BACKBONE|DICT|INTERRES
   111   54  179 1    
   112   55   56 2    
   113   55   57 1    
   114   57   58 1    
   115   57   59 1    
   116   57  180 1    
   117   58  181 1    
   118   58  182 1    
   119   58  183 1    
   120   59   60 am   BACKBONE|DICT|INTERRES
   121   59  184 1    
   122   60   61 2    
   123   60   62 1    
   124   62   63 1    
   125   62   64 1    
   126   62  185 1    
   127   63  186 1    
   128   63  187 1    
   129   63  188 1    
   130   64   65 am   BACKBONE|DICT|INTERRES
   131   64  189 1    
   132   65   66 2    
   133   67   68 2    
   134   67   69 am   BACKBONE|DICT|INTERRES
   135   69   70 1    
   136   69  190 1    
   137   70   71 1    
   138   70   72 1    
   139   70  191 1    
   140   71  192 1    
   141   71  193 1    
   142   71  194 1    
   143   72   73 2    
   144   72   74 am   BACKBONE|DICT|INTERRES
   145   74   75 1    
   146   74  195 1    
   147   75   76 1    
   148   75   77 1    
   149   75  196 1    
   150   76  197 1    
   151   76  198 1    
   152   76  199 1    
   153   77   78 2    
   154   77   79 am   BACKBONE|DICT|INTERRES
   155   79   80 1    
   156   79  200 1    
   157   80   81 1    
   158   80   82 1    
   159   80  201 1    
   160   81  202 1    
   161   81  203 1    
   162   81  204 1    
   163   82   83 2    
   164   82   84 am   BACKBONE|DICT|INTERRES
   165   84   85 1    
   166   84  205 1    
   167   85   86 1    
   168   85   87 1    
   169   85  206 1    
   170   86  207 1    
   171   86  208 1    
   172   86  209 1    
   173   87   88 2    
   174   87   89 am   BACKBONE|DICT|INTERRES
   175   89   90 1    
   176   89  210 1    
   177   90   91 1    
   178   90   92 1    
   179   90  211 1    
   180   91  212 1    
   181   91  213 1    
   182   91  214 1    
   183   92   93 2    
   184   92   94 am   BACKBONE|DICT|INTERRES
   185   94   95 1    
   186   94  215 1    
   187   95   96 1    
   188   95   97 1    
   189   95  216 1    
   190   96  217 1    
   191   96  218 1    
   192   96  219 1    
   193   97   98 2    
   194   97   99 am   BACKBONE|DICT|INTERRES
   195   99  100 1    
   196   99  220 1    
   197  100  101 1    
   198  100  102 1    
   199  100  221 1    
   200  101  222 1    
   201  101  223 1    
   202  101  224 1    
   203  102  103 2    
   204  102  104 am   BACKBONE|DICT|INTERRES
   205  104  105 1    
   206  104  225 1    
   207  105  106 1    
   208  105  107 1    
   209  105  226 1    
   210  106  227 1    
   211  106  228 1    
   212  106  229 1    
   213  107  108 2    
   214  107  109 am   BACKBONE|DICT|INTERRES
   215  109  110 1    
   216  109  230 1    
   217  110  111 1    
   218  110  112 1    
   219  110  231 1    
   220  111  232 1    
   221  111  233 1    
   222  111  234 1    
   223  112  113 2    
   224  112  114 am   BACKBONE|DICT|INTERRES
   225  114  115 1    
   226  114  235 1    
   227  115  116 1    
   228  115  117 1    
   229  115  236 1    
   230  116  237 1    
   231  116  238 1    
   232  116  239 1    
   233  117  118 2    
   234  117  119 am   BACKBONE|DICT|INTERRES
   235  119  120 1    
   236  119  240 1    
   237  120  121 1    
   238  120  124 1    
   239  120  241 1    
   240  121  122 am   BACKBONE|DICT|INTERRES
   241  121  123 2    
   242  122  242 1    
   243  122  243 1    
   244  124  125 1    
   245  124  244 1    
   246  124  245 1    
   247  125  126 1    
   248  126  246 1    
   249  126  247 1    
@<TRIPOS>SUBSTRUCTURE
     1 UNK         1 GROUP             0       ****    0 ROOT    
