@<TRIPOS>MOLECULE
3R540
247   249    1
SMALL
USER_CHARGES


@<TRIPOS>ATOM
      1 CA         -4.2195  -12.2618  -48.8538 C.3       0 UNK        -0.1800 
      2 C          -3.3740  -13.1930  -47.9979 C.2       0 UNK         0.5000 
      3 O          -2.4811  -12.7264  -47.2919 O.2       0 UNK        -0.5000 
      4 N          -3.6561  -14.5027  -48.0399 N.am      1 UNK        -0.5000 
      5 CA         -2.9185  -15.5456  -47.3068 C.3       1 UNK         0.1400 
      6 C6         -3.3671  -16.9715  -47.7202 C.3       23 UNK        -0.0398 
      7 S7         -2.0090  -18.1879  -47.7103 S.3       23 UNK        -0.2404 
      8 C8         -1.4926  -18.1202  -49.4551 C.3       23 UNK        -0.0205 
      9 C9         -0.3282  -19.0466  -49.7863 C.ar      23 UNK        -0.0193 
     10 C10        -0.3921  -19.8636  -50.9193 C.ar      23 UNK        -0.1150 
     11 C11         0.7049  -20.6430  -51.2967 C.ar      23 UNK        -0.0193 
     12 C12         1.8674  -20.6143  -50.5223 C.ar      23 UNK        -0.1150 
     13 C13         1.9385  -19.8285  -49.3670 C.ar      23 UNK        -0.0193 
     14 C14         0.8391  -19.0386  -49.0143 C.ar      23 UNK        -0.1150 
     15 C15         3.2038  -19.7732  -48.5133 C.3       23 UNK        -0.0205 
     16 S16         4.1007  -21.3584  -48.3554 S.3       23 UNK        -0.2404 
     17 C17         2.8075  -22.4622  -47.6976 C.3       23 UNK        -0.0398 
     18 CA          3.3816  -23.5678  -46.7755 C.3       11 UNK         0.1400 
     19 N           3.8619  -23.0215  -45.5008 N.am      11 UNK        -0.5000 
     20 C           4.6256  -23.6771  -44.6164 C.2       10 UNK         0.5000 
     21 O           5.0898  -24.8006  -44.8133 O.2       10 UNK        -0.5000 
     22 CA          4.8760  -22.9763  -43.2675 C.3       10 UNK         0.1400 
     23 CB          6.0407  -21.9791  -43.3679 C.3       10 UNK        -0.1800 
     24 N           3.6809  -22.2941  -42.7638 N.am      10 UNK        -0.5000 
     25 C           2.5932  -22.9214  -42.2926 C.2       9 UNK         0.5000 
     26 O           2.4976  -24.1452  -42.2009 O.2       9 UNK        -0.5000 
     27 CA          1.3978  -22.0427  -41.8783 C.3       9 UNK         0.1400 
     28 CB          1.5724  -21.5395  -40.4378 C.3       9 UNK        -0.1800 
     29 N           1.1878  -20.9015  -42.7677 N.am      9 UNK        -0.5000 
     30 C           0.8386  -20.9894  -44.0590 C.2       8 UNK         0.5000 
     31 O           0.6043  -22.0494  -44.6375 O.2       8 UNK        -0.5000 
     32 CA          0.8045  -19.6735  -44.8544 C.3       8 UNK         0.1400 
     33 CB         -0.5084  -18.9256  -44.5911 C.3       8 UNK        -0.1800 
     34 N           1.9381  -18.7985  -44.5491 N.am      8 UNK        -0.5000 
     35 C           3.2292  -19.1338  -44.6828 C.2       7 UNK         0.5000 
     36 O           3.6108  -20.2254  -45.0981 O.2       7 UNK        -0.5000 
     37 CA          4.2675  -18.0967  -44.2340 C.3       7 UNK         0.1400 
     38 CB          4.4813  -17.0290  -45.3176 C.3       7 UNK        -0.1800 
     39 N           3.8673  -17.4670  -42.9777 N.am      7 UNK        -0.5000 
     40 C           3.9560  -18.0624  -41.7801 C.2       6 UNK         0.5000 
     41 O           4.4496  -19.1771  -41.6058 O.2       6 UNK        -0.5000 
     42 CA          3.3642  -17.2968  -40.5812 C.3       6 UNK         0.1400 
     43 CB          4.3903  -16.3063  -40.0110 C.3       6 UNK        -0.1800 
     44 N           2.1316  -16.5794  -40.9148 N.am      6 UNK        -0.5000 
     45 C           0.9774  -17.1768  -41.2418 C.2       5 UNK         0.5000 
     46 O           0.8272  -18.3979  -41.2719 O.2       5 UNK        -0.5000 
     47 CA         -0.1967  -16.2601  -41.6374 C.3       5 UNK         0.1400 
     48 CB         -0.9826  -15.8309  -40.3899 C.3       5 UNK        -0.1800 
     49 N           0.1743  -15.0681  -42.4075 N.am      5 UNK        -0.5000 
     50 C           0.8882  -15.0530  -43.5437 C.2       4 UNK         0.5000 
     51 O           1.4450  -16.0465  -44.0106 O.2       4 UNK        -0.5000 
     52 CA          0.9729  -13.7059  -44.2822 C.3       4 UNK         0.1400 
     53 CB          1.4409  -13.8609  -45.7408 C.3       4 UNK        -0.1800 
     54 N          -0.3407  -13.0694  -44.2780 N.am      4 UNK        -0.5000 
     55 C          -0.6330  -11.8625  -43.7782 C.2       3 UNK         0.5000 
     56 O           0.2005  -11.1197  -43.2588 O.2       3 UNK        -0.5000 
     57 CA         -2.1038  -11.4048  -43.8581 C.3       3 UNK         0.1400 
     58 CB         -2.2672  -10.2704  -44.8820 C.3       3 UNK        -0.1800 
     59 N          -3.0169  -12.4984  -44.2010 N.am      3 UNK        -0.5000 
     60 C          -3.4829  -13.3952  -43.3194 C.2       2 UNK         0.5000 
     61 O          -3.2326  -13.3532  -42.1148 O.2       2 UNK        -0.5000 
     62 CA         -4.3569  -14.5429  -43.8655 C.3       2 UNK         0.1400 
     63 CB         -5.8463  -14.2219  -43.6703 C.3       2 UNK        -0.1800 
     64 N          -4.1199  -14.8515  -45.2776 N.am      2 UNK        -0.5000 
     65 C          -2.9807  -15.3555  -45.7746 C.2       1 UNK         0.5000 
     66 O          -1.9949  -15.6074  -45.0838 O.2       1 UNK        -0.5000 
     67 C           2.3255  -24.6788  -46.5832 C.2       11 UNK         0.5000 
     68 O           2.1444  -25.4928  -47.4894 O.2       11 UNK        -0.5000 
     69 N           1.6318  -24.6671  -45.4341 N.am      12 UNK        -0.5000 
     70 CA          0.4320  -25.4444  -45.1055 C.3       12 UNK         0.1400 
     71 CB          0.7446  -26.9528  -45.0241 C.3       12 UNK        -0.1800 
     72 C          -0.7343  -25.1031  -46.0582 C.2       12 UNK         0.5000 
     73 O          -1.4456  -25.9940  -46.5271 O.2       12 UNK        -0.5000 
     74 N          -0.8732  -23.8049  -46.3541 N.am      13 UNK        -0.5000 
     75 CA         -1.8571  -23.2518  -47.2765 C.3       13 UNK         0.1400 
     76 CB         -1.4025  -21.8455  -47.6962 C.3       13 UNK        -0.1800 
     77 C          -3.2656  -23.2114  -46.6582 C.2       13 UNK         0.5000 
     78 O          -3.4085  -23.0492  -45.4434 O.2       13 UNK        -0.5000 
     79 N          -4.2738  -23.3355  -47.5239 N.am      14 UNK        -0.5000 
     80 CA         -5.6978  -23.2696  -47.1985 C.3       14 UNK         0.1400 
     81 CB         -6.3012  -24.6779  -47.3229 C.3       14 UNK        -0.1800 
     82 C          -6.4524  -22.2738  -48.1000 C.2       14 UNK         0.5000 
     83 O          -7.5491  -21.8499  -47.7308 O.2       14 UNK        -0.5000 
     84 N          -5.8768  -21.9155  -49.2575 N.am      15 UNK        -0.5000 
     85 CA         -6.4098  -20.9183  -50.1847 C.3       15 UNK         0.1400 
     86 CB         -5.6467  -21.0189  -51.5168 C.3       15 UNK        -0.1800 
     87 C          -6.3101  -19.4880  -49.6228 C.2       15 UNK         0.5000 
     88 O          -5.5003  -19.2195  -48.7339 O.2       15 UNK        -0.5000 
     89 N          -7.1094  -18.5797  -50.1949 N.am      16 UNK        -0.5000 
     90 CA         -7.1356  -17.1551  -49.8490 C.3       16 UNK         0.1400 
     91 CB         -8.4579  -16.5539  -50.3510 C.3       16 UNK        -0.1800 
     92 C          -5.9379  -16.3525  -50.4012 C.2       16 UNK         0.5000 
     93 O          -5.7634  -15.2041  -49.9948 O.2       16 UNK        -0.5000 
     94 N          -5.1415  -16.9768  -51.2824 N.am      17 UNK        -0.5000 
     95 CA         -4.0985  -16.4285  -52.1604 C.3       17 UNK         0.1400 
     96 CB         -3.2254  -15.3418  -51.4964 C.3       17 UNK        -0.1800 
     97 C          -4.6975  -15.9555  -53.4974 C.2       17 UNK         0.5000 
     98 O          -5.9197  -15.8529  -53.6298 O.2       17 UNK        -0.5000 
     99 N          -3.8130  -15.7220  -54.4794 N.am      18 UNK        -0.5000 
    100 CA        -4.1197  -15.4225  -55.8865 C.3       18 UNK         0.1400 
    101 CB        -4.8139  -14.0508  -56.0259 C.3       18 UNK        -0.1800 
    102 C         -4.8896  -16.5717  -56.5777 C.2       18 UNK         0.5000 
    103 O         -5.8010  -16.3274  -57.3708 O.2       18 UNK        -0.5000 
    104 N         -4.5045  -17.8084  -56.2422 N.am      19 UNK        -0.5000 
    105 CA        -5.0783  -19.0563  -56.7366 C.3       19 UNK         0.1400 
    106 CB        -5.6813  -19.8167  -55.5430 C.3       19 UNK        -0.1800 
    107 C         -3.9872  -19.8944  -57.4232 C.2       19 UNK         0.5000 
    108 O         -2.7950  -19.6392  -57.2322 O.2       19 UNK        -0.5000 
    109 N         -4.4180  -20.8919  -58.2055 N.am      20 UNK        -0.5000 
    110 CA        -3.5508  -21.7923  -58.9735 C.3       20 UNK         0.1400 
    111 CB        -4.4043  -22.5138  -60.0289 C.3       20 UNK        -0.1800 
    112 C         -2.7791  -22.8171  -58.1154 C.2       20 UNK         0.5000 
    113 O         -1.8108  -23.4021  -58.6034 O.2       20 UNK        -0.5000 
    114 N         -3.2139  -23.0238  -56.8684 N.am      21 UNK        -0.5000 
    115 CA        -2.5977  -23.9026  -55.8816 C.3       21 UNK         0.1400 
    116 CB        -3.2114  -25.3093  -55.9918 C.3       21 UNK        -0.1800 
    117 C         -2.8192  -23.3042  -54.4858 C.2       21 UNK         0.5000 
    118 O         -3.6845  -22.4405  -54.3190 O.2       21 UNK        -0.5000 
    119 N         -2.0389  -23.7780  -53.5084 N.am      22 UNK        -0.5000 
    120 CA        -2.0765  -23.3072  -52.1126 C.3       22 UNK         0.1400 
    121 C         -3.3089  -23.7871  -51.2937 C.2       22 UNK         0.5000 
    122 N         -4.1217  -24.7151  -51.7813 N.am      22 UNK        -0.7600 
    123 O         -3.5369  -23.2983  -50.1921 O.2       22 UNK        -0.5000 
    124 C124       -0.7656  -23.6199  -51.3405 C.3       23 UNK        -0.0398 
    125 S125        0.7791  -23.2641  -52.2494 S.3       23 UNK        -0.2404 
    126 C126        0.6582  -21.4750  -52.5700 C.3       23 UNK        -0.0205 
    127 H127       -5.0894  -12.7683  -49.2703 H         1 UNK         0.0600 
    128 H128       -3.6247  -11.8698  -49.6785 H         1 UNK         0.0600 
    129 H129       -4.5733  -11.4212  -48.2568 H         1 UNK         0.0600 
    130 H130       -4.4046  -14.8159  -48.6529 H         1 UNK         0.3000 
    131 H131       -1.8722  -15.4201  -47.5948 H         1 UNK         0.0600 
    132 H132       -4.1771  -17.3410  -47.0884 H         1 UNK         0.0800 
    133 H133       -3.7787  -16.9648  -48.7263 H         1 UNK         0.0800 
    134 H134       -1.1940  -17.1000  -49.6970 H         1 UNK         0.0800 
    135 H135       -2.3552  -18.3552  -50.0809 H         1 UNK         0.0800 
    136 H136       -1.2846  -19.8658  -51.5289 H         1 UNK         0.1150 
    137 H137        2.7186  -21.2066  -50.8268 H         1 UNK         0.1150 
    138 H138        0.8956  -18.3997  -48.1440 H         1 UNK         0.1150 
    139 H139        3.8796  -19.0348  -48.9457 H         1 UNK         0.0800 
    140 H140        2.9583  -19.4140  -47.5157 H         1 UNK         0.0800 
    141 H141        2.0590  -21.8736  -47.1641 H         1 UNK         0.0800 
    142 H142        2.2961  -22.8953  -48.5600 H         1 UNK         0.0800 
    143 H143        4.2312  -24.0302  -47.2827 H         1 UNK         0.0600 
    144 H144        3.6028  -22.0584  -45.2955 H         1 UNK         0.3000 
    145 H145        5.1559  -23.7435  -42.5424 H         1 UNK         0.0600 
    146 H146        6.2366  -21.5036  -42.4066 H         1 UNK         0.0600 
    147 H147        5.8427  -21.1922  -44.0951 H         1 UNK         0.0600 
    148 H148        6.9575  -22.4834  -43.6752 H         1 UNK         0.0600 
    149 H149        3.6765  -21.2846  -42.8206 H         1 UNK         0.3000 
    150 H150        0.5009  -22.6644  -41.9163 H         1 UNK         0.0600 
    151 H151        1.7271  -22.3700  -39.7479 H         1 UNK         0.0600 
    152 H152        0.6887  -20.9973  -40.1009 H         1 UNK         0.0600 
    153 H153        2.4291  -20.8703  -40.3470 H         1 UNK         0.0600 
    154 H154        1.3010  -19.9796  -42.3563 H         1 UNK         0.3000 
    155 H155        0.8549  -19.9171  -45.9174 H         1 UNK         0.0600 
    156 H156       -1.3618  -19.4988  -44.9546 H         1 UNK         0.0600 
    157 H157       -0.5225  -17.9590  -45.0946 H         1 UNK         0.0600 
    158 H158       -0.6670  -18.7512  -43.5284 H         1 UNK         0.0600 
    159 H159        1.7159  -17.8556  -44.2371 H         1 UNK         0.3000 
    160 H160        5.2172  -18.6137  -44.0799 H         1 UNK         0.0600 
    161 H161        3.5611  -16.4934  -45.5501 H         1 UNK         0.0600 
    162 H162        4.8350  -17.4842  -46.2437 H         1 UNK         0.0600 
    163 H163        5.2275  -16.2969  -45.0088 H         1 UNK         0.0600 
    164 H164        3.3612  -16.5948  -43.0526 H         1 UNK         0.3000 
    165 H165        3.1299  -18.0289  -39.8053 H         1 UNK         0.0600 
    166 H166        4.0104  -15.8179  -39.1135 H         1 UNK         0.0600 
    167 H167        5.3139  -16.8172  -39.7355 H         1 UNK         0.0600 
    168 H168        4.6471  -15.5304  -40.7334 H         1 UNK         0.0600 
    169 H169        2.1720  -15.5709  -40.9212 H         1 UNK         0.3000 
    170 H170       -0.8685  -16.8432  -42.2684 H         1 UNK         0.0600 
    171 H171       -0.3887  -15.1847  -39.7424 H         1 UNK         0.0600 
    172 H172       -1.8904  -15.2921  -40.6611 H         1 UNK         0.0600 
    173 H173       -1.2864  -16.6975  -39.8010 H         1 UNK         0.0600 
    174 H174       -0.2503  -14.2014  -42.1113 H         1 UNK         0.3000 
    175 H175        1.7036  -13.0960  -43.7481 H         1 UNK         0.0600 
    176 H176        0.7787  -14.5191  -46.3054 H         1 UNK         0.0600 
    177 H177        1.4679  -12.8974  -46.2498 H         1 UNK         0.0600 
    178 H178        2.4460  -14.2807  -45.7889 H         1 UNK         0.0600 
    179 H179       -1.0943  -13.6394  -44.6442 H         1 UNK         0.3000 
    180 H180       -2.3771  -11.0099  -42.8772 H         1 UNK         0.0600 
    181 H181       -3.3045   -9.9414  -44.9467 H         1 UNK         0.0600 
    182 H182       -1.9474  -10.5744  -45.8786 H         1 UNK         0.0600 
    183 H183       -1.6689   -9.4032  -44.5999 H         1 UNK         0.0600 
    184 H184       -3.2181  -12.6212  -45.1857 H         1 UNK         0.3000 
    185 H185       -4.1198  -15.4362  -43.2837 H         1 UNK         0.0600 
    186 H186       -6.1486  -13.3479  -44.2487 H         1 UNK         0.0600 
    187 H187       -6.4741  -15.0601  -43.9734 H         1 UNK         0.0600 
    188 H188       -6.0676  -14.0147  -42.6224 H         1 UNK         0.0600 
    189 H189       -4.8709  -14.6428  -45.9193 H         1 UNK         0.3000 
    190 H190        1.8401  -23.9190  -44.7855 H         1 UNK         0.3000 
    191 H191        0.1215  -25.1177  -44.1119 H         1 UNK         0.0600 
    192 H192       -0.1155  -27.5073  -44.6473 H         1 UNK         0.0600 
    193 H193        1.5770  -27.1451  -44.3472 H         1 UNK         0.0600 
    194 H194        0.9997  -27.3709  -45.9980 H         1 UNK         0.0600 
    195 H195       -0.2980  -23.1359  -45.8480 H         1 UNK         0.3000 
    196 H196       -1.8800  -23.8870  -48.1642 H         1 UNK         0.0600 
    197 H197       -2.0927  -21.4094  -48.4198 H         1 UNK         0.0600 
    198 H198       -0.4175  -21.8678  -48.1628 H         1 UNK         0.0600 
    199 H199       -1.3522  -21.1690  -46.8428 H         1 UNK         0.0600 
    200 H200       -4.0406  -23.4398  -48.5102 H         1 UNK         0.3000 
    201 H201       -5.8331  -22.9252  -46.1712 H         1 UNK         0.0600 
    202 H202       -5.8158  -25.3750  -46.6396 H         1 UNK         0.0600 
    203 H203       -6.1951  -25.0714  -48.3346 H         1 UNK         0.0600 
    204 H204       -7.3646  -24.6722  -47.0805 H         1 UNK         0.0600 
    205 H205       -4.9737  -22.3052  -49.5050 H         1 UNK         0.3000 
    206 H206       -7.4622  -21.1468  -50.3656 H         1 UNK         0.0600 
    207 H207       -5.7374  -22.0155  -51.9492 H         1 UNK         0.0600 
    208 H208       -6.0367  -20.3164  -52.2540 H         1 UNK         0.0600 
    209 H209       -4.5843  -20.8057  -51.3897 H         1 UNK         0.0600 
    210 H210       -7.7460  -18.8735  -50.9221 H         1 UNK         0.3000 
    211 H211       -7.1118  -17.0627  -48.7611 H         1 UNK         0.0600 
    212 H212       -8.5382  -16.6120  -51.4374 H         1 UNK         0.0600 
    213 H213       -8.5412  -15.5024  -50.0727 H         1 UNK         0.0600 
    214 H214       -9.3161  -17.0703  -49.9206 H         1 UNK         0.0600 
    215 H215       -5.4189  -17.9181  -51.5166 H         1 UNK         0.3000 
    216 H216       -3.4480  -17.2742  -52.3892 H         1 UNK         0.0600 
    217 H217       -2.3358  -15.1378  -52.0925 H         1 UNK         0.0600 
    218 H218       -2.8830  -15.6486  -50.5109 H         1 UNK         0.0600 
    219 H219       -3.7594  -14.3971  -51.3901 H         1 UNK         0.0600 
    220 H220       -2.8299  -15.8260  -54.2694 H         1 UNK         0.3000 
    221 H221       -3.1598  -15.3535  -56.4005 H         1 UNK         0.0600 
    222 H222       -5.8166  -14.0553  -55.5979 H         1 UNK         0.0600 
    223 H223       -4.2410  -13.2672  -55.5300 H         1 UNK         0.0600 
    224 H224       -4.9094  -13.7674  -57.0746 H         1 UNK         0.0600 
    225 H225       -3.6927  -17.9156  -55.6511 H         1 UNK         0.3000 
    226 H226       -5.8647  -18.8578  -57.4677 H         1 UNK         0.0600 
    227 H227       -6.4679  -19.2332  -55.0641 H         1 UNK         0.0600 
    228 H228       -6.1245  -20.7628  -55.8556 H         1 UNK         0.0600 
    229 H229       -4.9279  -20.0408  -54.7868 H         1 UNK         0.0600 
    230 H230       -5.4121  -21.0427  -58.3024 H         1 UNK         0.3000 
    231 H231       -2.8080  -21.1853  -59.4956 H         1 UNK         0.0600 
    232 H232       -3.7902  -23.1678  -60.6495 H         1 UNK         0.0600 
    233 H233       -4.8931  -21.8029  -60.6955 H         1 UNK         0.0600 
    234 H234       -5.1771  -23.1302  -59.5679 H         1 UNK         0.0600 
    235 H235       -3.9702  -22.4577  -56.5064 H         1 UNK         0.3000 
    236 H236       -1.5211  -23.9568  -56.0572 H         1 UNK         0.0600 
    237 H237       -4.2864  -25.2931  -55.8079 H         1 UNK         0.0600 
    238 H238       -3.0487  -25.7333  -56.9828 H         1 UNK         0.0600 
    239 H239       -2.7630  -25.9935  -55.2707 H         1 UNK         0.0600 
    240 H240       -1.3506  -24.4864  -53.7179 H         1 UNK         0.3000 
    241 H241       -2.1732  -22.2209  -52.1478 H         1 UNK         0.0600 
    242 H242       -4.9175  -25.0139  -51.2418 H         1 UNK         0.3800 
    243 H243       -3.9517  -25.1198  -52.6871 H         1 UNK         0.3800 
    244 H244       -0.7355  -24.6755  -51.0649 H         1 UNK         0.0800 
    245 H245       -0.7399  -23.0652  -50.4013 H         1 UNK         0.0800 
    246 H246        1.4940  -21.1822  -53.2067 H         1 UNK         0.0800 
    247 H247       -0.2430  -21.2650  -53.1472 H         1 UNK         0.0800 
@<TRIPOS>BOND
     1    1    2 1    
     2    1  127 1    
     3    1  128 1    
     4    1  129 1    
     5    2    3 2    
     6    2    4 am   BACKBONE|DICT|INTERRES
     7    4    5 1    
     8    4  130 1    
     9    5    6 1    
    10    5   65 1    
    11    5  131 1    
    12    6    7 1    
    13    6  132 1    
    14    6  133 1    
    15    7    8 1    
    16    8    9 1    
    17    8  134 1    
    18    8  135 1    
    19    9   10 ar   
    20    9   14 ar   
    21   10   11 ar   
    22   10  136 1    
    23   11   12 ar   
    24   11  126 1    
    25   12   13 ar   
    26   12  137 1    
    27   13   14 ar   
    28   13   15 1    
    29   14  138 1    
    30   15   16 1    
    31   15  139 1    
    32   15  140 1    
    33   16   17 1    
    34   17   18 1    
    35   17  141 1    
    36   17  142 1    
    37   18   19 1    
    38   18   67 1    
    39   18  143 1    
    40   19   20 am   BACKBONE|DICT|INTERRES
    41   19  144 1    
    42   20   21 2    
    43   20   22 1    
    44   22   23 1    
    45   22   24 1    
    46   22  145 1    
    47   23  146 1    
    48   23  147 1    
    49   23  148 1    
    50   24   25 am   BACKBONE|DICT|INTERRES
    51   24  149 1    
    52   25   26 2    
    53   25   27 1    
    54   27   28 1    
    55   27   29 1    
    56   27  150 1    
    57   28  151 1    
    58   28  152 1    
    59   28  153 1    
    60   29   30 am   BACKBONE|DICT|INTERRES
    61   29  154 1    
    62   30   31 2    
    63   30   32 1    
    64   32   33 1    
    65   32   34 1    
    66   32  155 1    
    67   33  156 1    
    68   33  157 1    
    69   33  158 1    
    70   34   35 am   BACKBONE|DICT|INTERRES
    71   34  159 1    
    72   35   36 2    
    73   35   37 1    
    74   37   38 1    
    75   37   39 1    
    76   37  160 1    
    77   38  161 1    
    78   38  162 1    
    79   38  163 1    
    80   39   40 am   BACKBONE|DICT|INTERRES
    81   39  164 1    
    82   40   41 2    
    83   40   42 1    
    84   42   43 1    
    85   42   44 1    
    86   42  165 1    
    87   43  166 1    
    88   43  167 1    
    89   43  168 1    
    90   44   45 am   BACKBONE|DICT|INTERRES
    91   44  169 1    
    92   45   46 2    
    93   45   47 1    
    94   47   48 1    
    95   47   49 1    
    96   47  170 1    
    97   48  171 1    
    98   48  172 1    
    99   48  173 1    
   100   49   50 am   BACKBONE|DICT|INTERRES
   101   49  174 1    
   102   50   51 2    
   103   50   52 1    
   104   52   53 1    
   105   52   54 1    
   106   52  175 1    
   107   53  176 1    
   108   53  177 1    
   109   53  178 1    
   110   54   55 am   BACKBONE|DICT|INTERRES
   111   54  179 1    
   112   55   56 2    
   113   55   57 1    
   114   57   58 1    
   115   57   59 1    
   116   57  180 1    
   117   58  181 1    
   118   58  182 1    
   119   58  183 1    
   120   59   60 am   BACKBONE|DICT|INTERRES
   121   59  184 1    
   122   60   61 2    
   123   60   62 1    
   124   62   63 1    
   125   62   64 1    
   126   62  185 1    
   127   63  186 1    
   128   63  187 1    
   129   63  188 1    
   130   64   65 am   BACKBONE|DICT|INTERRES
   131   64  189 1    
   132   65   66 2    
   133   67   68 2    
   134   67   69 am   BACKBONE|DICT|INTERRES
   135   69   70 1    
   136   69  190 1    
   137   70   71 1    
   138   70   72 1    
   139   70  191 1    
   140   71  192 1    
   141   71  193 1    
   142   71  194 1    
   143   72   73 2    
   144   72   74 am   BACKBONE|DICT|INTERRES
   145   74   75 1    
   146   74  195 1    
   147   75   76 1    
   148   75   77 1    
   149   75  196 1    
   150   76  197 1    
   151   76  198 1    
   152   76  199 1    
   153   77   78 2    
   154   77   79 am   BACKBONE|DICT|INTERRES
   155   79   80 1    
   156   79  200 1    
   157   80   81 1    
   158   80   82 1    
   159   80  201 1    
   160   81  202 1    
   161   81  203 1    
   162   81  204 1    
   163   82   83 2    
   164   82   84 am   BACKBONE|DICT|INTERRES
   165   84   85 1    
   166   84  205 1    
   167   85   86 1    
   168   85   87 1    
   169   85  206 1    
   170   86  207 1    
   171   86  208 1    
   172   86  209 1    
   173   87   88 2    
   174   87   89 am   BACKBONE|DICT|INTERRES
   175   89   90 1    
   176   89  210 1    
   177   90   91 1    
   178   90   92 1    
   179   90  211 1    
   180   91  212 1    
   181   91  213 1    
   182   91  214 1    
   183   92   93 2    
   184   92   94 am   BACKBONE|DICT|INTERRES
   185   94   95 1    
   186   94  215 1    
   187   95   96 1    
   188   95   97 1    
   189   95  216 1    
   190   96  217 1    
   191   96  218 1    
   192   96  219 1    
   193   97   98 2    
   194   97   99 am   BACKBONE|DICT|INTERRES
   195   99  100 1    
   196   99  220 1    
   197  100  101 1    
   198  100  102 1    
   199  100  221 1    
   200  101  222 1    
   201  101  223 1    
   202  101  224 1    
   203  102  103 2    
   204  102  104 am   BACKBONE|DICT|INTERRES
   205  104  105 1    
   206  104  225 1    
   207  105  106 1    
   208  105  107 1    
   209  105  226 1    
   210  106  227 1    
   211  106  228 1    
   212  106  229 1    
   213  107  108 2    
   214  107  109 am   BACKBONE|DICT|INTERRES
   215  109  110 1    
   216  109  230 1    
   217  110  111 1    
   218  110  112 1    
   219  110  231 1    
   220  111  232 1    
   221  111  233 1    
   222  111  234 1    
   223  112  113 2    
   224  112  114 am   BACKBONE|DICT|INTERRES
   225  114  115 1    
   226  114  235 1    
   227  115  116 1    
   228  115  117 1    
   229  115  236 1    
   230  116  237 1    
   231  116  238 1    
   232  116  239 1    
   233  117  118 2    
   234  117  119 am   BACKBONE|DICT|INTERRES
   235  119  120 1    
   236  119  240 1    
   237  120  121 1    
   238  120  124 1    
   239  120  241 1    
   240  121  122 am   BACKBONE|DICT|INTERRES
   241  121  123 2    
   242  122  242 1    
   243  122  243 1    
   244  124  125 1    
   245  124  244 1    
   246  124  245 1    
   247  125  126 1    
   248  126  246 1    
   249  126  247 1    
@<TRIPOS>SUBSTRUCTURE
     1 UNK         1 GROUP             0       ****    0 ROOT    
