@<TRIPOS>MOLECULE
3R540
247   249    1
SMALL
USER_CHARGES


@<TRIPOS>ATOM
      1 CA         -1.6527   -9.2434  -48.3002 C.3       0 UNK        -0.1800 
      2 C          -0.5344  -10.1131  -47.7452 C.2       0 UNK         0.5000 
      3 O           0.0217   -9.7985  -46.6943 O.2       0 UNK        -0.5000 
      4 N          -0.2113  -11.2118  -48.4390 N.am      1 UNK        -0.5000 
      5 CA          0.8250  -12.1893  -48.0743 C.3       1 UNK         0.1400 
      6 C6          1.0523  -13.2545  -49.1837 C.3       23 UNK        -0.0398 
      7 S7         -0.4858  -13.9295  -49.9115 S.3       23 UNK        -0.2404 
      8 C8         -0.7665  -15.4545  -48.9564 C.3       23 UNK        -0.0205 
      9 C9         -0.6461  -16.6975  -49.8270 C.ar      23 UNK        -0.0193 
     10 C10        -1.6170  -16.9640  -50.7968 C.ar      23 UNK        -0.1150 
     11 C11        -1.5201  -18.0945  -51.6127 C.ar      23 UNK        -0.0193 
     12 C12        -0.4477  -18.9733  -51.4404 C.ar      23 UNK        -0.1150 
     13 C13         0.5345  -18.7186  -50.4779 C.ar      23 UNK        -0.0193 
     14 C14         0.4274  -17.5798  -49.6712 C.ar      23 UNK        -0.1150 
     15 C15         1.7430  -19.6388  -50.3569 C.3       23 UNK        -0.0205 
     16 S16         1.3357  -21.2687  -49.6541 S.3       23 UNK        -0.2404 
     17 C17         0.9610  -20.8388  -47.9218 C.3       23 UNK        -0.0398 
     18 CA         -0.3119  -21.5237  -47.3714 C.3       11 UNK         0.1400 
     19 N          -0.4216  -21.3634  -45.9187 N.am      11 UNK        -0.5000 
     20 C          -1.3389  -21.9579  -45.1424 C.2       10 UNK         0.5000 
     21 O          -2.1579  -22.7764  -45.5569 O.2       10 UNK        -0.5000 
     22 CA         -1.3901  -21.5210  -43.6666 C.3       10 UNK         0.1400 
     23 CB         -0.3323  -22.2608  -42.8349 C.3       10 UNK        -0.1800 
     24 N          -1.2262  -20.0749  -43.5090 N.am      10 UNK        -0.5000 
     25 C          -2.0881  -19.1604  -43.9773 C.2       9 UNK         0.5000 
     26 O          -3.1540  -19.4477  -44.5210 O.2       9 UNK        -0.5000 
     27 CA         -1.6629  -17.6832  -43.8772 C.3       9 UNK         0.1400 
     28 CB         -1.9501  -17.1153  -42.4805 C.3       9 UNK        -0.1800 
     29 N          -0.2516  -17.4879  -44.2138 N.am      9 UNK        -0.5000 
     30 C           0.2666  -17.7129  -45.4293 C.2       8 UNK         0.5000 
     31 O          -0.4115  -18.0117  -46.4095 O.2       8 UNK        -0.5000 
     32 CA          1.7973  -17.6546  -45.5659 C.3       8 UNK         0.1400 
     33 CB          2.2740  -16.2313  -45.8652 C.3       8 UNK        -0.1800 
     34 N           2.4690  -18.1558  -44.3690 N.am      8 UNK        -0.5000 
     35 C           2.5450  -19.4527  -44.0425 C.2       7 UNK         0.5000 
     36 O           2.0870  -20.3564  -44.7409 O.2       7 UNK        -0.5000 
     37 CA          3.2056  -19.7900  -42.6930 C.3       7 UNK         0.1400 
     38 CB          4.7314  -19.8755  -42.8442 C.3       7 UNK        -0.1800 
     39 N           2.8745  -18.8196  -41.6476 N.am      7 UNK        -0.5000 
     40 C           1.6468  -18.6508  -41.1365 C.2       6 UNK         0.5000 
     41 O           0.6758  -19.3317  -41.4629 O.2       6 UNK        -0.5000 
     42 CA          1.4609  -17.4991  -40.1302 C.3       6 UNK         0.1400 
     43 CB          1.7313  -17.9855  -38.6990 C.3       6 UNK        -0.1800 
     44 N           2.2983  -16.3291  -40.4107 N.am      6 UNK        -0.5000 
     45 C           2.2494  -15.5996  -41.5328 C.2       5 UNK         0.5000 
     46 O           1.4953  -15.8494  -42.4751 O.2       5 UNK        -0.5000 
     47 CA          3.2105  -14.4000  -41.6106 C.3       5 UNK         0.1400 
     48 CB          3.7832  -14.2170  -43.0254 C.3       5 UNK        -0.1800 
     49 N           2.5431  -13.1656  -41.2128 N.am      5 UNK        -0.5000 
     50 C           2.1910  -12.8253  -39.9689 C.2       4 UNK         0.5000 
     51 O           2.4366  -13.5213  -38.9826 O.2       4 UNK        -0.5000 
     52 CA          1.4433  -11.4877  -39.7778 C.3       4 UNK         0.1400 
     53 CB          2.4352  -10.3248  -39.5842 C.3       4 UNK        -0.1800 
     54 N           0.4422  -11.1695  -40.8090 N.am      4 UNK        -0.5000 
     55 C           0.6210  -10.8974  -42.1091 C.2       3 UNK         0.5000 
     56 O           1.7184  -10.8860  -42.6707 O.2       3 UNK        -0.5000 
     57 CA         -0.6510  -10.6114  -42.9274 C.3       3 UNK         0.1400 
     58 CB         -0.6422   -9.1768  -43.4767 C.3       3 UNK        -0.1800 
     59 N          -0.7844  -11.5603  -44.0324 N.am      3 UNK        -0.5000 
     60 C          -1.0484  -12.8659  -43.8720 C.2       2 UNK         0.5000 
     61 O          -1.2654  -13.3740  -42.7716 O.2       2 UNK        -0.5000 
     62 CA         -1.1158  -13.7586  -45.1289 C.3       2 UNK         0.1400 
     63 CB         -2.5408  -14.2958  -45.3406 C.3       2 UNK        -0.1800 
     64 N          -0.6862  -13.0988  -46.3625 N.am      2 UNK        -0.5000 
     65 C           0.5860  -12.8554  -46.7030 C.2       1 UNK         0.5000 
     66 O           1.5484  -13.1187  -45.9852 O.2       1 UNK        -0.5000 
     67 C          -1.5948  -21.0617  -48.0970 C.2       11 UNK         0.5000 
     68 O          -2.1026  -21.7970  -48.9411 O.2       11 UNK        -0.5000 
     69 N          -2.1321  -19.8951  -47.7137 N.am      12 UNK        -0.5000 
     70 CA         -3.3870  -19.3511  -48.2352 C.3       12 UNK         0.1400 
     71 CB         -3.5942  -17.9303  -47.6920 C.3       12 UNK        -0.1800 
     72 C          -4.6091  -20.2302  -47.9096 C.2       12 UNK         0.5000 
     73 O          -5.4854  -20.3882  -48.7589 O.2       12 UNK        -0.5000 
     74 N          -4.6423  -20.7916  -46.6925 N.am      13 UNK        -0.5000 
     75 CA         -5.6801  -21.7148  -46.2331 C.3       13 UNK         0.1400 
     76 CB         -5.5669  -21.8995  -44.7121 C.3       13 UNK        -0.1800 
     77 C          -5.6288  -23.0726  -46.9587 C.2       13 UNK         0.5000 
     78 O          -6.6775  -23.6016  -47.3295 O.2       13 UNK        -0.5000 
     79 N          -4.4149  -23.6049  -47.1561 N.am      14 UNK        -0.5000 
     80 CA         -4.1521  -24.8334  -47.9071 C.3       14 UNK         0.1400 
     81 CB         -2.7066  -25.2783  -47.6449 C.3       14 UNK        -0.1800 
     82 C          -4.4067  -24.6743  -49.4175 C.2       14 UNK         0.5000 
     83 O          -4.8950  -25.6108  -50.0527 O.2       14 UNK        -0.5000 
     84 N          -4.0777  -23.4908  -49.9543 N.am      15 UNK        -0.5000 
     85 CA         -4.2391  -23.0540  -51.3392 C.3       15 UNK         0.1400 
     86 CB         -5.7299  -22.7957  -51.6443 C.3       15 UNK        -0.1800 
     87 C          -3.5502  -24.0271  -52.3128 C.2       15 UNK         0.5000 
     88 O          -2.3262  -24.1558  -52.2637 O.2       15 UNK        -0.5000 
     89 N          -4.3411  -24.7285  -53.1373 N.am      16 UNK        -0.5000 
     90 CA         -3.9013  -25.6923  -54.1493 C.3       16 UNK         0.1400 
     91 CB         -5.1398  -26.2332  -54.8800 C.3       16 UNK        -0.1800 
     92 C          -3.0583  -26.8622  -53.6013 C.2       16 UNK         0.5000 
     93 O          -2.2869  -27.4554  -54.3558 O.2       16 UNK        -0.5000 
     94 N          -3.2123  -27.1745  -52.3068 N.am      17 UNK        -0.5000 
     95 CA         -2.4299  -28.1929  -51.6084 C.3       17 UNK         0.1400 
     96 CB         -3.2002  -28.6424  -50.3571 C.3       17 UNK        -0.1800 
     97 C          -1.0070  -27.7260  -51.2358 C.2       17 UNK         0.5000 
     98 O          -0.1705  -28.5782  -50.9332 O.2       17 UNK        -0.5000 
     99 N          -0.7524  -26.4091  -51.2468 N.am      18 UNK        -0.5000 
    100 CA         0.5310  -25.8091  -50.8787 C.3       18 UNK         0.1400 
    101 CB         0.3230  -24.8515  -49.6957 C.3       18 UNK        -0.1800 
    102 C          1.1916  -25.0766  -52.0570 C.2       18 UNK         0.5000 
    103 O          2.3998  -25.2228  -52.2493 O.2       18 UNK        -0.5000 
    104 N          0.4100  -24.3055  -52.8214 N.am      19 UNK        -0.5000 
    105 CA         0.8782  -23.4760  -53.9275 C.3       19 UNK         0.1400 
    106 CB         1.5588  -22.1998  -53.3834 C.3       19 UNK        -0.1800 
    107 C         -0.2894  -23.2135  -54.8957 C.2       19 UNK         0.5000 
    108 O         -0.9089  -24.1713  -55.3609 O.2       19 UNK        -0.5000 
    109 N         -0.5542  -21.9392  -55.2138 N.am      20 UNK        -0.5000 
    110 CA        -1.6322  -21.5013  -56.0997 C.3       20 UNK         0.1400 
    111 CB        -1.4026  -20.0291  -56.4750 C.3       20 UNK        -0.1800 
    112 C         -3.0191  -21.6834  -55.4582 C.2       20 UNK         0.5000 
    113 O         -3.1659  -21.5215  -54.2454 O.2       20 UNK        -0.5000 
    114 N         -4.0222  -21.9764  -56.2932 N.am      21 UNK        -0.5000 
    115 CA        -5.4123  -22.2291  -55.9098 C.3       21 UNK         0.1400 
    116 CB        -6.0852  -23.0361  -57.0354 C.3       21 UNK        -0.1800 
    117 C         -6.1877  -20.9384  -55.5597 C.2       21 UNK         0.5000 
    118 O         -7.2080  -20.6416  -56.1835 O.2       21 UNK        -0.5000 
    119 N         -5.6883  -20.1872  -54.5720 N.am      22 UNK        -0.5000 
    120 CA        -6.2811  -18.9351  -54.0713 C.3       22 UNK         0.1400 
    121 C         -7.5012  -19.0979  -53.1141 C.2       22 UNK         0.5000 
    122 N         -7.9426  -20.3059  -52.7878 N.am      22 UNK        -0.7600 
    123 O         -8.0793  -18.1053  -52.6793 O.2       22 UNK        -0.5000 
    124 C124       -5.2049  -17.9709  -53.5098 C.3       23 UNK        -0.0398 
    125 S125       -4.2108  -18.6348  -52.1230 S.3       23 UNK        -0.2404 
    126 C126       -2.5251  -18.3133  -52.7337 C.3       23 UNK        -0.0205 
    127 H127       -1.2804   -8.2396  -48.5045 H         1 UNK         0.0600 
    128 H128       -2.4626   -9.1668  -47.5747 H         1 UNK         0.0600 
    129 H129       -2.0616   -9.6500  -49.2255 H         1 UNK         0.0600 
    130 H130       -0.7138  -11.4254  -49.2897 H         1 UNK         0.3000 
    131 H131        1.7559  -11.6272  -47.9734 H         1 UNK         0.0600 
    132 H132        1.6028  -12.7883  -50.0017 H         1 UNK         0.0800 
    133 H133        1.6946  -14.0677  -48.8398 H         1 UNK         0.0800 
    134 H134       -0.0923  -15.5124  -48.1025 H         1 UNK         0.0800 
    135 H135       -1.7717  -15.4026  -48.5397 H         1 UNK         0.0800 
    136 H136       -2.4403  -16.2766  -50.9320 H         1 UNK         0.1150 
    137 H137       -0.3627  -19.8428  -52.0746 H         1 UNK         0.1150 
    138 H138        1.1847  -17.3735  -48.9286 H         1 UNK         0.1150 
    139 H139        2.1732  -19.7863  -51.3484 H         1 UNK         0.0800 
    140 H140        2.5263  -19.1750  -49.7554 H         1 UNK         0.0800 
    141 H141        1.8256  -21.1348  -47.3266 H         1 UNK         0.0800 
    142 H142        0.8833  -19.7581  -47.8206 H         1 UNK         0.0800 
    143 H143       -0.2112  -22.5958  -47.5536 H         1 UNK         0.0600 
    144 H144        0.2588  -20.7528  -45.4792 H         1 UNK         0.3000 
    145 H145       -2.3738  -21.7887  -43.2756 H         1 UNK         0.0600 
    146 H146       -0.4104  -22.0015  -41.7789 H         1 UNK         0.0600 
    147 H147       -0.4592  -23.3411  -42.9154 H         1 UNK         0.0600 
    148 H148        0.6796  -22.0240  -43.1624 H         1 UNK         0.0600 
    149 H149       -0.4049  -19.7603  -43.0003 H         1 UNK         0.3000 
    150 H150       -2.2570  -17.1229  -44.6007 H         1 UNK         0.0600 
    151 H151       -3.0166  -17.1571  -42.2572 H         1 UNK         0.0600 
    152 H152       -1.6414  -16.0726  -42.4063 H         1 UNK         0.0600 
    153 H153       -1.4316  -17.6734  -41.7018 H         1 UNK         0.0600 
    154 H154        0.3648  -17.1741  -43.4710 H         1 UNK         0.3000 
    155 H155        2.0857  -18.2835  -46.4100 H         1 UNK         0.0600 
    156 H156        3.3592  -16.1840  -45.9552 H         1 UNK         0.0600 
    157 H157        1.9709  -15.5409  -45.0800 H         1 UNK         0.0600 
    158 H158        1.8546  -15.8679  -46.8028 H         1 UNK         0.0600 
    159 H159        2.8082  -17.4652  -43.7157 H         1 UNK         0.3000 
    160 H160        2.8378  -20.7688  -42.3780 H         1 UNK         0.0600 
    161 H161        5.1634  -18.9173  -43.1358 H         1 UNK         0.0600 
    162 H162        5.0071  -20.6056  -43.6064 H         1 UNK         0.0600 
    163 H163        5.2030  -20.1871  -41.9120 H         1 UNK         0.0600 
    164 H164        3.6196  -18.2222  -41.3209 H         1 UNK         0.3000 
    165 H165        0.4194  -17.1775  -40.1884 H         1 UNK         0.0600 
    166 H166        2.7701  -18.2905  -38.5663 H         1 UNK         0.0600 
    167 H167        1.5142  -17.2048  -37.9697 H         1 UNK         0.0600 
    168 H168        1.1029  -18.8425  -38.4525 H         1 UNK         0.0600 
    169 H169        2.9090  -16.0242  -39.6655 H         1 UNK         0.3000 
    170 H170        4.0479  -14.5809  -40.9335 H         1 UNK         0.0600 
    171 H171        4.2278  -15.1416  -43.3956 H         1 UNK         0.0600 
    172 H172        3.0126  -13.9115  -43.7338 H         1 UNK         0.0600 
    173 H173        4.5614  -13.4539  -43.0370 H         1 UNK         0.0600 
    174 H174        2.3045  -12.5140  -41.9553 H         1 UNK         0.3000 
    175 H175        0.8782  -11.5861  -38.8495 H         1 UNK         0.0600 
    176 H176        1.9129   -9.3916  -39.3736 H         1 UNK         0.0600 
    177 H177        3.1028  -10.5201  -38.7441 H         1 UNK         0.0600 
    178 H178        3.0597  -10.1691  -40.4643 H         1 UNK         0.0600 
    179 H179       -0.5120  -11.2015  -40.4772 H         1 UNK         0.3000 
    180 H180       -1.5260  -10.7169  -42.2824 H         1 UNK         0.0600 
    181 H181       -1.5377   -8.9713  -44.0635 H         1 UNK         0.0600 
    182 H182       -0.6095   -8.4499  -42.6643 H         1 UNK         0.0600 
    183 H183        0.2245   -8.9942  -44.1131 H         1 UNK         0.0600 
    184 H184       -0.5658  -11.2119  -44.9570 H         1 UNK         0.3000 
    185 H185       -0.4575  -14.6101  -44.9448 H         1 UNK         0.0600 
    186 H186       -2.5684  -15.0344  -46.1419 H         1 UNK         0.0600 
    187 H187       -2.9179  -14.7823  -44.4404 H         1 UNK         0.0600 
    188 H188       -3.2378  -13.4962  -45.5937 H         1 UNK         0.0600 
    189 H189       -1.4132  -12.8205  -47.0055 H         1 UNK         0.3000 
    190 H190       -1.6229  -19.3118  -47.0552 H         1 UNK         0.3000 
    191 H191       -3.2892  -19.2935  -49.3207 H         1 UNK         0.0600 
    192 H192       -4.4339  -17.4430  -48.1884 H         1 UNK         0.0600 
    193 H193       -2.7124  -17.3177  -47.8590 H         1 UNK         0.0600 
    194 H194       -3.7971  -17.9284  -46.6212 H         1 UNK         0.0600 
    195 H195       -3.9144  -20.5510  -46.0272 H         1 UNK         0.3000 
    196 H196       -6.6504  -21.2610  -46.4454 H         1 UNK         0.0600 
    197 H197       -6.3535  -22.5566  -44.3394 H         1 UNK         0.0600 
    198 H198       -5.6640  -20.9467  -44.1913 H         1 UNK         0.0600 
    199 H199       -4.6106  -22.3387  -44.4281 H         1 UNK         0.0600 
    200 H200       -3.6055  -23.1344  -46.7597 H         1 UNK         0.3000 
    201 H201       -4.8222  -25.6125  -47.5381 H         1 UNK         0.0600 
    202 H202       -2.5558  -25.5241  -46.5937 H         1 UNK         0.0600 
    203 H203       -2.0001  -24.4902  -47.9049 H         1 UNK         0.0600 
    204 H204       -2.4472  -26.1618  -48.2281 H         1 UNK         0.0600 
    205 H205       -3.5649  -22.8337  -49.3703 H         1 UNK         0.3000 
    206 H206       -3.7109  -22.1032  -51.4301 H         1 UNK         0.0600 
    207 H207       -6.1291  -22.0283  -50.9805 H         1 UNK         0.0600 
    208 H208       -5.8619  -22.4349  -52.6631 H         1 UNK         0.0600 
    209 H209       -6.3423  -23.6890  -51.5175 H         1 UNK         0.0600 
    210 H210       -5.3381  -24.6035  -53.0476 H         1 UNK         0.3000 
    211 H211       -3.2878  -25.1505  -54.8701 H         1 UNK         0.0600 
    212 H212       -5.7875  -26.7966  -54.2070 H         1 UNK         0.0600 
    213 H213       -4.8525  -26.9002  -55.6939 H         1 UNK         0.0600 
    214 H214       -5.7308  -25.4284  -55.3149 H         1 UNK         0.0600 
    215 H215       -3.8646  -26.6369  -51.7472 H         1 UNK         0.3000 
    216 H216       -2.3247  -29.0604  -52.2633 H         1 UNK         0.0600 
    217 H217       -2.6659  -29.4349  -49.8315 H         1 UNK         0.0600 
    218 H218       -4.1837  -29.0330  -50.6188 H         1 UNK         0.0600 
    219 H219       -3.3431  -27.8224  -49.6544 H         1 UNK         0.0600 
    220 H220       -1.4756  -25.7675  -51.5565 H         1 UNK         0.3000 
    221 H221        1.2351  -26.5776  -50.5531 H         1 UNK         0.0600 
    222 H222       -0.4236  -24.0872  -49.9180 H         1 UNK         0.0600 
    223 H223        0.0005  -25.3959  -48.8092 H         1 UNK         0.0600 
    224 H224        1.2514  -24.3412  -49.4372 H         1 UNK         0.0600 
    225 H225       -0.5905  -24.2508  -52.6309 H         1 UNK         0.3000 
    226 H226        1.6187  -24.0402  -54.4980 H         1 UNK         0.0600 
    227 H227        2.4145  -22.4455  -52.7545 H         1 UNK         0.0600 
    228 H228        1.9340  -21.5683  -54.1895 H         1 UNK         0.0600 
    229 H229        0.8709  -21.6107  -52.7787 H         1 UNK         0.0600 
    230 H230       -0.0178  -21.2113  -54.7669 H         1 UNK         0.3000 
    231 H231       -1.5876  -22.1016  -57.0110 H         1 UNK         0.0600 
    232 H232       -2.1844  -19.6682  -57.1446 H         1 UNK         0.0600 
    233 H233       -0.4506  -19.8979  -56.9897 H         1 UNK         0.0600 
    234 H234       -1.3997  -19.3826  -55.5973 H         1 UNK         0.0600 
    235 H235       -3.8237  -22.0401  -57.2813 H         1 UNK         0.3000 
    236 H236       -5.4122  -22.8537  -55.0158 H         1 UNK         0.0600 
    237 H237       -6.1417  -22.4645  -57.9626 H         1 UNK         0.0600 
    238 H238       -5.5389  -23.9557  -57.2453 H         1 UNK         0.0600 
    239 H239       -7.1019  -23.3197  -56.7604 H         1 UNK         0.0600 
    240 H240       -4.8263  -20.4890  -54.1266 H         1 UNK         0.3000 
    241 H241       -6.7018  -18.4245  -54.9397 H         1 UNK         0.0600 
    242 H242       -8.7377  -20.3915  -52.1746 H         1 UNK         0.3800 
    243 H243       -7.5000  -21.1296  -53.1557 H         1 UNK         0.3800 
    244 H244       -4.5422  -17.6922  -54.3295 H         1 UNK         0.0800 
    245 H245       -5.6597  -17.0342  -53.1834 H         1 UNK         0.0800 
    246 H246       -2.2214  -19.1446  -53.3698 H         1 UNK         0.0800 
    247 H247       -2.5153  -17.4223  -53.3624 H         1 UNK         0.0800 
@<TRIPOS>BOND
     1    1    2 1    
     2    1  127 1    
     3    1  128 1    
     4    1  129 1    
     5    2    3 2    
     6    2    4 am   BACKBONE|DICT|INTERRES
     7    4    5 1    
     8    4  130 1    
     9    5    6 1    
    10    5   65 1    
    11    5  131 1    
    12    6    7 1    
    13    6  132 1    
    14    6  133 1    
    15    7    8 1    
    16    8    9 1    
    17    8  134 1    
    18    8  135 1    
    19    9   10 ar   
    20    9   14 ar   
    21   10   11 ar   
    22   10  136 1    
    23   11   12 ar   
    24   11  126 1    
    25   12   13 ar   
    26   12  137 1    
    27   13   14 ar   
    28   13   15 1    
    29   14  138 1    
    30   15   16 1    
    31   15  139 1    
    32   15  140 1    
    33   16   17 1    
    34   17   18 1    
    35   17  141 1    
    36   17  142 1    
    37   18   19 1    
    38   18   67 1    
    39   18  143 1    
    40   19   20 am   BACKBONE|DICT|INTERRES
    41   19  144 1    
    42   20   21 2    
    43   20   22 1    
    44   22   23 1    
    45   22   24 1    
    46   22  145 1    
    47   23  146 1    
    48   23  147 1    
    49   23  148 1    
    50   24   25 am   BACKBONE|DICT|INTERRES
    51   24  149 1    
    52   25   26 2    
    53   25   27 1    
    54   27   28 1    
    55   27   29 1    
    56   27  150 1    
    57   28  151 1    
    58   28  152 1    
    59   28  153 1    
    60   29   30 am   BACKBONE|DICT|INTERRES
    61   29  154 1    
    62   30   31 2    
    63   30   32 1    
    64   32   33 1    
    65   32   34 1    
    66   32  155 1    
    67   33  156 1    
    68   33  157 1    
    69   33  158 1    
    70   34   35 am   BACKBONE|DICT|INTERRES
    71   34  159 1    
    72   35   36 2    
    73   35   37 1    
    74   37   38 1    
    75   37   39 1    
    76   37  160 1    
    77   38  161 1    
    78   38  162 1    
    79   38  163 1    
    80   39   40 am   BACKBONE|DICT|INTERRES
    81   39  164 1    
    82   40   41 2    
    83   40   42 1    
    84   42   43 1    
    85   42   44 1    
    86   42  165 1    
    87   43  166 1    
    88   43  167 1    
    89   43  168 1    
    90   44   45 am   BACKBONE|DICT|INTERRES
    91   44  169 1    
    92   45   46 2    
    93   45   47 1    
    94   47   48 1    
    95   47   49 1    
    96   47  170 1    
    97   48  171 1    
    98   48  172 1    
    99   48  173 1    
   100   49   50 am   BACKBONE|DICT|INTERRES
   101   49  174 1    
   102   50   51 2    
   103   50   52 1    
   104   52   53 1    
   105   52   54 1    
   106   52  175 1    
   107   53  176 1    
   108   53  177 1    
   109   53  178 1    
   110   54   55 am   BACKBONE|DICT|INTERRES
   111   54  179 1    
   112   55   56 2    
   113   55   57 1    
   114   57   58 1    
   115   57   59 1    
   116   57  180 1    
   117   58  181 1    
   118   58  182 1    
   119   58  183 1    
   120   59   60 am   BACKBONE|DICT|INTERRES
   121   59  184 1    
   122   60   61 2    
   123   60   62 1    
   124   62   63 1    
   125   62   64 1    
   126   62  185 1    
   127   63  186 1    
   128   63  187 1    
   129   63  188 1    
   130   64   65 am   BACKBONE|DICT|INTERRES
   131   64  189 1    
   132   65   66 2    
   133   67   68 2    
   134   67   69 am   BACKBONE|DICT|INTERRES
   135   69   70 1    
   136   69  190 1    
   137   70   71 1    
   138   70   72 1    
   139   70  191 1    
   140   71  192 1    
   141   71  193 1    
   142   71  194 1    
   143   72   73 2    
   144   72   74 am   BACKBONE|DICT|INTERRES
   145   74   75 1    
   146   74  195 1    
   147   75   76 1    
   148   75   77 1    
   149   75  196 1    
   150   76  197 1    
   151   76  198 1    
   152   76  199 1    
   153   77   78 2    
   154   77   79 am   BACKBONE|DICT|INTERRES
   155   79   80 1    
   156   79  200 1    
   157   80   81 1    
   158   80   82 1    
   159   80  201 1    
   160   81  202 1    
   161   81  203 1    
   162   81  204 1    
   163   82   83 2    
   164   82   84 am   BACKBONE|DICT|INTERRES
   165   84   85 1    
   166   84  205 1    
   167   85   86 1    
   168   85   87 1    
   169   85  206 1    
   170   86  207 1    
   171   86  208 1    
   172   86  209 1    
   173   87   88 2    
   174   87   89 am   BACKBONE|DICT|INTERRES
   175   89   90 1    
   176   89  210 1    
   177   90   91 1    
   178   90   92 1    
   179   90  211 1    
   180   91  212 1    
   181   91  213 1    
   182   91  214 1    
   183   92   93 2    
   184   92   94 am   BACKBONE|DICT|INTERRES
   185   94   95 1    
   186   94  215 1    
   187   95   96 1    
   188   95   97 1    
   189   95  216 1    
   190   96  217 1    
   191   96  218 1    
   192   96  219 1    
   193   97   98 2    
   194   97   99 am   BACKBONE|DICT|INTERRES
   195   99  100 1    
   196   99  220 1    
   197  100  101 1    
   198  100  102 1    
   199  100  221 1    
   200  101  222 1    
   201  101  223 1    
   202  101  224 1    
   203  102  103 2    
   204  102  104 am   BACKBONE|DICT|INTERRES
   205  104  105 1    
   206  104  225 1    
   207  105  106 1    
   208  105  107 1    
   209  105  226 1    
   210  106  227 1    
   211  106  228 1    
   212  106  229 1    
   213  107  108 2    
   214  107  109 am   BACKBONE|DICT|INTERRES
   215  109  110 1    
   216  109  230 1    
   217  110  111 1    
   218  110  112 1    
   219  110  231 1    
   220  111  232 1    
   221  111  233 1    
   222  111  234 1    
   223  112  113 2    
   224  112  114 am   BACKBONE|DICT|INTERRES
   225  114  115 1    
   226  114  235 1    
   227  115  116 1    
   228  115  117 1    
   229  115  236 1    
   230  116  237 1    
   231  116  238 1    
   232  116  239 1    
   233  117  118 2    
   234  117  119 am   BACKBONE|DICT|INTERRES
   235  119  120 1    
   236  119  240 1    
   237  120  121 1    
   238  120  124 1    
   239  120  241 1    
   240  121  122 am   BACKBONE|DICT|INTERRES
   241  121  123 2    
   242  122  242 1    
   243  122  243 1    
   244  124  125 1    
   245  124  244 1    
   246  124  245 1    
   247  125  126 1    
   248  126  246 1    
   249  126  247 1    
@<TRIPOS>SUBSTRUCTURE
     1 UNK         1 GROUP             0       ****    0 ROOT    
