@<TRIPOS>MOLECULE
3R540
247   249    1
SMALL
USER_CHARGES


@<TRIPOS>ATOM
      1 CA          3.9125  -11.6328  -47.0020 C.3       0 UNK        -0.1800 
      2 C           2.8538  -12.7153  -47.1448 C.2       0 UNK         0.5000 
      3 O           2.5246  -13.3824  -46.1639 O.2       0 UNK        -0.5000 
      4 N           2.3076  -12.8867  -48.3555 N.am      1 UNK        -0.5000 
      5 CA          1.3348  -13.9319  -48.7042 C.3       1 UNK         0.1400 
      6 C6          1.0477  -13.9864  -50.2251 C.3       23 UNK        -0.0398 
      7 S7          2.5399  -14.2170  -51.2551 S.3       23 UNK        -0.2404 
      8 C8          3.0747  -15.9081  -50.8312 C.3       23 UNK        -0.0205 
      9 C9          2.0144  -16.9544  -51.1410 C.ar      23 UNK        -0.0193 
     10 C10         1.8839  -17.4697  -52.4320 C.ar      23 UNK        -0.1150 
     11 C11         0.9166  -18.4378  -52.7162 C.ar      23 UNK        -0.0193 
     12 C12         0.0815  -18.8938  -51.6893 C.ar      23 UNK        -0.1150 
     13 C13         0.1886  -18.3794  -50.3933 C.ar      23 UNK        -0.0193 
     14 C14         1.1667  -17.4126  -50.1303 C.ar      23 UNK        -0.1150 
     15 C15        -0.7908  -18.8703  -49.3264 C.3       23 UNK        -0.0205 
     16 S16        -0.2933  -18.5356  -47.6007 S.3       23 UNK        -0.2404 
     17 C17        -1.6165  -19.3845  -46.6914 C.3       23 UNK        -0.0398 
     18 CA         -1.2430  -20.8579  -46.4266 C.3       11 UNK         0.1400 
     19 N          -0.0838  -21.0073  -45.5412 N.am      11 UNK        -0.5000 
     20 C           0.6158  -22.1438  -45.4192 C.2       10 UNK         0.5000 
     21 O           0.3627  -23.1733  -46.0439 O.2       10 UNK        -0.5000 
     22 CA          1.7302  -22.1503  -44.3625 C.3       10 UNK         0.1400 
     23 CB          2.9840  -21.4213  -44.8698 C.3       10 UNK        -0.1800 
     24 N           1.2754  -21.5461  -43.1113 N.am      10 UNK        -0.5000 
     25 C           0.3469  -22.0803  -42.3052 C.2       9 UNK         0.5000 
     26 O          -0.2124  -23.1515  -42.5436 O.2       9 UNK        -0.5000 
     27 CA         -0.0695  -21.2656  -41.0633 C.3       9 UNK         0.1400 
     28 CB         -0.4121  -22.1587  -39.8527 C.3       9 UNK        -0.1800 
     29 N           0.8859  -20.2145  -40.6991 N.am      9 UNK        -0.5000 
     30 C           2.1395  -20.3618  -40.2417 C.2       8 UNK         0.5000 
     31 O           2.6676  -21.4540  -40.0313 O.2       8 UNK        -0.5000 
     32 CA          2.9635  -19.0779  -40.0085 C.3       8 UNK         0.1400 
     33 CB          4.1329  -19.0136  -41.0047 C.3       8 UNK        -0.1800 
     34 N           2.1788  -17.8459  -40.1244 N.am      8 UNK        -0.5000 
     35 C           1.2957  -17.4051  -39.2180 C.2       7 UNK         0.5000 
     36 O           1.0930  -17.9577  -38.1366 O.2       7 UNK        -0.5000 
     37 CA          0.4672  -16.1656  -39.6061 C.3       7 UNK         0.1400 
     38 CB          1.2292  -14.8766  -39.2645 C.3       7 UNK        -0.1800 
     39 N           0.0851  -16.1417  -41.0208 N.am      7 UNK        -0.5000 
     40 C          -0.7039  -17.0393  -41.6295 C.2       6 UNK         0.5000 
     41 O          -1.1974  -18.0125  -41.0612 O.2       6 UNK        -0.5000 
     42 CA         -0.9362  -16.8484  -43.1377 C.3       6 UNK         0.1400 
     43 CB         -1.9798  -15.7557  -43.4163 C.3       6 UNK        -0.1800 
     44 N           0.3135  -16.5210  -43.8174 N.am      6 UNK        -0.5000 
     45 C           1.2442  -17.4237  -44.1522 C.2       5 UNK         0.5000 
     46 O           1.0963  -18.6394  -44.0070 O.2       5 UNK        -0.5000 
     47 CA          2.5702  -16.8773  -44.7184 C.3       5 UNK         0.1400 
     48 CB          2.5449  -16.8698  -46.2510 C.3       5 UNK        -0.1800 
     49 N           2.8899  -15.5295  -44.2385 N.am      5 UNK        -0.5000 
     50 C           3.2779  -15.2599  -42.9852 C.2       4 UNK         0.5000 
     51 O           3.3698  -16.1135  -42.1049 O.2       4 UNK        -0.5000 
     52 CA          3.5777  -13.7902  -42.6387 C.3       4 UNK         0.1400 
     53 CB          4.9893  -13.4070  -43.1075 C.3       4 UNK        -0.1800 
     54 N           2.6172  -12.8265  -43.1788 N.am      4 UNK        -0.5000 
     55 C           1.2887  -12.8557  -43.0141 C.2       3 UNK         0.5000 
     56 O           0.6906  -13.7611  -42.4345 O.2       3 UNK        -0.5000 
     57 CA          0.4849  -11.6898  -43.6026 C.3       3 UNK         0.1400 
     58 CB          1.2851  -10.3775  -43.7231 C.3       3 UNK        -0.1800 
     59 N          -0.0096  -12.0742  -44.9198 N.am      3 UNK        -0.5000 
     60 C          -1.2786  -11.9474  -45.3300 C.2       2 UNK         0.5000 
     61 O          -2.1881  -11.5432  -44.6039 O.2       2 UNK        -0.5000 
     62 CA         -1.5955  -12.2945  -46.7994 C.3       2 UNK         0.1400 
     63 CB         -2.3277  -11.1321  -47.4927 C.3       2 UNK        -0.1800 
     64 N          -0.3910  -12.6011  -47.5733 N.am      2 UNK        -0.5000 
     65 C           0.0106  -13.8309  -47.9165 C.2       1 UNK         0.5000 
     66 O          -0.6030  -14.8568  -47.6270 O.2       1 UNK        -0.5000 
     67 C          -2.4672  -21.6474  -45.9309 C.2       11 UNK         0.5000 
     68 O          -3.2708  -22.0714  -46.7598 O.2       11 UNK        -0.5000 
     69 N          -2.5811  -21.8605  -44.6123 N.am      12 UNK        -0.5000 
     70 CA         -3.6179  -22.7013  -44.0132 C.3       12 UNK         0.1400 
     71 CB         -3.6869  -22.4553  -42.4985 C.3       12 UNK        -0.1800 
     72 C          -3.3867  -24.1888  -44.3328 C.2       12 UNK         0.5000 
     73 O          -4.3246  -24.8718  -44.7435 O.2       12 UNK        -0.5000 
     74 N          -2.1329  -24.6456  -44.1955 N.am      13 UNK        -0.5000 
     75 CA         -1.6928  -25.9980  -44.5445 C.3       13 UNK         0.1400 
     76 CB         -0.2551  -26.2099  -44.0463 C.3       13 UNK        -0.1800 
     77 C          -1.7975  -26.2918  -46.0534 C.2       13 UNK         0.5000 
     78 O          -2.2224  -27.3838  -46.4321 O.2       13 UNK        -0.5000 
     79 N          -1.4391  -25.3038  -46.8851 N.am      14 UNK        -0.5000 
     80 CA         -1.5382  -25.3640  -48.3456 C.3       14 UNK         0.1400 
     81 CB         -0.6099  -24.2987  -48.9515 C.3       14 UNK        -0.1800 
     82 C          -2.9719  -25.1768  -48.8819 C.2       14 UNK         0.5000 
     83 O          -3.1834  -25.3656  -50.0799 O.2       14 UNK        -0.5000 
     84 N          -3.9118  -24.7647  -48.0169 N.am      15 UNK        -0.5000 
     85 CA         -5.3091  -24.4246  -48.3114 C.3       15 UNK         0.1400 
     86 CB         -6.1078  -25.6929  -48.6764 C.3       15 UNK        -0.1800 
     87 C          -5.4246  -23.3112  -49.3746 C.2       15 UNK         0.5000 
     88 O          -6.1653  -23.4539  -50.3482 O.2       15 UNK        -0.5000 
     89 N          -4.6248  -22.2487  -49.1944 N.am      16 UNK        -0.5000 
     90 CA         -4.4351  -21.1046  -50.0975 C.3       16 UNK         0.1400 
     91 CB         -5.7069  -20.2335  -50.1437 C.3       16 UNK        -0.1800 
     92 C          -3.9377  -21.5098  -51.5041 C.2       16 UNK         0.5000 
     93 O          -4.2590  -20.8441  -52.4879 O.2       16 UNK        -0.5000 
     94 N          -3.1829  -22.6180  -51.5668 N.am      17 UNK        -0.5000 
     95 CA         -2.7084  -23.3063  -52.7723 C.3       17 UNK         0.1400 
     96 CB         -1.7361  -22.4191  -53.5742 C.3       17 UNK        -0.1800 
     97 C          -3.8537  -23.8895  -53.6315 C.2       17 UNK         0.5000 
     98 O          -3.6829  -24.0798  -54.8377 O.2       17 UNK        -0.5000 
     99 N          -4.9963  -24.1806  -52.9902 N.am      18 UNK        -0.5000 
    100 CA        -6.2146  -24.7595  -53.5538 C.3       18 UNK         0.1400 
    101 CB        -5.9892  -26.2530  -53.8811 C.3       18 UNK        -0.1800 
    102 C         -6.7581  -23.9208  -54.7292 C.2       18 UNK         0.5000 
    103 O         -7.0969  -22.7525  -54.5329 O.2       18 UNK        -0.5000 
    104 N         -6.8247  -24.5204  -55.9244 N.am      19 UNK        -0.5000 
    105 CA        -7.3389  -23.9134  -57.1518 C.3       19 UNK         0.1400 
    106 CB        -7.5113  -25.0155  -58.2090 C.3       19 UNK        -0.1800 
    107 C         -6.4765  -22.7631  -57.7091 C.2       19 UNK         0.5000 
    108 O         -6.9842  -21.9834  -58.5166 O.2       19 UNK        -0.5000 
    109 N         -5.2027  -22.6697  -57.2952 N.am      20 UNK        -0.5000 
    110 CA        -4.2873  -21.6114  -57.7293 C.3       20 UNK         0.1400 
    111 CB        -2.8430  -21.9921  -57.3749 C.3       20 UNK        -0.1800 
    112 C         -4.6447  -20.2331  -57.1429 C.2       20 UNK         0.5000 
    113 O         -4.4533  -19.2262  -57.8262 O.2       20 UNK        -0.5000 
    114 N         -5.1574  -20.2170  -55.9020 N.am      21 UNK        -0.5000 
    115 CA        -5.6315  -19.0793  -55.0969 C.3       21 UNK         0.1400 
    116 CB        -6.8454  -18.4065  -55.7646 C.3       21 UNK        -0.1800 
    117 C         -4.5638  -18.0294  -54.7134 C.2       21 UNK         0.5000 
    118 O         -4.5894  -17.5307  -53.5877 O.2       21 UNK        -0.5000 
    119 N         -3.6601  -17.7072  -55.6456 N.am      22 UNK        -0.5000 
    120 CA        -2.5064  -16.8001  -55.5065 C.3       22 UNK         0.1400 
    121 C         -2.8698  -15.2938  -55.3262 C.2       22 UNK         0.5000 
    122 N         -4.0973  -14.8706  -55.6023 N.am      22 UNK        -0.7600 
    123 O         -2.0201  -14.4838  -54.9653 O.2       22 UNK        -0.5000 
    124 C124       -1.4695  -17.2924  -54.4585 C.3       23 UNK        -0.0398 
    125 S125       -0.9243  -19.0113  -54.7570 S.3       23 UNK        -0.2404 
    126 C126        0.7894  -18.9839  -54.1350 C.3       23 UNK        -0.0205 
    127 H127        4.1898  -11.2095  -47.9675 H         1 UNK         0.0600 
    128 H128        3.5443  -10.8265  -46.3690 H         1 UNK         0.0600 
    129 H129        4.8101  -12.0465  -46.5426 H         1 UNK         0.0600 
    130 H130        2.6234  -12.3145  -49.1260 H         1 UNK         0.3000 
    131 H131        1.7889  -14.8784  -48.4155 H         1 UNK         0.0600 
    132 H132        0.5691  -13.0601  -50.5479 H         1 UNK         0.0800 
    133 H133        0.3365  -14.7796  -50.4607 H         1 UNK         0.0800 
    134 H134        3.3613  -15.9513  -49.7797 H         1 UNK         0.0800 
    135 H135        3.9814  -16.1360  -51.3935 H         1 UNK         0.0800 
    136 H136        2.5371  -17.1115  -53.2156 H         1 UNK         0.1150 
    137 H137       -0.6705  -19.6395  -51.9074 H         1 UNK         0.1150 
    138 H138        1.2690  -16.9979  -49.1398 H         1 UNK         0.1150 
    139 H139       -1.7595  -18.4034  -49.5095 H         1 UNK         0.0800 
    140 H140       -0.9313  -19.9457  -49.4437 H         1 UNK         0.0800 
    141 H141       -1.7902  -18.8544  -45.7539 H         1 UNK         0.0800 
    142 H142       -2.5415  -19.3034  -47.2659 H         1 UNK         0.0800 
    143 H143       -0.9731  -21.3018  -47.3866 H         1 UNK         0.0600 
    144 H144        0.2080  -20.1918  -45.0111 H         1 UNK         0.3000 
    145 H145        1.9979  -23.1898  -44.1613 H         1 UNK         0.0600 
    146 H146        3.7815  -21.4462  -44.1270 H         1 UNK         0.0600 
    147 H147        3.3671  -21.8943  -45.7747 H         1 UNK         0.0600 
    148 H148        2.7820  -20.3771  -45.1090 H         1 UNK         0.0600 
    149 H149        1.6235  -20.6208  -42.9006 H         1 UNK         0.3000 
    150 H150       -0.9848  -20.7459  -41.3488 H         1 UNK         0.0600 
    151 H151       -1.2441  -22.8259  -40.0789 H         1 UNK         0.0600 
    152 H152       -0.7056  -21.5584  -38.9915 H         1 UNK         0.0600 
    153 H153        0.4300  -22.7841  -39.5562 H         1 UNK         0.0600 
    154 H154        0.5384  -19.2709  -40.8207 H         1 UNK         0.3000 
    155 H155        3.3756  -19.1331  -38.9989 H         1 UNK         0.0600 
    156 H156        4.7643  -19.9000  -40.9313 H         1 UNK         0.0600 
    157 H157        4.7681  -18.1492  -40.8110 H         1 UNK         0.0600 
    158 H158        3.7791  -18.9461  -42.0344 H         1 UNK         0.0600 
    159 H159        2.3496  -17.2817  -40.9527 H         1 UNK         0.3000 
    160 H160       -0.4518  -16.1847  -39.0169 H         1 UNK         0.0600 
    161 H161        2.1542  -14.7949  -39.8355 H         1 UNK         0.0600 
    162 H162        0.6262  -13.9935  -39.4767 H         1 UNK         0.0600 
    163 H163        1.4917  -14.8459  -38.2064 H         1 UNK         0.0600 
    164 H164        0.4190  -15.3477  -41.5633 H         1 UNK         0.3000 
    165 H165       -1.3228  -17.7876  -43.5388 H         1 UNK         0.0600 
    166 H166       -2.1569  -15.6468  -44.4867 H         1 UNK         0.0600 
    167 H167       -2.9346  -16.0036  -42.9514 H         1 UNK         0.0600 
    168 H168       -1.6709  -14.7843  -43.0300 H         1 UNK         0.0600 
    169 H169        0.5350  -15.5398  -43.9155 H         1 UNK         0.3000 
    170 H170        3.3681  -17.5501  -44.3972 H         1 UNK         0.0600 
    171 H171        2.4681  -17.8849  -46.6418 H         1 UNK         0.0600 
    172 H172        1.6911  -16.3059  -46.6253 H         1 UNK         0.0600 
    173 H173        3.4513  -16.4288  -46.6660 H         1 UNK         0.0600 
    174 H174        2.8051  -14.7644  -44.9045 H         1 UNK         0.3000 
    175 H175        3.5465  -13.6996  -41.5515 H         1 UNK         0.0600 
    176 H176        5.0697  -13.4266  -44.1953 H         1 UNK         0.0600 
    177 H177        5.2606  -12.4071  -42.7685 H         1 UNK         0.0600 
    178 H178        5.7347  -14.0971  -42.7099 H         1 UNK         0.0600 
    179 H179        3.0101  -12.0637  -43.7091 H         1 UNK         0.3000 
    180 H180       -0.3429  -11.5148  -42.9124 H         1 UNK         0.0600 
    181 H181        1.7344  -10.1007  -42.7683 H         1 UNK         0.0600 
    182 H182        2.0827  -10.4465  -44.4625 H         1 UNK         0.0600 
    183 H183        0.6342   -9.5556  -44.0215 H         1 UNK         0.0600 
    184 H184        0.6711  -12.4900  -45.5447 H         1 UNK         0.3000 
    185 H185       -2.2680  -13.1546  -46.7851 H         1 UNK         0.0600 
    186 H186       -3.2671  -10.9004  -46.9892 H         1 UNK         0.0600 
    187 H187       -1.7248  -10.2232  -47.4988 H         1 UNK         0.0600 
    188 H188       -2.5704  -11.3806  -48.5260 H         1 UNK         0.0600 
    189 H189        0.1856  -11.8153  -47.8389 H         1 UNK         0.3000 
    190 H190       -1.8640  -21.5046  -43.9999 H         1 UNK         0.3000 
    191 H191       -4.5801  -22.4122  -44.4420 H         1 UNK         0.0600 
    192 H192       -4.5090  -23.0172  -42.0535 H         1 UNK         0.0600 
    193 H193       -3.8557  -21.4017  -42.2756 H         1 UNK         0.0600 
    194 H194       -2.7736  -22.7641  -41.9926 H         1 UNK         0.0600 
    195 H195       -1.4251  -24.0301  -43.8055 H         1 UNK         0.3000 
    196 H196       -2.3408  -26.7052  -44.0228 H         1 UNK         0.0600 
    197 H197        0.0944  -27.2173  -44.2756 H         1 UNK         0.0600 
    198 H198       -0.1903  -26.0804  -42.9657 H         1 UNK         0.0600 
    199 H199        0.4392  -25.5068  -44.5076 H         1 UNK         0.0600 
    200 H200       -1.0187  -24.4653  -46.4937 H         1 UNK         0.3000 
    201 H201       -1.1916  -26.3449  -48.6773 H         1 UNK         0.0600 
    202 H202       -0.9255  -23.2913  -48.6806 H         1 UNK         0.0600 
    203 H203       -0.5996  -24.3574  -50.0407 H         1 UNK         0.0600 
    204 H204        0.4175  -24.4307  -48.6117 H         1 UNK         0.0600 
    205 H205       -3.6257  -24.6089  -47.0597 H         1 UNK         0.3000 
    206 H206       -5.7296  -24.0184  -47.3904 H         1 UNK         0.0600 
    207 H207       -5.7641  -26.1348  -49.6123 H         1 UNK         0.0600 
    208 H208       -6.0207  -26.4495  -47.8966 H         1 UNK         0.0600 
    209 H209       -7.1683  -25.4663  -48.7920 H         1 UNK         0.0600 
    210 H210       -4.0707  -22.2273  -48.3381 H         1 UNK         0.3000 
    211 H211       -3.6390  -20.5014  -49.6592 H         1 UNK         0.0600 
    212 H212       -6.5347  -20.7531  -50.6271 H         1 UNK         0.0600 
    213 H213       -5.5305  -19.3120  -50.7002 H         1 UNK         0.0600 
    214 H214       -6.0270  -19.9498  -49.1412 H         1 UNK         0.0600 
    215 H215       -3.0324  -23.1264  -50.7063 H         1 UNK         0.3000 
    216 H216       -2.1409  -24.1680  -52.4186 H         1 UNK         0.0600 
    217 H217       -2.2470  -21.5658  -54.0187 H         1 UNK         0.0600 
    218 H218       -1.2696  -22.9796  -54.3848 H         1 UNK         0.0600 
    219 H219       -0.9347  -22.0371  -52.9420 H         1 UNK         0.0600 
    220 H220       -5.0687  -23.9307  -52.0098 H         1 UNK         0.3000 
    221 H221       -6.9708  -24.7054  -52.7695 H         1 UNK         0.0600 
    222 H222       -5.2223  -26.3990  -54.6427 H         1 UNK         0.0600 
    223 H223       -5.6734  -26.7985  -52.9915 H         1 UNK         0.0600 
    224 H224       -6.9079  -26.7244  -54.2326 H         1 UNK         0.0600 
    225 H225       -6.4965  -25.4723  -55.9984 H         1 UNK         0.3000 
    226 H226       -8.3240  -23.4975  -56.9303 H         1 UNK         0.0600 
    227 H227       -8.1904  -25.7942  -57.8615 H         1 UNK         0.0600 
    228 H228       -7.9293  -24.6116  -59.1321 H         1 UNK         0.0600 
    229 H229       -6.5589  -25.4853  -58.4582 H         1 UNK         0.0600 
    230 H230       -4.8501  -23.3348  -56.6167 H         1 UNK         0.3000 
    231 H231       -4.3524  -21.5337  -58.8168 H         1 UNK         0.0600 
    232 H232       -2.6988  -22.0547  -56.2977 H         1 UNK         0.0600 
    233 H233       -2.5677  -22.9538  -57.8078 H         1 UNK         0.0600 
    234 H234       -2.1400  -21.2490  -57.7536 H         1 UNK         0.0600 
    235 H235       -5.2527  -21.1117  -55.4402 H         1 UNK         0.3000 
    236 H236       -5.9802  -19.5175  -54.1604 H         1 UNK         0.0600 
    237 H237       -7.6397  -19.1289  -55.9534 H         1 UNK         0.0600 
    238 H238       -7.2598  -17.6275  -55.1236 H         1 UNK         0.0600 
    239 H239       -6.5825  -17.9413  -56.7150 H         1 UNK         0.0600 
    240 H240       -3.7646  -18.1551  -56.5530 H         1 UNK         0.3000 
    241 H241       -2.0095  -16.8361  -56.4763 H         1 UNK         0.0600 
    242 H242       -4.3231  -13.8941  -55.4959 H         1 UNK         0.3800 
    243 H243       -4.8035  -15.5203  -55.9089 H         1 UNK         0.3800 
    244 H244       -1.8805  -17.2290  -53.4500 H         1 UNK         0.0800 
    245 H245       -0.5895  -16.6473  -54.4700 H         1 UNK         0.0800 
    246 H246        1.1863  -19.9994  -54.1567 H         1 UNK         0.0800 
    247 H247        1.3965  -18.4000  -54.8285 H         1 UNK         0.0800 
@<TRIPOS>BOND
     1    1    2 1    
     2    1  127 1    
     3    1  128 1    
     4    1  129 1    
     5    2    3 2    
     6    2    4 am   BACKBONE|DICT|INTERRES
     7    4    5 1    
     8    4  130 1    
     9    5    6 1    
    10    5   65 1    
    11    5  131 1    
    12    6    7 1    
    13    6  132 1    
    14    6  133 1    
    15    7    8 1    
    16    8    9 1    
    17    8  134 1    
    18    8  135 1    
    19    9   10 ar   
    20    9   14 ar   
    21   10   11 ar   
    22   10  136 1    
    23   11   12 ar   
    24   11  126 1    
    25   12   13 ar   
    26   12  137 1    
    27   13   14 ar   
    28   13   15 1    
    29   14  138 1    
    30   15   16 1    
    31   15  139 1    
    32   15  140 1    
    33   16   17 1    
    34   17   18 1    
    35   17  141 1    
    36   17  142 1    
    37   18   19 1    
    38   18   67 1    
    39   18  143 1    
    40   19   20 am   BACKBONE|DICT|INTERRES
    41   19  144 1    
    42   20   21 2    
    43   20   22 1    
    44   22   23 1    
    45   22   24 1    
    46   22  145 1    
    47   23  146 1    
    48   23  147 1    
    49   23  148 1    
    50   24   25 am   BACKBONE|DICT|INTERRES
    51   24  149 1    
    52   25   26 2    
    53   25   27 1    
    54   27   28 1    
    55   27   29 1    
    56   27  150 1    
    57   28  151 1    
    58   28  152 1    
    59   28  153 1    
    60   29   30 am   BACKBONE|DICT|INTERRES
    61   29  154 1    
    62   30   31 2    
    63   30   32 1    
    64   32   33 1    
    65   32   34 1    
    66   32  155 1    
    67   33  156 1    
    68   33  157 1    
    69   33  158 1    
    70   34   35 am   BACKBONE|DICT|INTERRES
    71   34  159 1    
    72   35   36 2    
    73   35   37 1    
    74   37   38 1    
    75   37   39 1    
    76   37  160 1    
    77   38  161 1    
    78   38  162 1    
    79   38  163 1    
    80   39   40 am   BACKBONE|DICT|INTERRES
    81   39  164 1    
    82   40   41 2    
    83   40   42 1    
    84   42   43 1    
    85   42   44 1    
    86   42  165 1    
    87   43  166 1    
    88   43  167 1    
    89   43  168 1    
    90   44   45 am   BACKBONE|DICT|INTERRES
    91   44  169 1    
    92   45   46 2    
    93   45   47 1    
    94   47   48 1    
    95   47   49 1    
    96   47  170 1    
    97   48  171 1    
    98   48  172 1    
    99   48  173 1    
   100   49   50 am   BACKBONE|DICT|INTERRES
   101   49  174 1    
   102   50   51 2    
   103   50   52 1    
   104   52   53 1    
   105   52   54 1    
   106   52  175 1    
   107   53  176 1    
   108   53  177 1    
   109   53  178 1    
   110   54   55 am   BACKBONE|DICT|INTERRES
   111   54  179 1    
   112   55   56 2    
   113   55   57 1    
   114   57   58 1    
   115   57   59 1    
   116   57  180 1    
   117   58  181 1    
   118   58  182 1    
   119   58  183 1    
   120   59   60 am   BACKBONE|DICT|INTERRES
   121   59  184 1    
   122   60   61 2    
   123   60   62 1    
   124   62   63 1    
   125   62   64 1    
   126   62  185 1    
   127   63  186 1    
   128   63  187 1    
   129   63  188 1    
   130   64   65 am   BACKBONE|DICT|INTERRES
   131   64  189 1    
   132   65   66 2    
   133   67   68 2    
   134   67   69 am   BACKBONE|DICT|INTERRES
   135   69   70 1    
   136   69  190 1    
   137   70   71 1    
   138   70   72 1    
   139   70  191 1    
   140   71  192 1    
   141   71  193 1    
   142   71  194 1    
   143   72   73 2    
   144   72   74 am   BACKBONE|DICT|INTERRES
   145   74   75 1    
   146   74  195 1    
   147   75   76 1    
   148   75   77 1    
   149   75  196 1    
   150   76  197 1    
   151   76  198 1    
   152   76  199 1    
   153   77   78 2    
   154   77   79 am   BACKBONE|DICT|INTERRES
   155   79   80 1    
   156   79  200 1    
   157   80   81 1    
   158   80   82 1    
   159   80  201 1    
   160   81  202 1    
   161   81  203 1    
   162   81  204 1    
   163   82   83 2    
   164   82   84 am   BACKBONE|DICT|INTERRES
   165   84   85 1    
   166   84  205 1    
   167   85   86 1    
   168   85   87 1    
   169   85  206 1    
   170   86  207 1    
   171   86  208 1    
   172   86  209 1    
   173   87   88 2    
   174   87   89 am   BACKBONE|DICT|INTERRES
   175   89   90 1    
   176   89  210 1    
   177   90   91 1    
   178   90   92 1    
   179   90  211 1    
   180   91  212 1    
   181   91  213 1    
   182   91  214 1    
   183   92   93 2    
   184   92   94 am   BACKBONE|DICT|INTERRES
   185   94   95 1    
   186   94  215 1    
   187   95   96 1    
   188   95   97 1    
   189   95  216 1    
   190   96  217 1    
   191   96  218 1    
   192   96  219 1    
   193   97   98 2    
   194   97   99 am   BACKBONE|DICT|INTERRES
   195   99  100 1    
   196   99  220 1    
   197  100  101 1    
   198  100  102 1    
   199  100  221 1    
   200  101  222 1    
   201  101  223 1    
   202  101  224 1    
   203  102  103 2    
   204  102  104 am   BACKBONE|DICT|INTERRES
   205  104  105 1    
   206  104  225 1    
   207  105  106 1    
   208  105  107 1    
   209  105  226 1    
   210  106  227 1    
   211  106  228 1    
   212  106  229 1    
   213  107  108 2    
   214  107  109 am   BACKBONE|DICT|INTERRES
   215  109  110 1    
   216  109  230 1    
   217  110  111 1    
   218  110  112 1    
   219  110  231 1    
   220  111  232 1    
   221  111  233 1    
   222  111  234 1    
   223  112  113 2    
   224  112  114 am   BACKBONE|DICT|INTERRES
   225  114  115 1    
   226  114  235 1    
   227  115  116 1    
   228  115  117 1    
   229  115  236 1    
   230  116  237 1    
   231  116  238 1    
   232  116  239 1    
   233  117  118 2    
   234  117  119 am   BACKBONE|DICT|INTERRES
   235  119  120 1    
   236  119  240 1    
   237  120  121 1    
   238  120  124 1    
   239  120  241 1    
   240  121  122 am   BACKBONE|DICT|INTERRES
   241  121  123 2    
   242  122  242 1    
   243  122  243 1    
   244  124  125 1    
   245  124  244 1    
   246  124  245 1    
   247  125  126 1    
   248  126  246 1    
   249  126  247 1    
@<TRIPOS>SUBSTRUCTURE
     1 UNK         1 GROUP             0       ****    0 ROOT    
