@<TRIPOS>MOLECULE
3R540
247   249    1
SMALL
USER_CHARGES


@<TRIPOS>ATOM
      1 CA         -0.5095  -13.1411  -48.8871 C.3       0 UNK        -0.1800 
      2 C           0.7269  -12.2668  -48.7309 C.2       0 UNK         0.5000 
      3 O           0.7852  -11.1800  -49.3058 O.2       0 UNK        -0.5000 
      4 N           1.7139  -12.7360  -47.9562 N.am      1 UNK        -0.5000 
      5 CA          2.9924  -12.0473  -47.7255 C.3       1 UNK         0.1400 
      6 C6          4.1014  -13.0167  -47.2438 C.3       23 UNK        -0.0398 
      7 S7          4.3938  -14.3950  -48.4052 S.3       23 UNK        -0.2404 
      8 C8          3.7250  -15.8061  -47.4676 C.3       23 UNK        -0.0205 
      9 C9          3.0417  -16.8159  -48.3769 C.ar      23 UNK        -0.0193 
     10 C10         1.8764  -16.4631  -49.0667 C.ar      23 UNK        -0.1150 
     11 C11         1.2108  -17.3971  -49.8646 C.ar      23 UNK        -0.0193 
     12 C12         1.7315  -18.6862  -49.9887 C.ar      23 UNK        -0.1150 
     13 C13         2.8893  -19.0559  -49.2979 C.ar      23 UNK        -0.0193 
     14 C14         3.5427  -18.1159  -48.4954 C.ar      23 UNK        -0.1150 
     15 C15         3.4168  -20.4792  -49.4041 C.3       23 UNK        -0.0205 
     16 S16         2.7912  -21.5380  -48.0595 S.3       23 UNK        -0.2404 
     17 C17         0.9925  -21.4393  -48.3454 C.3       23 UNK        -0.0398 
     18 CA          0.1934  -22.4782  -47.5317 C.3       11 UNK         0.1400 
     19 N           0.2418  -22.2287  -46.0886 N.am      11 UNK        -0.5000 
     20 C          -0.2397  -23.0623  -45.1564 C.2       10 UNK         0.5000 
     21 O          -0.7505  -24.1526  -45.4134 O.2       10 UNK        -0.5000 
     22 CA         -0.1973  -22.5740  -43.6977 C.3       10 UNK         0.1400 
     23 CB          1.2192  -22.6878  -43.1149 C.3       10 UNK        -0.1800 
     24 N          -0.6889  -21.2029  -43.5553 N.am      10 UNK        -0.5000 
     25 C          -1.9470  -20.8222  -43.8212 C.2       9 UNK         0.5000 
     26 O          -2.8362  -21.5993  -44.1714 O.2       9 UNK        -0.5000 
     27 CA         -2.2579  -19.3175  -43.7148 C.3       9 UNK         0.1400 
     28 CB         -2.4947  -18.9109  -42.2528 C.3       9 UNK        -0.1800 
     29 N          -1.2116  -18.4746  -44.2942 N.am      9 UNK        -0.5000 
     30 C          -0.8505  -18.4835  -45.5852 C.2       8 UNK         0.5000 
     31 O          -1.3838  -19.1835  -46.4432 O.2       8 UNK        -0.5000 
     32 CA          0.3483  -17.6035  -45.9763 C.3       8 UNK         0.1400 
     33 CB         -0.0784  -16.1328  -46.1023 C.3       8 UNK        -0.1800 
     34 N           1.4692  -17.7333  -45.0431 N.am      8 UNK        -0.5000 
     35 C           2.0971  -18.8907  -44.7819 C.2       7 UNK         0.5000 
     36 O           1.8220  -19.9588  -45.3239 O.2       7 UNK        -0.5000 
     37 CA          3.1592  -18.8688  -43.6734 C.3       7 UNK         0.1400 
     38 CB          4.4996  -18.3389  -44.2043 C.3       7 UNK        -0.1800 
     39 N           2.7125  -18.0765  -42.5277 N.am      7 UNK        -0.5000 
     40 C           1.7256  -18.4511  -41.6989 C.2       6 UNK         0.5000 
     41 O           1.1380  -19.5300  -41.7801 O.2       6 UNK        -0.5000 
     42 CA          1.2922  -17.4311  -40.6292 C.3       6 UNK         0.1400 
     43 CB          2.1920  -17.5310  -39.3886 C.3       6 UNK        -0.1800 
     44 N           1.3035  -16.0548  -41.1283 N.am      6 UNK        -0.5000 
     45 C           0.4849  -15.5887  -42.0825 C.2       5 UNK         0.5000 
     46 O          -0.4123  -16.2574  -42.5937 O.2       5 UNK        -0.5000 
     47 CA          0.7445  -14.1549  -42.5871 C.3       5 UNK         0.1400 
     48 CB         -0.0996  -13.1433  -41.7992 C.3       5 UNK        -0.1800 
     49 N           2.1561  -13.7614  -42.5283 N.am      5 UNK        -0.5000 
     50 C           3.1447  -14.3638  -43.2034 C.2       4 UNK         0.5000 
     51 O           2.9567  -15.2958  -43.9871 O.2       4 UNK        -0.5000 
     52 CA          4.5585  -13.8115  -42.9625 C.3       4 UNK         0.1400 
     53 CB          5.6403  -14.5075  -43.8085 C.3       4 UNK        -0.1800 
     54 N           4.5527  -12.3811  -43.2493 N.am      4 UNK        -0.5000 
     55 C           5.0019  -11.4135  -42.4408 C.2       3 UNK         0.5000 
     56 O           5.5474  -11.6215  -41.3566 O.2       3 UNK        -0.5000 
     57 CA          4.7894   -9.9630  -42.9200 C.3       3 UNK         0.1400 
     58 CB          6.0810   -9.4078  -43.5390 C.3       3 UNK        -0.1800 
     59 N           3.7064   -9.8393  -43.8991 N.am      3 UNK        -0.5000 
     60 C           2.4006   -9.9656  -43.6347 C.2       2 UNK         0.5000 
     61 O           1.9516  -10.1469  -42.5032 O.2       2 UNK        -0.5000 
     62 CA          1.4388   -9.9373  -44.8390 C.3       2 UNK         0.1400 
     63 CB          1.2487   -8.5064  -45.3770 C.3       2 UNK        -0.1800 
     64 N           1.7975  -10.8799  -45.9105 N.am      2 UNK        -0.5000 
     65 C           2.8603  -10.8717  -46.7326 C.2       1 UNK         0.5000 
     66 O           3.7395  -10.0097  -46.7064 O.2       1 UNK        -0.5000 
     67 C          -1.2544  -22.5595  -48.0525 C.2       11 UNK         0.5000 
     68 O          -1.5544  -23.4599  -48.8334 O.2       11 UNK        -0.5000 
     69 N          -2.1316  -21.6539  -47.5958 N.am      12 UNK        -0.5000 
     70 CA         -3.5556  -21.6271  -47.9360 C.3       12 UNK         0.1400 
     71 CB         -4.2116  -20.3764  -47.3316 C.3       12 UNK        -0.1800 
     72 C          -4.3100  -22.8949  -47.5021 C.2       12 UNK         0.5000 
     73 O          -5.1766  -23.3629  -48.2414 O.2       12 UNK        -0.5000 
     74 N          -3.9513  -23.4407  -46.3333 N.am      13 UNK        -0.5000 
     75 CA         -4.4617  -24.7149  -45.8352 C.3       13 UNK         0.1400 
     76 CB         -4.1455  -24.8438  -44.3371 C.3       13 UNK        -0.1800 
     77 C          -3.9005  -25.9122  -46.6246 C.2       13 UNK         0.5000 
     78 O          -4.6661  -26.8000  -47.0004 O.2       13 UNK        -0.5000 
     79 N          -2.5813  -25.9139  -46.8633 N.am      14 UNK        -0.5000 
     80 CA         -1.8570  -26.9944  -47.5348 C.3       14 UNK         0.1400 
     81 CB         -0.3457  -26.7925  -47.3456 C.3       14 UNK        -0.1800 
     82 C          -2.2011  -27.1333  -49.0285 C.2       14 UNK         0.5000 
     83 O          -2.4465  -28.2476  -49.4926 O.2       14 UNK        -0.5000 
     84 N          -2.2082  -26.0081  -49.7546 N.am      15 UNK        -0.5000 
     85 CA         -2.4873  -25.9543  -51.1914 C.3       15 UNK         0.1400 
     86 CB         -1.8148  -24.7079  -51.7900 C.3       15 UNK        -0.1800 
     87 C          -3.9922  -25.9504  -51.5127 C.2       15 UNK         0.5000 
     88 O          -4.3494  -26.2080  -52.6614 O.2       15 UNK        -0.5000 
     89 N          -4.8275  -25.6542  -50.5052 N.am      16 UNK        -0.5000 
     90 CA         -6.2751  -25.4492  -50.5644 C.3       16 UNK         0.1400 
     91 CB         -7.0161  -26.7042  -51.0708 C.3       16 UNK        -0.1800 
     92 C          -6.6130  -24.1917  -51.3834 C.2       16 UNK         0.5000 
     93 O          -6.8427  -24.2747  -52.5904 O.2       16 UNK        -0.5000 
     94 N          -6.6382  -23.0372  -50.7062 N.am      17 UNK        -0.5000 
     95 CA         -6.8939  -21.7050  -51.2723 C.3       17 UNK         0.1400 
     96 CB         -6.7486  -20.6524  -50.1648 C.3       17 UNK        -0.1800 
     97 C          -8.2313  -21.5281  -52.0240 C.2       17 UNK         0.5000 
     98 O          -8.3771  -20.5682  -52.7809 O.2       17 UNK        -0.5000 
     99 N          -9.1760  -22.4567  -51.8289 N.am      18 UNK        -0.5000 
    100 CA       -10.4055  -22.5662  -52.6138 C.3       18 UNK         0.1400 
    101 CB       -11.3674  -23.5227  -51.8921 C.3       18 UNK        -0.1800 
    102 C        -10.1627  -23.0415  -54.0636 C.2       18 UNK         0.5000 
    103 O        -10.9985  -22.7690  -54.9266 O.2       18 UNK        -0.5000 
    104 N         -9.0476  -23.7464  -54.3036 N.am      19 UNK        -0.5000 
    105 CA        -8.6729  -24.3224  -55.5946 C.3       19 UNK         0.1400 
    106 CB        -8.5413  -25.8460  -55.4362 C.3       19 UNK        -0.1800 
    107 C         -7.3621  -23.7314  -56.1431 C.2       19 UNK         0.5000 
    108 O         -7.2554  -23.5512  -57.3573 O.2       19 UNK        -0.5000 
    109 N         -6.3891  -23.4530  -55.2658 N.am      20 UNK        -0.5000 
    110 CA        -5.0542  -22.9755  -55.6242 C.3       20 UNK         0.1400 
    111 CB        -4.0985  -24.1793  -55.7625 C.3       20 UNK        -0.1800 
    112 C         -4.5860  -21.8940  -54.6323 C.2       20 UNK         0.5000 
    113 O         -5.3369  -20.9503  -54.3841 O.2       20 UNK        -0.5000 
    114 N         -3.3538  -22.0265  -54.1160 N.am      21 UNK        -0.5000 
    115 CA        -2.6155  -21.0548  -53.2965 C.3       21 UNK         0.1400 
    116 CB        -3.3011  -20.8408  -51.9280 C.3       21 UNK        -0.1800 
    117 C         -2.3341  -19.7418  -54.0661 C.2       21 UNK         0.5000 
    118 O         -2.2285  -19.7697  -55.2954 O.2       21 UNK        -0.5000 
    119 N         -2.1786  -18.6252  -53.3433 N.am      22 UNK        -0.5000 
    120 CA        -2.0175  -17.2804  -53.9195 C.3       22 UNK         0.1400 
    121 C         -3.3400  -16.7682  -54.5544 C.2       22 UNK         0.5000 
    122 N         -3.2880  -16.2100  -55.7561 N.am      22 UNK        -0.7600 
    123 O         -4.4047  -16.8306  -53.9441 O.2       22 UNK        -0.5000 
    124 C124       -1.4944  -16.2591  -52.8774 C.3       23 UNK        -0.0398 
    125 S125        0.2015  -16.6313  -52.3163 S.3       23 UNK        -0.2404 
    126 C126       -0.0859  -17.0306  -50.5675 C.3       23 UNK        -0.0205 
    127 H127       -1.4041  -12.5781  -48.6213 H         1 UNK         0.0600 
    128 H128       -0.4656  -14.0246  -48.2516 H         1 UNK         0.0600 
    129 H129       -0.6069  -13.4703  -49.9217 H         1 UNK         0.0600 
    130 H130        1.6192  -13.6409  -47.5222 H         1 UNK         0.3000 
    131 H131        3.3203  -11.6193  -48.6756 H         1 UNK         0.0600 
    132 H132        3.8615  -13.4095  -46.2556 H         1 UNK         0.0800 
    133 H133        5.0480  -12.4841  -47.1331 H         1 UNK         0.0800 
    134 H134        4.5374  -16.2705  -46.9070 H         1 UNK         0.0800 
    135 H135        3.0041  -15.4685  -46.7252 H         1 UNK         0.0800 
    136 H136        1.4810  -15.4632  -48.9728 H         1 UNK         0.1150 
    137 H137        1.2201  -19.4088  -50.6088 H         1 UNK         0.1150 
    138 H138        4.4309  -18.4041  -47.9510 H         1 UNK         0.1150 
    139 H139        3.1452  -20.9152  -50.3667 H         1 UNK         0.0800 
    140 H140        4.5072  -20.4718  -49.3705 H         1 UNK         0.0800 
    141 H141        0.8214  -21.5783  -49.4148 H         1 UNK         0.0800 
    142 H142        0.6515  -20.4322  -48.0991 H         1 UNK         0.0800 
    143 H143        0.6458  -23.4568  -47.7048 H         1 UNK         0.0600 
    144 H144        0.6889  -21.3621  -45.7952 H         1 UNK         0.3000 
    145 H145       -0.8533  -23.2229  -43.1136 H         1 UNK         0.0600 
    146 H146        1.2354  -22.4057  -42.0621 H         1 UNK         0.0600 
    147 H147        1.5871  -23.7122  -43.1837 H         1 UNK         0.0600 
    148 H148        1.9277  -22.0494  -43.6422 H         1 UNK         0.0600 
    149 H149       -0.0205  -20.5083  -43.2409 H         1 UNK         0.3000 
    150 H150       -3.1783  -19.1292  -44.2707 H         1 UNK         0.0600 
    151 H151       -3.2869  -19.5111  -41.8035 H         1 UNK         0.0600 
    152 H152       -2.7960  -17.8658  -42.1788 H         1 UNK         0.0600 
    153 H153       -1.5978  -19.0429  -41.6472 H         1 UNK         0.0600 
    154 H154       -0.7498  -17.8250  -43.6637 H         1 UNK         0.3000 
    155 H155        0.6987  -17.9459  -46.9511 H         1 UNK         0.0600 
    156 H156       -0.5133  -15.7546  -45.1784 H         1 UNK         0.0600 
    157 H157       -0.8318  -16.0211  -46.8827 H         1 UNK         0.0600 
    158 H158        0.7592  -15.4898  -46.3626 H         1 UNK         0.0600 
    159 H159        1.7791  -16.8950  -44.5647 H         1 UNK         0.3000 
    160 H160        3.3153  -19.8956  -43.3356 H         1 UNK         0.0600 
    161 H161        4.4064  -17.3377  -44.6222 H         1 UNK         0.0600 
    162 H162        4.8805  -18.9838  -44.9973 H         1 UNK         0.0600 
    163 H163        5.2540  -18.3087  -43.4182 H         1 UNK         0.0600 
    164 H164        3.1029  -17.1504  -42.4376 H         1 UNK         0.3000 
    165 H165        0.2704  -17.6757  -40.3310 H         1 UNK         0.0600 
    166 H166        1.8471  -16.8657  -38.5968 H         1 UNK         0.0600 
    167 H167        2.1876  -18.5444  -38.9849 H         1 UNK         0.0600 
    168 H168        3.2268  -17.2733  -39.6176 H         1 UNK         0.0600 
    169 H169        2.0060  -15.4362  -40.7515 H         1 UNK         0.3000 
    170 H170        0.4334  -14.1145  -43.6325 H         1 UNK         0.0600 
    171 H171       -1.1579  -13.4060  -41.8339 H         1 UNK         0.0600 
    172 H172        0.1952  -13.1027  -40.7500 H         1 UNK         0.0600 
    173 H173       -0.0024  -12.1403  -42.2146 H         1 UNK         0.0600 
    174 H174        2.3827  -12.9808  -41.9278 H         1 UNK         0.3000 
    175 H175        4.7869  -13.9885  -41.9096 H         1 UNK         0.0600 
    176 H176        5.4404  -14.4325  -44.8767 H         1 UNK         0.0600 
    177 H177        6.6224  -14.0727  -43.6224 H         1 UNK         0.0600 
    178 H178        5.7058  -15.5668  -43.5595 H         1 UNK         0.0600 
    179 H179        4.0896  -12.0995  -44.0997 H         1 UNK         0.3000 
    180 H180        4.5365   -9.3584  -42.0466 H         1 UNK         0.0600 
    181 H181        6.3724   -9.9664  -44.4295 H         1 UNK         0.0600 
    182 H182        6.9092   -9.4610  -42.8310 H         1 UNK         0.0600 
    183 H183        5.9638   -8.3617  -43.8227 H         1 UNK         0.0600 
    184 H184        3.9732   -9.7110  -44.8723 H         1 UNK         0.3000 
    185 H185        0.4687  -10.2725  -44.4682 H         1 UNK         0.0600 
    186 H186        0.8788   -7.8440  -44.5934 H         1 UNK         0.0600 
    187 H187        2.1795   -8.0784  -45.7496 H         1 UNK         0.0600 
    188 H188        0.5224   -8.4858  -46.1895 H         1 UNK         0.0600 
    189 H189        1.1486  -11.6447  -46.0290 H         1 UNK         0.3000 
    190 H190       -1.8008  -20.9013  -46.9956 H         1 UNK         0.3000 
    191 H191       -3.6312  -21.5624  -49.0222 H         1 UNK         0.0600 
    192 H192       -3.8003  -19.4668  -47.7693 H         1 UNK         0.0600 
    193 H193       -5.2876  -20.3650  -47.5066 H         1 UNK         0.0600 
    194 H194       -4.0617  -20.3271  -46.2537 H         1 UNK         0.0600 
    195 H195       -3.2669  -22.9618  -45.7584 H         1 UNK         0.3000 
    196 H196       -5.5478  -24.7176  -45.9502 H         1 UNK         0.0600 
    197 H197       -4.5328  -25.7809  -43.9353 H         1 UNK         0.0600 
    198 H198       -4.6005  -24.0323  -43.7688 H         1 UNK         0.0600 
    199 H199       -3.0724  -24.8219  -44.1454 H         1 UNK         0.0600 
    200 H200       -2.0154  -25.1582  -46.4867 H         1 UNK         0.3000 
    201 H201       -2.1318  -27.9313  -47.0457 H         1 UNK         0.0600 
    202 H202       -0.0779  -26.7911  -46.2889 H         1 UNK         0.0600 
    203 H203       -0.0090  -25.8491  -47.7765 H         1 UNK         0.0600 
    204 H204        0.2199  -27.5934  -47.8234 H         1 UNK         0.0600 
    205 H205       -1.9844  -25.1198  -49.3062 H         1 UNK         0.3000 
    206 H206       -2.0502  -26.8334  -51.6697 H         1 UNK         0.0600 
    207 H207       -0.7460  -24.6931  -51.5762 H         1 UNK         0.0600 
    208 H208       -1.9310  -24.6843  -52.8741 H         1 UNK         0.0600 
    209 H209       -2.2485  -23.7892  -51.3950 H         1 UNK         0.0600 
    210 H210       -4.4058  -25.4464  -49.6106 H         1 UNK         0.3000 
    211 H211       -6.6040  -25.2779  -49.5384 H         1 UNK         0.0600 
    212 H212       -6.7845  -26.9344  -52.1109 H         1 UNK         0.0600 
    213 H213       -8.0958  -26.5654  -51.0064 H         1 UNK         0.0600 
    214 H214       -6.7633  -27.5781  -50.4704 H         1 UNK         0.0600 
    215 H215       -6.3620  -23.0638  -49.7279 H         1 UNK         0.3000 
    216 H216       -6.1127  -21.5256  -52.0075 H         1 UNK         0.0600 
    217 H217       -6.9844  -19.6528  -50.5326 H         1 UNK         0.0600 
    218 H218       -5.7246  -20.6205  -49.7991 H         1 UNK         0.0600 
    219 H219       -7.4081  -20.8594  -49.3213 H         1 UNK         0.0600 
    220 H220       -8.9841  -23.2018  -51.1764 H         1 UNK         0.3000 
    221 H221      -10.8741  -21.5809  -52.6619 H         1 UNK         0.0600 
    222 H222      -10.9471  -24.5254  -51.8041 H         1 UNK         0.0600 
    223 H223      -11.6006  -23.1658  -50.8887 H         1 UNK         0.0600 
    224 H224      -12.3112  -23.6088  -52.4324 H         1 UNK         0.0600 
    225 H225       -8.3916  -23.9044  -53.5437 H         1 UNK         0.3000 
    226 H226       -9.4486  -24.1295  -56.3385 H         1 UNK         0.0600 
    227 H227       -9.4841  -26.2908  -55.1177 H         1 UNK         0.0600 
    228 H228       -8.2621  -26.3155  -56.3803 H         1 UNK         0.0600 
    229 H229       -7.7811  -26.1097  -54.6993 H         1 UNK         0.0600 
    230 H230       -6.5410  -23.6411  -54.2773 H         1 UNK         0.3000 
    231 H231       -5.0955  -22.4728  -56.5925 H         1 UNK         0.0600 
    232 H232       -4.4784  -24.8969  -56.4899 H         1 UNK         0.0600 
    233 H233       -3.9751  -24.7062  -54.8165 H         1 UNK         0.0600 
    234 H234       -3.1124  -23.8700  -56.1107 H         1 UNK         0.0600 
    235 H235       -2.8141  -22.8240  -54.4193 H         1 UNK         0.3000 
    236 H236       -1.6421  -21.5092  -53.1065 H         1 UNK         0.0600 
    237 H237       -2.6184  -20.3821  -51.2120 H         1 UNK         0.0600 
    238 H238       -4.1752  -20.1943  -52.0110 H         1 UNK         0.0600 
    239 H239       -3.6263  -21.7874  -51.4965 H         1 UNK         0.0600 
    240 H240       -2.2999  -18.6698  -52.3438 H         1 UNK         0.3000 
    241 H241       -1.2706  -17.3512  -54.7133 H         1 UNK         0.0600 
    242 H242       -4.1379  -15.8594  -56.1703 H         1 UNK         0.3800 
    243 H243       -2.4240  -16.1438  -56.2724 H         1 UNK         0.3800 
    244 H244       -2.1714  -16.1987  -52.0234 H         1 UNK         0.0800 
    245 H245       -1.4694  -15.2571  -53.3100 H         1 UNK         0.0800 
    246 H246       -0.7896  -17.8609  -50.4921 H         1 UNK         0.0800 
    247 H247       -0.5567  -16.1796  -50.0729 H         1 UNK         0.0800 
@<TRIPOS>BOND
     1    1    2 1    
     2    1  127 1    
     3    1  128 1    
     4    1  129 1    
     5    2    3 2    
     6    2    4 am   BACKBONE|DICT|INTERRES
     7    4    5 1    
     8    4  130 1    
     9    5    6 1    
    10    5   65 1    
    11    5  131 1    
    12    6    7 1    
    13    6  132 1    
    14    6  133 1    
    15    7    8 1    
    16    8    9 1    
    17    8  134 1    
    18    8  135 1    
    19    9   10 ar   
    20    9   14 ar   
    21   10   11 ar   
    22   10  136 1    
    23   11   12 ar   
    24   11  126 1    
    25   12   13 ar   
    26   12  137 1    
    27   13   14 ar   
    28   13   15 1    
    29   14  138 1    
    30   15   16 1    
    31   15  139 1    
    32   15  140 1    
    33   16   17 1    
    34   17   18 1    
    35   17  141 1    
    36   17  142 1    
    37   18   19 1    
    38   18   67 1    
    39   18  143 1    
    40   19   20 am   BACKBONE|DICT|INTERRES
    41   19  144 1    
    42   20   21 2    
    43   20   22 1    
    44   22   23 1    
    45   22   24 1    
    46   22  145 1    
    47   23  146 1    
    48   23  147 1    
    49   23  148 1    
    50   24   25 am   BACKBONE|DICT|INTERRES
    51   24  149 1    
    52   25   26 2    
    53   25   27 1    
    54   27   28 1    
    55   27   29 1    
    56   27  150 1    
    57   28  151 1    
    58   28  152 1    
    59   28  153 1    
    60   29   30 am   BACKBONE|DICT|INTERRES
    61   29  154 1    
    62   30   31 2    
    63   30   32 1    
    64   32   33 1    
    65   32   34 1    
    66   32  155 1    
    67   33  156 1    
    68   33  157 1    
    69   33  158 1    
    70   34   35 am   BACKBONE|DICT|INTERRES
    71   34  159 1    
    72   35   36 2    
    73   35   37 1    
    74   37   38 1    
    75   37   39 1    
    76   37  160 1    
    77   38  161 1    
    78   38  162 1    
    79   38  163 1    
    80   39   40 am   BACKBONE|DICT|INTERRES
    81   39  164 1    
    82   40   41 2    
    83   40   42 1    
    84   42   43 1    
    85   42   44 1    
    86   42  165 1    
    87   43  166 1    
    88   43  167 1    
    89   43  168 1    
    90   44   45 am   BACKBONE|DICT|INTERRES
    91   44  169 1    
    92   45   46 2    
    93   45   47 1    
    94   47   48 1    
    95   47   49 1    
    96   47  170 1    
    97   48  171 1    
    98   48  172 1    
    99   48  173 1    
   100   49   50 am   BACKBONE|DICT|INTERRES
   101   49  174 1    
   102   50   51 2    
   103   50   52 1    
   104   52   53 1    
   105   52   54 1    
   106   52  175 1    
   107   53  176 1    
   108   53  177 1    
   109   53  178 1    
   110   54   55 am   BACKBONE|DICT|INTERRES
   111   54  179 1    
   112   55   56 2    
   113   55   57 1    
   114   57   58 1    
   115   57   59 1    
   116   57  180 1    
   117   58  181 1    
   118   58  182 1    
   119   58  183 1    
   120   59   60 am   BACKBONE|DICT|INTERRES
   121   59  184 1    
   122   60   61 2    
   123   60   62 1    
   124   62   63 1    
   125   62   64 1    
   126   62  185 1    
   127   63  186 1    
   128   63  187 1    
   129   63  188 1    
   130   64   65 am   BACKBONE|DICT|INTERRES
   131   64  189 1    
   132   65   66 2    
   133   67   68 2    
   134   67   69 am   BACKBONE|DICT|INTERRES
   135   69   70 1    
   136   69  190 1    
   137   70   71 1    
   138   70   72 1    
   139   70  191 1    
   140   71  192 1    
   141   71  193 1    
   142   71  194 1    
   143   72   73 2    
   144   72   74 am   BACKBONE|DICT|INTERRES
   145   74   75 1    
   146   74  195 1    
   147   75   76 1    
   148   75   77 1    
   149   75  196 1    
   150   76  197 1    
   151   76  198 1    
   152   76  199 1    
   153   77   78 2    
   154   77   79 am   BACKBONE|DICT|INTERRES
   155   79   80 1    
   156   79  200 1    
   157   80   81 1    
   158   80   82 1    
   159   80  201 1    
   160   81  202 1    
   161   81  203 1    
   162   81  204 1    
   163   82   83 2    
   164   82   84 am   BACKBONE|DICT|INTERRES
   165   84   85 1    
   166   84  205 1    
   167   85   86 1    
   168   85   87 1    
   169   85  206 1    
   170   86  207 1    
   171   86  208 1    
   172   86  209 1    
   173   87   88 2    
   174   87   89 am   BACKBONE|DICT|INTERRES
   175   89   90 1    
   176   89  210 1    
   177   90   91 1    
   178   90   92 1    
   179   90  211 1    
   180   91  212 1    
   181   91  213 1    
   182   91  214 1    
   183   92   93 2    
   184   92   94 am   BACKBONE|DICT|INTERRES
   185   94   95 1    
   186   94  215 1    
   187   95   96 1    
   188   95   97 1    
   189   95  216 1    
   190   96  217 1    
   191   96  218 1    
   192   96  219 1    
   193   97   98 2    
   194   97   99 am   BACKBONE|DICT|INTERRES
   195   99  100 1    
   196   99  220 1    
   197  100  101 1    
   198  100  102 1    
   199  100  221 1    
   200  101  222 1    
   201  101  223 1    
   202  101  224 1    
   203  102  103 2    
   204  102  104 am   BACKBONE|DICT|INTERRES
   205  104  105 1    
   206  104  225 1    
   207  105  106 1    
   208  105  107 1    
   209  105  226 1    
   210  106  227 1    
   211  106  228 1    
   212  106  229 1    
   213  107  108 2    
   214  107  109 am   BACKBONE|DICT|INTERRES
   215  109  110 1    
   216  109  230 1    
   217  110  111 1    
   218  110  112 1    
   219  110  231 1    
   220  111  232 1    
   221  111  233 1    
   222  111  234 1    
   223  112  113 2    
   224  112  114 am   BACKBONE|DICT|INTERRES
   225  114  115 1    
   226  114  235 1    
   227  115  116 1    
   228  115  117 1    
   229  115  236 1    
   230  116  237 1    
   231  116  238 1    
   232  116  239 1    
   233  117  118 2    
   234  117  119 am   BACKBONE|DICT|INTERRES
   235  119  120 1    
   236  119  240 1    
   237  120  121 1    
   238  120  124 1    
   239  120  241 1    
   240  121  122 am   BACKBONE|DICT|INTERRES
   241  121  123 2    
   242  122  242 1    
   243  122  243 1    
   244  124  125 1    
   245  124  244 1    
   246  124  245 1    
   247  125  126 1    
   248  126  246 1    
   249  126  247 1    
@<TRIPOS>SUBSTRUCTURE
     1 UNK         1 GROUP             0       ****    0 ROOT    
