@<TRIPOS>MOLECULE
3R540
247   249    1
SMALL
USER_CHARGES


@<TRIPOS>ATOM
      1 CA         -4.0327  -10.2788  -44.4203 C.3       0 UNK        -0.1800 
      2 C          -2.9615  -11.0916  -45.1326 C.2       0 UNK         0.5000 
      3 O          -1.7720  -10.8600  -44.9148 O.2       0 UNK        -0.5000 
      4 N          -3.3771  -12.0574  -45.9654 N.am      1 UNK        -0.5000 
      5 CA         -2.5075  -12.9251  -46.7768 C.3       1 UNK         0.1400 
      6 C6         -3.3342  -13.7649  -47.7836 C.3       23 UNK        -0.0398 
      7 S7         -2.3769  -14.2264  -49.2663 S.3       23 UNK        -0.2404 
      8 C8         -2.1728  -16.0223  -49.0109 C.3       23 UNK        -0.0205 
      9 C9         -1.3308  -16.7003  -50.0881 C.ar      23 UNK        -0.0193 
     10 C10        -1.4702  -16.3586  -51.4387 C.ar      23 UNK        -0.1150 
     11 C11        -0.7156  -17.0046  -52.4197 C.ar      23 UNK        -0.0193 
     12 C12         0.1639  -18.0248  -52.0488 C.ar      23 UNK        -0.1150 
     13 C13         0.3154  -18.3816  -50.7059 C.ar      23 UNK        -0.0193 
     14 C14        -0.4270  -17.7072  -49.7295 C.ar      23 UNK        -0.1150 
     15 C15         1.2984  -19.4802  -50.3237 C.3       23 UNK        -0.0205 
     16 S16         0.4605  -21.0309  -49.8590 S.3       23 UNK        -0.2404 
     17 C17         0.5579  -20.9179  -48.0426 C.3       23 UNK        -0.0398 
     18 CA         -0.4756  -21.7703  -47.2707 C.3       11 UNK         0.1400 
     19 N          -0.1388  -21.8123  -45.8434 N.am      11 UNK        -0.5000 
     20 C          -0.7833  -22.5210  -44.9061 C.2       10 UNK         0.5000 
     21 O          -1.7411  -23.2554  -45.1389 O.2       10 UNK        -0.5000 
     22 CA         -0.3091  -22.3432  -43.4536 C.3       10 UNK         0.1400 
     23 CB          0.9455  -23.1866  -43.1843 C.3       10 UNK        -0.1800 
     24 N          -0.0540  -20.9434  -43.1095 N.am      10 UNK        -0.5000 
     25 C          -0.9907  -19.9831  -43.1015 C.2       9 UNK         0.5000 
     26 O          -2.1770  -20.1832  -43.3549 O.2       9 UNK        -0.5000 
     27 CA         -0.5206  -18.5464  -42.8229 C.3       9 UNK         0.1400 
     28 CB         -0.2282  -18.3408  -41.3294 C.3       9 UNK        -0.1800 
     29 N           0.6543  -18.1849  -43.6125 N.am      9 UNK        -0.5000 
     30 C           0.7006  -18.1635  -44.9525 C.2       8 UNK         0.5000 
     31 O          -0.2703  -18.3838  -45.6780 O.2       8 UNK        -0.5000 
     32 CA          2.0795  -17.9169  -45.5877 C.3       8 UNK         0.1400 
     33 CB          2.4002  -16.4191  -45.6653 C.3       8 UNK        -0.1800 
     34 N           3.1483  -18.6110  -44.8684 N.am      8 UNK        -0.5000 
     35 C           3.3006  -19.9422  -44.8491 C.2       7 UNK         0.5000 
     36 O           2.5587  -20.7237  -45.4433 O.2       7 UNK        -0.5000 
     37 CA          4.4541  -20.4919  -43.9923 C.3       7 UNK         0.1400 
     38 CB          5.8009  -20.3156  -44.7099 C.3       7 UNK        -0.1800 
     39 N           4.5184  -19.8669  -42.6709 N.am      7 UNK        -0.5000 
     40 C           3.5850  -20.0174  -41.7212 C.2       6 UNK         0.5000 
     41 O           2.5730  -20.7035  -41.8582 O.2       6 UNK        -0.5000 
     42 CA          3.7993  -19.2429  -40.4080 C.3       6 UNK         0.1400 
     43 CB          4.7023  -20.0391  -39.4541 C.3       6 UNK        -0.1800 
     44 N           4.3492  -17.8952  -40.5870 N.am      6 UNK        -0.5000 
     45 C           3.7694  -16.9238  -41.3038 C.2       5 UNK         0.5000 
     46 O           2.7599  -17.0910  -41.9890 O.2       5 UNK        -0.5000 
     47 CA          4.4325  -15.5427  -41.2611 C.3       5 UNK         0.1400 
     48 CB          5.0822  -15.2085  -42.6131 C.3       5 UNK        -0.1800 
     49 N           3.4080  -14.5463  -40.9653 N.am      5 UNK        -0.5000 
     50 C           3.4267  -13.6960  -39.9290 C.2       4 UNK         0.5000 
     51 O           4.3376  -13.6610  -39.0991 O.2       4 UNK        -0.5000 
     52 CA          2.2274  -12.7265  -39.7894 C.3       4 UNK         0.1400 
     53 CB          2.5688  -11.4544  -38.9850 C.3       4 UNK        -0.1800 
     54 N           1.6066  -12.3831  -41.0734 N.am      4 UNK        -0.5000 
     55 C           2.1876  -11.7910  -42.1278 C.2       3 UNK         0.5000 
     56 O           3.3095  -11.2829  -42.0911 O.2       3 UNK        -0.5000 
     57 CA          1.3949  -11.7824  -43.4567 C.3       3 UNK         0.1400 
     58 CB          2.3153  -12.0625  -44.6629 C.3       3 UNK        -0.1800 
     59 N           0.2297  -12.6794  -43.5184 N.am      3 UNK        -0.5000 
     60 C           0.2068  -14.0114  -43.3372 C.2       2 UNK         0.5000 
     61 O           1.1606  -14.6558  -42.9070 O.2       2 UNK        -0.5000 
     62 CA         -1.1004  -14.7540  -43.6801 C.3       2 UNK         0.1400 
     63 CB         -1.9345  -14.9899  -42.4122 C.3       2 UNK        -0.1800 
     64 N          -1.9270  -14.0637  -44.6696 N.am      2 UNK        -0.5000 
     65 C          -1.5628  -13.8165  -45.9366 C.2       1 UNK         0.5000 
     66 O          -0.5152  -14.2295  -46.4325 O.2       1 UNK        -0.5000 
     67 C          -1.9257  -21.2963  -47.5175 C.2       11 UNK         0.5000 
     68 O          -2.6366  -21.8953  -48.3291 O.2       11 UNK        -0.5000 
     69 N          -2.3466  -20.2610  -46.7781 N.am      12 UNK        -0.5000 
     70 CA         -3.7162  -19.7583  -46.7707 C.3       12 UNK         0.1400 
     71 CB         -3.7495  -18.3774  -46.0954 C.3       12 UNK        -0.1800 
     72 C          -4.6927  -20.7372  -46.0902 C.2       12 UNK         0.5000 
     73 O          -5.7126  -21.0831  -46.6864 O.2       12 UNK        -0.5000 
     74 N          -4.3654  -21.1718  -44.8641 N.am      13 UNK        -0.5000 
     75 CA         -5.2173  -22.0062  -44.0101 C.3       13 UNK         0.1400 
     76 CB         -4.6022  -22.1062  -42.6062 C.3       13 UNK        -0.1800 
     77 C          -5.4936  -23.4115  -44.5719 C.2       13 UNK         0.5000 
     78 O          -6.6197  -23.8970  -44.4573 O.2       13 UNK        -0.5000 
     79 N          -4.4777  -24.0328  -45.1851 N.am      14 UNK        -0.5000 
     80 CA         -4.5831  -25.3384  -45.8422 C.3       14 UNK         0.1400 
     81 CB         -3.1801  -25.9574  -45.9539 C.3       14 UNK        -0.1800 
     82 C          -5.2429  -25.2630  -47.2332 C.2       14 UNK         0.5000 
     83 O          -5.5080  -26.3097  -47.8253 O.2       14 UNK        -0.5000 
     84 N          -5.4629  -24.0394  -47.7400 N.am      15 UNK        -0.5000 
     85 CA         -5.9685  -23.7011  -49.0731 C.3       15 UNK         0.1400 
     86 CB         -7.4093  -24.2142  -49.2740 C.3       15 UNK        -0.1800 
     87 C          -5.0138  -24.1276  -50.2070 C.2       15 UNK         0.5000 
     88 O          -5.4509  -24.3020  -51.3451 O.2       15 UNK        -0.5000 
     89 N          -3.7144  -24.2421  -49.8945 N.am      16 UNK        -0.5000 
     90 CA         -2.6466  -24.5353  -50.8513 C.3       16 UNK         0.1400 
     91 CB         -1.3364  -24.7978  -50.0962 C.3       16 UNK        -0.1800 
     92 C          -2.4723  -23.4001  -51.8742 C.2       16 UNK         0.5000 
     93 O          -2.2186  -23.6716  -53.0474 O.2       16 UNK        -0.5000 
     94 N          -2.6875  -22.1585  -51.4153 N.am      17 UNK        -0.5000 
     95 CA         -2.7562  -20.9471  -52.2303 C.3       17 UNK         0.1400 
     96 CB         -3.0416  -19.7533  -51.3072 C.3       17 UNK        -0.1800 
     97 C          -3.8332  -21.0389  -53.3268 C.2       17 UNK         0.5000 
     98 O          -3.5527  -20.7478  -54.4892 O.2       17 UNK        -0.5000 
     99 N          -5.0352  -21.4828  -52.9319 N.am      18 UNK        -0.5000 
    100 CA        -6.1854  -21.6754  -53.8121 C.3       18 UNK         0.1400 
    101 CB        -7.4612  -21.8099  -52.9677 C.3       18 UNK        -0.1800 
    102 C         -6.0158  -22.8855  -54.7454 C.2       18 UNK         0.5000 
    103 O         -6.3821  -22.7933  -55.9164 O.2       18 UNK        -0.5000 
    104 N         -5.4364  -23.9802  -54.2311 N.am      19 UNK        -0.5000 
    105 CA        -5.1359  -25.1994  -54.9872 C.3       19 UNK         0.1400 
    106 CB        -4.6593  -26.2982  -54.0260 C.3       19 UNK        -0.1800 
    107 C         -4.1036  -24.9693  -56.1074 C.2       19 UNK         0.5000 
    108 O         -4.2762  -25.4879  -57.2110 O.2       19 UNK        -0.5000 
    109 N         -3.0743  -24.1625  -55.8166 N.am      20 UNK        -0.5000 
    110 CA        -2.0764  -23.7007  -56.7846 C.3       20 UNK         0.1400 
    111 CB        -0.8228  -23.2520  -56.0166 C.3       20 UNK        -0.1800 
    112 C         -2.5858  -22.5509  -57.6784 C.2       20 UNK         0.5000 
    113 O         -1.9075  -22.1921  -58.6430 O.2       20 UNK        -0.5000 
    114 N         -3.7317  -21.9557  -57.3112 N.am      21 UNK        -0.5000 
    115 CA        -4.3707  -20.7709  -57.8984 C.3       21 UNK         0.1400 
    116 CB        -4.9395  -21.1073  -59.2915 C.3       21 UNK        -0.1800 
    117 C         -3.4534  -19.5274  -57.9117 C.2       21 UNK         0.5000 
    118 O         -3.5999  -18.6616  -58.7766 O.2       21 UNK        -0.5000 
    119 N         -2.5014  -19.4870  -56.9692 N.am      22 UNK        -0.5000 
    120 CA        -1.3809  -18.5372  -56.8871 C.3       22 UNK         0.1400 
    121 C         -0.4478  -18.5149  -58.1402 C.2       22 UNK         0.5000 
    122 N         -0.3937  -19.5733  -58.9424 N.am      22 UNK        -0.7600 
    123 O          0.2679  -17.5449  -58.3755 O.2       22 UNK        -0.5000 
    124 C124       -1.8379  -17.1312  -56.4101 C.3       23 UNK        -0.0398 
    125 S125       -2.3496  -17.1848  -54.6578 S.3       23 UNK        -0.2404 
    126 C126       -0.8233  -16.5788  -53.8747 C.3       23 UNK        -0.0205 
    127 H127       -3.9277  -10.3847  -43.3406 H         1 UNK         0.0600 
    128 H128       -3.9304   -9.2232  -44.6718 H         1 UNK         0.0600 
    129 H129       -5.0373  -10.5989  -44.6978 H         1 UNK         0.0600 
    130 H130       -4.3702  -12.1992  -46.0860 H         1 UNK         0.3000 
    131 H131       -1.8663  -12.2485  -47.3464 H         1 UNK         0.0600 
    132 H132       -4.1822  -13.1813  -48.1449 H         1 UNK         0.0800 
    133 H133       -3.7669  -14.6484  -47.3102 H         1 UNK         0.0800 
    134 H134       -3.1545  -16.4972  -48.9890 H         1 UNK         0.0800 
    135 H135       -1.7211  -16.1837  -48.0308 H         1 UNK         0.0800 
    136 H136       -2.1653  -15.5855  -51.7337 H         1 UNK         0.1150 
    137 H137        0.7427  -18.5332  -52.8070 H         1 UNK         0.1150 
    138 H138       -0.3158  -17.9763  -48.6891 H         1 UNK         0.1150 
    139 H139        1.9655  -19.6942  -51.1601 H         1 UNK         0.0800 
    140 H140        1.9430  -19.1330  -49.5149 H         1 UNK         0.0800 
    141 H141        1.5647  -21.2393  -47.7753 H         1 UNK         0.0800 
    142 H142        0.4862  -19.8757  -47.7358 H         1 UNK         0.0800 
    143 H143       -0.4039  -22.7975  -47.6305 H         1 UNK         0.0600 
    144 H144        0.6712  -21.2686  -45.5604 H         1 UNK         0.3000 
    145 H145       -1.1049  -22.7058  -42.8001 H         1 UNK         0.0600 
    146 H146        1.7983  -22.8398  -43.7687 H         1 UNK         0.0600 
    147 H147        1.2252  -23.1493  -42.1314 H         1 UNK         0.0600 
    148 H148        0.7754  -24.2337  -43.4382 H         1 UNK         0.0600 
    149 H149        0.9000  -20.7076  -42.8509 H         1 UNK         0.3000 
    150 H150       -1.3314  -17.8737  -43.1074 H         1 UNK         0.0600 
    151 H151        0.0948  -17.3200  -41.1259 H         1 UNK         0.0600 
    152 H152        0.5553  -19.0108  -40.9761 H         1 UNK         0.0600 
    153 H153       -1.1184  -18.5295  -40.7285 H         1 UNK         0.0600 
    154 H154        1.4892  -17.9287  -43.0897 H         1 UNK         0.3000 
    155 H155        2.0480  -18.3048  -46.6079 H         1 UNK         0.0600 
    156 H156        1.6113  -15.8768  -46.1871 H         1 UNK         0.0600 
    157 H157        3.3300  -16.2411  -46.2053 H         1 UNK         0.0600 
    158 H158        2.5002  -15.9809  -44.6737 H         1 UNK         0.0600 
    159 H159        3.7599  -18.0426  -44.3019 H         1 UNK         0.3000 
    160 H160        4.2819  -21.5614  -43.8526 H         1 UNK         0.0600 
    161 H161        6.0513  -19.2633  -44.8499 H         1 UNK         0.0600 
    162 H162        5.7812  -20.7825  -45.6956 H         1 UNK         0.0600 
    163 H163        6.6104  -20.7811  -44.1475 H         1 UNK         0.0600 
    164 H164        5.3141  -19.2774  -42.4767 H         1 UNK         0.3000 
    165 H165        2.8220  -19.1339  -39.9337 H         1 UNK         0.0600 
    166 H166        5.7127  -20.1465  -39.8506 H         1 UNK         0.0600 
    167 H167        4.7729  -19.5543  -38.4802 H         1 UNK         0.0600 
    168 H168        4.3066  -21.0420  -39.2876 H         1 UNK         0.0600 
    169 H169        5.1855  -17.6817  -40.0628 H         1 UNK         0.3000 
    170 H170        5.2095  -15.5468  -40.4943 H         1 UNK         0.0600 
    171 H171        5.8290  -15.9549  -42.8862 H         1 UNK         0.0600 
    172 H172        4.3452  -15.1670  -43.4154 H         1 UNK         0.0600 
    173 H173        5.5844  -14.2417  -42.5761 H         1 UNK         0.0600 
    174 H174        2.6009  -14.5649  -41.5861 H         1 UNK         0.3000 
    175 H175        1.4693  -13.2736  -39.2275 H         1 UNK         0.0600 
    176 H176        1.7047  -10.7950  -38.9043 H         1 UNK         0.0600 
    177 H177        2.8790  -11.7049  -37.9699 H         1 UNK         0.0600 
    178 H178        3.3808  -10.8894  -39.4433 H         1 UNK         0.0600 
    179 H179        0.6899  -12.7767  -41.2291 H         1 UNK         0.3000 
    180 H180        1.0015  -10.7710  -43.5661 H         1 UNK         0.0600 
    181 H181        1.7570  -12.0327  -45.5989 H         1 UNK         0.0600 
    182 H182        3.1096  -11.3191  -44.7376 H         1 UNK         0.0600 
    183 H183        2.7884  -13.0425  -44.5877 H         1 UNK         0.0600 
    184 H184       -0.6138  -12.2384  -43.8697 H         1 UNK         0.3000 
    185 H185       -0.8216  -15.7214  -44.0993 H         1 UNK         0.0600 
    186 H186       -2.7983  -15.6215  -42.6206 H         1 UNK         0.0600 
    187 H187       -1.3468  -15.4893  -41.6419 H         1 UNK         0.0600 
    188 H188       -2.2966  -14.0523  -41.9887 H         1 UNK         0.0600 
    189 H189       -2.8026  -13.6818  -44.3434 H         1 UNK         0.3000 
    190 H190       -1.6886  -19.8014  -46.1571 H         1 UNK         0.3000 
    191 H191       -4.0357  -19.6322  -47.8076 H         1 UNK         0.0600 
    192 H192       -4.7577  -17.9618  -46.1049 H         1 UNK         0.0600 
    193 H193       -3.1002  -17.6713  -46.6119 H         1 UNK         0.0600 
    194 H194       -3.4222  -18.4247  -45.0564 H         1 UNK         0.0600 
    195 H195       -3.5043  -20.8348  -44.4374 H         1 UNK         0.3000 
    196 H196       -6.1799  -21.4991  -43.9180 H         1 UNK         0.0600 
    197 H197       -5.2256  -22.7105  -41.9460 H         1 UNK         0.0600 
    198 H198       -4.5042  -21.1220  -42.1478 H         1 UNK         0.0600 
    199 H199       -3.6126  -22.5633  -42.6346 H         1 UNK         0.0600 
    200 H200       -3.5611  -23.5888  -45.2085 H         1 UNK         0.3000 
    201 H201       -5.1956  -25.9962  -45.2222 H         1 UNK         0.0600 
    202 H202       -2.6954  -26.0181  -44.9793 H         1 UNK         0.0600 
    203 H203       -2.5356  -25.3754  -46.6141 H         1 UNK         0.0600 
    204 H204       -3.2292  -26.9702  -46.3554 H         1 UNK         0.0600 
    205 H205       -5.2273  -23.2435  -47.1601 H         1 UNK         0.3000 
    206 H206       -6.0026  -22.6114  -49.1090 H         1 UNK         0.0600 
    207 H207       -8.0547  -23.9076  -48.4509 H         1 UNK         0.0600 
    208 H208       -7.8434  -23.8141  -50.1903 H         1 UNK         0.0600 
    209 H209       -7.4481  -25.3013  -49.3456 H         1 UNK         0.0600 
    210 H210       -3.4284  -23.9953  -48.9569 H         1 UNK         0.3000 
    211 H211       -2.9184  -25.4435  -51.3915 H         1 UNK         0.0600 
    212 H212       -0.5437  -25.0909  -50.7856 H         1 UNK         0.0600 
    213 H213       -1.4511  -25.6016  -49.3687 H         1 UNK         0.0600 
    214 H214       -0.9952  -23.9090  -49.5672 H         1 UNK         0.0600 
    215 H215       -2.8405  -22.0439  -50.4192 H         1 UNK         0.3000 
    216 H216       -1.7853  -20.8011  -52.7079 H         1 UNK         0.0600 
    217 H217       -3.0472  -18.8192  -51.8696 H         1 UNK         0.0600 
    218 H218       -2.2816  -19.6667  -50.5323 H         1 UNK         0.0600 
    219 H219       -4.0070  -19.8433  -50.8082 H         1 UNK         0.0600 
    220 H220       -5.1560  -21.7480  -51.9667 H         1 UNK         0.3000 
    221 H221       -6.2858  -20.7849  -54.4367 H         1 UNK         0.0600 
    222 H222       -7.4281  -22.6878  -52.3227 H         1 UNK         0.0600 
    223 H223       -7.6120  -20.9339  -52.3366 H         1 UNK         0.0600 
    224 H224       -8.3408  -21.9063  -53.6053 H         1 UNK         0.0600 
    225 H225       -5.2268  -23.9978  -53.2368 H         1 UNK         0.3000 
    226 H226       -6.0640  -25.5362  -55.4535 H         1 UNK         0.0600 
    227 H227       -4.4986  -27.2371  -54.5571 H         1 UNK         0.0600 
    228 H228       -3.7193  -26.0298  -53.5448 H         1 UNK         0.0600 
    229 H229       -5.3953  -26.4874  -53.2442 H         1 UNK         0.0600 
    230 H230       -2.9659  -23.8281  -54.8626 H         1 UNK         0.3000 
    231 H231       -1.8018  -24.5317  -57.4373 H         1 UNK         0.0600 
    232 H232       -0.0333  -22.9367  -56.6999 H         1 UNK         0.0600 
    233 H233       -0.4215  -24.0632  -55.4087 H         1 UNK         0.0600 
    234 H234       -1.0386  -22.4132  -55.3530 H         1 UNK         0.0600 
    235 H235       -4.1973  -22.3231  -56.4926 H         1 UNK         0.3000 
    236 H236       -5.2086  -20.5215  -57.2461 H         1 UNK         0.0600 
    237 H237       -4.1474  -21.3129  -60.0121 H         1 UNK         0.0600 
    238 H238       -5.5900  -21.9810  -59.2487 H         1 UNK         0.0600 
    239 H239       -5.5338  -20.2812  -59.6834 H         1 UNK         0.0600 
    240 H240       -2.5411  -20.1894  -56.2395 H         1 UNK         0.3000 
    241 H241       -0.7293  -18.9401  -56.1108 H         1 UNK         0.0600 
    242 H242        0.2195  -19.5545  -59.7416 H         1 UNK         0.3800 
    243 H243       -0.9672  -20.3930  -58.7727 H         1 UNK         0.3800 
    244 H244       -2.6686  -16.7667  -57.0151 H         1 UNK         0.0800 
    245 H245       -1.0457  -16.3890  -56.5173 H         1 UNK         0.0800 
    246 H246        0.0431  -16.9443  -54.4284 H         1 UNK         0.0800 
    247 H247       -0.7924  -15.4904  -53.9430 H         1 UNK         0.0800 
@<TRIPOS>BOND
     1    1    2 1    
     2    1  127 1    
     3    1  128 1    
     4    1  129 1    
     5    2    3 2    
     6    2    4 am   BACKBONE|DICT|INTERRES
     7    4    5 1    
     8    4  130 1    
     9    5    6 1    
    10    5   65 1    
    11    5  131 1    
    12    6    7 1    
    13    6  132 1    
    14    6  133 1    
    15    7    8 1    
    16    8    9 1    
    17    8  134 1    
    18    8  135 1    
    19    9   10 ar   
    20    9   14 ar   
    21   10   11 ar   
    22   10  136 1    
    23   11   12 ar   
    24   11  126 1    
    25   12   13 ar   
    26   12  137 1    
    27   13   14 ar   
    28   13   15 1    
    29   14  138 1    
    30   15   16 1    
    31   15  139 1    
    32   15  140 1    
    33   16   17 1    
    34   17   18 1    
    35   17  141 1    
    36   17  142 1    
    37   18   19 1    
    38   18   67 1    
    39   18  143 1    
    40   19   20 am   BACKBONE|DICT|INTERRES
    41   19  144 1    
    42   20   21 2    
    43   20   22 1    
    44   22   23 1    
    45   22   24 1    
    46   22  145 1    
    47   23  146 1    
    48   23  147 1    
    49   23  148 1    
    50   24   25 am   BACKBONE|DICT|INTERRES
    51   24  149 1    
    52   25   26 2    
    53   25   27 1    
    54   27   28 1    
    55   27   29 1    
    56   27  150 1    
    57   28  151 1    
    58   28  152 1    
    59   28  153 1    
    60   29   30 am   BACKBONE|DICT|INTERRES
    61   29  154 1    
    62   30   31 2    
    63   30   32 1    
    64   32   33 1    
    65   32   34 1    
    66   32  155 1    
    67   33  156 1    
    68   33  157 1    
    69   33  158 1    
    70   34   35 am   BACKBONE|DICT|INTERRES
    71   34  159 1    
    72   35   36 2    
    73   35   37 1    
    74   37   38 1    
    75   37   39 1    
    76   37  160 1    
    77   38  161 1    
    78   38  162 1    
    79   38  163 1    
    80   39   40 am   BACKBONE|DICT|INTERRES
    81   39  164 1    
    82   40   41 2    
    83   40   42 1    
    84   42   43 1    
    85   42   44 1    
    86   42  165 1    
    87   43  166 1    
    88   43  167 1    
    89   43  168 1    
    90   44   45 am   BACKBONE|DICT|INTERRES
    91   44  169 1    
    92   45   46 2    
    93   45   47 1    
    94   47   48 1    
    95   47   49 1    
    96   47  170 1    
    97   48  171 1    
    98   48  172 1    
    99   48  173 1    
   100   49   50 am   BACKBONE|DICT|INTERRES
   101   49  174 1    
   102   50   51 2    
   103   50   52 1    
   104   52   53 1    
   105   52   54 1    
   106   52  175 1    
   107   53  176 1    
   108   53  177 1    
   109   53  178 1    
   110   54   55 am   BACKBONE|DICT|INTERRES
   111   54  179 1    
   112   55   56 2    
   113   55   57 1    
   114   57   58 1    
   115   57   59 1    
   116   57  180 1    
   117   58  181 1    
   118   58  182 1    
   119   58  183 1    
   120   59   60 am   BACKBONE|DICT|INTERRES
   121   59  184 1    
   122   60   61 2    
   123   60   62 1    
   124   62   63 1    
   125   62   64 1    
   126   62  185 1    
   127   63  186 1    
   128   63  187 1    
   129   63  188 1    
   130   64   65 am   BACKBONE|DICT|INTERRES
   131   64  189 1    
   132   65   66 2    
   133   67   68 2    
   134   67   69 am   BACKBONE|DICT|INTERRES
   135   69   70 1    
   136   69  190 1    
   137   70   71 1    
   138   70   72 1    
   139   70  191 1    
   140   71  192 1    
   141   71  193 1    
   142   71  194 1    
   143   72   73 2    
   144   72   74 am   BACKBONE|DICT|INTERRES
   145   74   75 1    
   146   74  195 1    
   147   75   76 1    
   148   75   77 1    
   149   75  196 1    
   150   76  197 1    
   151   76  198 1    
   152   76  199 1    
   153   77   78 2    
   154   77   79 am   BACKBONE|DICT|INTERRES
   155   79   80 1    
   156   79  200 1    
   157   80   81 1    
   158   80   82 1    
   159   80  201 1    
   160   81  202 1    
   161   81  203 1    
   162   81  204 1    
   163   82   83 2    
   164   82   84 am   BACKBONE|DICT|INTERRES
   165   84   85 1    
   166   84  205 1    
   167   85   86 1    
   168   85   87 1    
   169   85  206 1    
   170   86  207 1    
   171   86  208 1    
   172   86  209 1    
   173   87   88 2    
   174   87   89 am   BACKBONE|DICT|INTERRES
   175   89   90 1    
   176   89  210 1    
   177   90   91 1    
   178   90   92 1    
   179   90  211 1    
   180   91  212 1    
   181   91  213 1    
   182   91  214 1    
   183   92   93 2    
   184   92   94 am   BACKBONE|DICT|INTERRES
   185   94   95 1    
   186   94  215 1    
   187   95   96 1    
   188   95   97 1    
   189   95  216 1    
   190   96  217 1    
   191   96  218 1    
   192   96  219 1    
   193   97   98 2    
   194   97   99 am   BACKBONE|DICT|INTERRES
   195   99  100 1    
   196   99  220 1    
   197  100  101 1    
   198  100  102 1    
   199  100  221 1    
   200  101  222 1    
   201  101  223 1    
   202  101  224 1    
   203  102  103 2    
   204  102  104 am   BACKBONE|DICT|INTERRES
   205  104  105 1    
   206  104  225 1    
   207  105  106 1    
   208  105  107 1    
   209  105  226 1    
   210  106  227 1    
   211  106  228 1    
   212  106  229 1    
   213  107  108 2    
   214  107  109 am   BACKBONE|DICT|INTERRES
   215  109  110 1    
   216  109  230 1    
   217  110  111 1    
   218  110  112 1    
   219  110  231 1    
   220  111  232 1    
   221  111  233 1    
   222  111  234 1    
   223  112  113 2    
   224  112  114 am   BACKBONE|DICT|INTERRES
   225  114  115 1    
   226  114  235 1    
   227  115  116 1    
   228  115  117 1    
   229  115  236 1    
   230  116  237 1    
   231  116  238 1    
   232  116  239 1    
   233  117  118 2    
   234  117  119 am   BACKBONE|DICT|INTERRES
   235  119  120 1    
   236  119  240 1    
   237  120  121 1    
   238  120  124 1    
   239  120  241 1    
   240  121  122 am   BACKBONE|DICT|INTERRES
   241  121  123 2    
   242  122  242 1    
   243  122  243 1    
   244  124  125 1    
   245  124  244 1    
   246  124  245 1    
   247  125  126 1    
   248  126  246 1    
   249  126  247 1    
@<TRIPOS>SUBSTRUCTURE
     1 UNK         1 GROUP             0       ****    0 ROOT    
