@<TRIPOS>MOLECULE
3R540
247   249    1
SMALL
USER_CHARGES


@<TRIPOS>ATOM
      1 CA          0.3044   -8.7218  -45.7273 C.3       0 UNK        -0.1800 
      2 C           0.4865  -10.2299  -45.6521 C.2       0 UNK         0.5000 
      3 O           1.5164  -10.6995  -45.1687 O.2       0 UNK        -0.5000 
      4 N          -0.5155  -10.9959  -46.1023 N.am      1 UNK        -0.5000 
      5 CA         -0.5106  -12.4658  -46.1271 C.3       1 UNK         0.1400 
      6 C6         -1.6798  -13.0414  -46.9640 C.3       23 UNK        -0.0398 
      7 S7         -3.3331  -12.5122  -46.3920 S.3       23 UNK        -0.2404 
      8 C8         -4.3697  -12.9945  -47.8090 C.3       23 UNK        -0.0205 
      9 C9         -4.3732  -14.5000  -48.0332 C.ar      23 UNK        -0.0193 
     10 C10        -3.7588  -15.0488  -49.1635 C.ar      23 UNK        -0.1150 
     11 C11        -3.7736  -16.4302  -49.3760 C.ar      23 UNK        -0.0193 
     12 C12        -4.3950  -17.2650  -48.4439 C.ar      23 UNK        -0.1150 
     13 C13        -5.0073  -16.7287  -47.3085 C.ar      23 UNK        -0.0193 
     14 C14        -5.0017  -15.3449  -47.1133 C.ar      23 UNK        -0.1150 
     15 C15        -5.6794  -17.6456  -46.2982 C.3       23 UNK        -0.0205 
     16 S16        -4.7424  -17.7757  -44.7410 S.3       23 UNK        -0.2404 
     17 C17        -3.1152  -18.4010  -45.2944 C.3       23 UNK        -0.0398 
     18 CA         -3.0909  -19.8552  -45.8309 C.3       11 UNK         0.1400 
     19 N          -1.7561  -20.2078  -46.3313 N.am      11 UNK        -0.5000 
     20 C          -1.3957  -21.3666  -46.9013 C.2       10 UNK         0.5000 
     21 O          -2.1593  -22.3168  -47.0598 O.2       10 UNK        -0.5000 
     22 CA          0.0784  -21.5150  -47.3139 C.3       10 UNK         0.1400 
     23 CB          0.3927  -20.6970  -48.5760 C.3       10 UNK        -0.1800 
     24 N           0.9803  -21.1408  -46.2258 N.am      10 UNK        -0.5000 
     25 C           1.0972  -21.8326  -45.0823 C.2       9 UNK         0.5000 
     26 O           0.5347  -22.9078  -44.8739 O.2       9 UNK        -0.5000 
     27 CA          1.9548  -21.2053  -43.9687 C.3       9 UNK         0.1400 
     28 CB          3.4376  -21.5541  -44.1647 C.3       9 UNK        -0.1800 
     29 N           1.7977  -19.7530  -43.8782 N.am      9 UNK        -0.5000 
     30 C           0.6537  -19.1252  -43.5673 C.2       8 UNK         0.5000 
     31 O          -0.3908  -19.7096  -43.2765 O.2       8 UNK        -0.5000 
     32 CA          0.6644  -17.5878  -43.6546 C.3       8 UNK         0.1400 
     33 CB          1.3139  -16.9642  -42.4105 C.3       8 UNK        -0.1800 
     34 N           1.3429  -17.1078  -44.8575 N.am      8 UNK        -0.5000 
     35 C           0.9253  -17.3384  -46.1095 C.2       7 UNK         0.5000 
     36 O          -0.0964  -17.9637  -46.3848 O.2       7 UNK        -0.5000 
     37 CA          1.8285  -16.8441  -47.2501 C.3       7 UNK         0.1400 
     38 CB          1.5699  -15.3645  -47.5601 C.3       7 UNK        -0.1800 
     39 N           3.2432  -17.0496  -46.9461 N.am      7 UNK        -0.5000 
     40 C           3.8359  -18.2513  -46.9151 C.2       6 UNK         0.5000 
     41 O           3.2581  -19.3063  -47.1782 O.2       6 UNK        -0.5000 
     42 CA          5.3122  -18.2782  -46.4799 C.3       6 UNK         0.1400 
     43 CB          6.2337  -17.9490  -47.6638 C.3       6 UNK        -0.1800 
     44 N           5.5901  -17.3574  -45.3759 N.am      6 UNK        -0.5000 
     45 C           5.1072  -17.5053  -44.1346 C.2       5 UNK         0.5000 
     46 O           4.3907  -18.4431  -43.7875 O.2       5 UNK        -0.5000 
     47 CA          5.4502  -16.4010  -43.1186 C.3       5 UNK         0.1400 
     48 CB          6.8140  -16.6731  -42.4668 C.3       5 UNK        -0.1800 
     49 N           5.4400  -15.0450  -43.6760 N.am      5 UNK        -0.5000 
     50 C           4.3806  -14.4598  -44.2498 C.2       4 UNK         0.5000 
     51 O           3.3178  -15.0388  -44.4758 O.2       4 UNK        -0.5000 
     52 CA          4.5277  -12.9754  -44.6243 C.3       4 UNK         0.1400 
     53 CB          4.2210  -12.7386  -46.1114 C.3       4 UNK        -0.1800 
     54 N           3.6317  -12.1544  -43.8149 N.am      4 UNK        -0.5000 
     55 C           3.7795  -11.9244  -42.5032 C.2       3 UNK         0.5000 
     56 O           4.7392  -12.3224  -41.8416 O.2       3 UNK        -0.5000 
     57 CA          2.6674  -11.1191  -41.8137 C.3       3 UNK         0.1400 
     58 CB          2.8395   -9.6143  -42.0756 C.3       3 UNK        -0.1800 
     59 N           1.3417  -11.5418  -42.2635 N.am      3 UNK        -0.5000 
     60 C           0.6239  -12.5231  -41.6984 C.2       2 UNK         0.5000 
     61 O           1.0088  -13.1776  -40.7289 O.2       2 UNK        -0.5000 
     62 CA         -0.7698  -12.8105  -42.2919 C.3       2 UNK         0.1400 
     63 CB         -1.8576  -12.0977  -41.4738 C.3       2 UNK        -0.1800 
     64 N          -0.8833  -12.3939  -43.6890 N.am      2 UNK        -0.5000 
     65 C          -0.4389  -13.1158  -44.7263 C.2       1 UNK         0.5000 
     66 O           0.0299  -14.2452  -44.6115 O.2       1 UNK        -0.5000 
     67 C          -3.6345  -20.8741  -44.8057 C.2       11 UNK         0.5000 
     68 O          -4.8069  -21.2427  -44.8868 O.2       11 UNK        -0.5000 
     69 N          -2.7616  -21.3788  -43.9219 N.am      12 UNK        -0.5000 
     70 CA         -3.0612  -22.4349  -42.9493 C.3       12 UNK         0.1400 
     71 CB         -1.8354  -22.6425  -42.0471 C.3       12 UNK        -0.1800 
     72 C          -3.5096  -23.7768  -43.5729 C.2       12 UNK         0.5000 
     73 O          -4.1792  -24.5573  -42.8953 O.2       12 UNK        -0.5000 
     74 N          -3.1578  -24.0124  -44.8436 N.am      13 UNK        -0.5000 
     75 CA         -3.5607  -25.1677  -45.6468 C.3       13 UNK         0.1400 
     76 CB         -2.2862  -25.8445  -46.1816 C.3       13 UNK        -0.1800 
     77 C          -4.4959  -24.7602  -46.8059 C.2       13 UNK         0.5000 
     78 O          -4.7008  -25.5588  -47.7228 O.2       13 UNK        -0.5000 
     79 N          -5.0009  -23.5139  -46.7895 N.am      14 UNK        -0.5000 
     80 CA         -5.8040  -22.8544  -47.8307 C.3       14 UNK         0.1400 
     81 CB         -7.2134  -23.4778  -47.8926 C.3       14 UNK        -0.1800 
     82 C          -5.1191  -22.8220  -49.2166 C.2       14 UNK         0.5000 
     83 O          -5.8021  -22.8008  -50.2417 O.2       14 UNK        -0.5000 
     84 N          -3.7795  -22.8829  -49.2256 N.am      15 UNK        -0.5000 
     85 CA         -2.8934  -23.0633  -50.3770 C.3       15 UNK         0.1400 
     86 CB         -2.8132  -21.7605  -51.1899 C.3       15 UNK        -0.1800 
     87 C          -3.2528  -24.3013  -51.2286 C.2       15 UNK         0.5000 
     88 O          -3.1684  -24.2507  -52.4575 O.2       15 UNK        -0.5000 
     89 N          -3.6862  -25.3799  -50.5561 N.am      16 UNK        -0.5000 
     90 CA         -4.2119  -26.6244  -51.1293 C.3       16 UNK         0.1400 
     91 CB         -3.1142  -27.3806  -51.9079 C.3       16 UNK        -0.1800 
     92 C          -5.4963  -26.3911  -51.9555 C.2       16 UNK         0.5000 
     93 O          -5.6674  -26.9928  -53.0154 O.2       16 UNK        -0.5000 
     94 N          -6.3600  -25.4969  -51.4500 N.am      17 UNK        -0.5000 
     95 CA         -7.5557  -24.9428  -52.0945 C.3       17 UNK         0.1400 
     96 CB         -8.6049  -26.0364  -52.3875 C.3       17 UNK        -0.1800 
     97 C          -7.1872  -24.0871  -53.3246 C.2       17 UNK         0.5000 
     98 O          -7.7675  -24.2557  -54.3987 O.2       17 UNK        -0.5000 
     99 N          -6.2121  -23.1871  -53.1233 N.am      18 UNK        -0.5000 
    100 CA        -5.6188  -22.2692  -54.1025 C.3       18 UNK         0.1400 
    101 CB        -6.6129  -21.1458  -54.4601 C.3       18 UNK        -0.1800 
    102 C         -5.0399  -22.9904  -55.3392 C.2       18 UNK         0.5000 
    103 O         -5.3199  -22.5993  -56.4748 O.2       18 UNK        -0.5000 
    104 N         -4.2598  -24.0484  -55.0874 N.am      19 UNK        -0.5000 
    105 CA        -3.6234  -24.8822  -56.1073 C.3       19 UNK         0.1400 
    106 CB        -4.1676  -26.3146  -56.0025 C.3       19 UNK        -0.1800 
    107 C         -2.0926  -24.8821  -55.9735 C.2       19 UNK         0.5000 
    108 O         -1.4030  -24.9287  -56.9931 O.2       19 UNK        -0.5000 
    109 N         -1.5784  -24.8276  -54.7368 N.am      20 UNK        -0.5000 
    110 CA        -0.1428  -24.7952  -54.4449 C.3       20 UNK         0.1400 
    111 CB         0.0940  -25.3795  -53.0431 C.3       20 UNK        -0.1800 
    112 C          0.4403  -23.3729  -54.5349 C.2       20 UNK         0.5000 
    113 O          1.6436  -23.2194  -54.7473 O.2       20 UNK        -0.5000 
    114 N         -0.4227  -22.3675  -54.3661 N.am      21 UNK        -0.5000 
    115 CA        -0.1418  -20.9372  -54.3658 C.3       21 UNK         0.1400 
    116 CB         0.6688  -20.5521  -53.1070 C.3       21 UNK        -0.1800 
    117 C         -1.4951  -20.2060  -54.4259 C.2       21 UNK         0.5000 
    118 O         -2.5288  -20.8532  -54.6181 O.2       21 UNK        -0.5000 
    119 N         -1.4776  -18.8864  -54.2045 N.am      22 UNK        -0.5000 
    120 CA        -2.6670  -18.0251  -54.1020 C.3       22 UNK         0.1400 
    121 C         -3.3858  -17.7732  -55.4637 C.2       22 UNK         0.5000 
    122 N         -4.5848  -17.2060  -55.4524 N.am      22 UNK        -0.7600 
    123 O         -2.8510  -18.0413  -56.5378 O.2       22 UNK        -0.5000 
    124 C124       -3.6223  -18.4965  -52.9625 C.3       23 UNK        -0.0398 
    125 S125       -4.3236  -17.1284  -51.9846 S.3       23 UNK        -0.2404 
    126 C126       -3.1285  -17.0310  -50.6125 C.3       23 UNK        -0.0205 
    127 H127        1.0846   -8.2820  -46.3485 H         1 UNK         0.0600 
    128 H128        0.3749   -8.2862  -44.7307 H         1 UNK         0.0600 
    129 H129       -0.6628   -8.4507  -46.1510 H         1 UNK         0.0600 
    130 H130       -1.3507  -10.5599  -46.4678 H         1 UNK         0.3000 
    131 H131        0.4120  -12.7548  -46.6336 H         1 UNK         0.0600 
    132 H132       -1.5609  -12.7339  -48.0038 H         1 UNK         0.0800 
    133 H133       -1.6446  -14.1328  -46.9732 H         1 UNK         0.0800 
    134 H134       -5.3918  -12.6591  -47.6282 H         1 UNK         0.0800 
    135 H135       -4.0292  -12.4674  -48.7016 H         1 UNK         0.0800 
    136 H136       -3.2780  -14.4023  -49.8843 H         1 UNK         0.1150 
    137 H137       -4.4053  -18.3333  -48.6083 H         1 UNK         0.1150 
    138 H138       -5.4751  -14.9255  -46.2364 H         1 UNK         0.1150 
    139 H139       -6.6757  -17.2609  -46.0755 H         1 UNK         0.0800 
    140 H140       -5.8290  -18.6428  -46.7145 H         1 UNK         0.0800 
    141 H141       -2.4304  -18.3092  -44.4512 H         1 UNK         0.0800 
    142 H142       -2.7318  -17.7186  -46.0535 H         1 UNK         0.0800 
    143 H143       -3.7529  -19.9016  -46.6969 H         1 UNK         0.0600 
    144 H144       -1.0567  -19.4693  -46.2657 H         1 UNK         0.3000 
    145 H145        0.2528  -22.5673  -47.5484 H         1 UNK         0.0600 
    146 H146        1.4284  -20.8360  -48.8863 H         1 UNK         0.0600 
    147 H147       -0.2393  -21.0076  -49.4084 H         1 UNK         0.0600 
    148 H148        0.2322  -19.6301  -48.4238 H         1 UNK         0.0600 
    149 H149        1.5173  -20.2898  -46.3439 H         1 UNK         0.3000 
    150 H150        1.6270  -21.6339  -43.0193 H         1 UNK         0.0600 
    151 H151        3.5808  -22.6334  -44.2297 H         1 UNK         0.0600 
    152 H152        4.0397  -21.1963  -43.3294 H         1 UNK         0.0600 
    153 H153        3.8373  -21.1128  -45.0783 H         1 UNK         0.0600 
    154 H154        2.6296  -19.1964  -44.0547 H         1 UNK         0.3000 
    155 H155       -0.3705  -17.2441  -43.7009 H         1 UNK         0.0600 
    156 H156        0.7905  -17.2681  -41.5034 H         1 UNK         0.0600 
    157 H157        1.2831  -15.8749  -42.4560 H         1 UNK         0.0600 
    158 H158        2.3562  -17.2644  -42.3059 H         1 UNK         0.0600 
    159 H159        2.1499  -16.5050  -44.7181 H         1 UNK         0.3000 
    160 H160        1.5841  -17.4216  -48.1444 H         1 UNK         0.0600 
    161 H161        1.7755  -14.7388  -46.6931 H         1 UNK         0.0600 
    162 H162        0.5289  -15.2039  -47.8423 H         1 UNK         0.0600 
    163 H163        2.1911  -15.0154  -48.3848 H         1 UNK         0.0600 
    164 H164        3.7665  -16.2403  -46.6467 H         1 UNK         0.3000 
    165 H165        5.5400  -19.2917  -46.1425 H         1 UNK         0.0600 
    166 H166        7.2832  -18.0432  -47.3843 H         1 UNK         0.0600 
    167 H167        6.0576  -18.6317  -48.4962 H         1 UNK         0.0600 
    168 H168        6.0734  -16.9346  -48.0314 H         1 UNK         0.0600 
    169 H169        6.1684  -16.5551  -45.5776 H         1 UNK         0.3000 
    170 H170        4.6904  -16.4338  -42.3353 H         1 UNK         0.0600 
    171 H171        6.8440  -17.6701  -42.0250 H         1 UNK         0.0600 
    172 H172        7.6270  -16.6102  -43.1912 H         1 UNK         0.0600 
    173 H173        7.0190  -15.9599  -41.6682 H         1 UNK         0.0600 
    174 H174        6.2687  -14.4912  -43.5135 H         1 UNK         0.3000 
    175 H175        5.5560  -12.6593  -44.4368 H         1 UNK         0.0600 
    176 H176        3.1724  -12.9265  -46.3410 H         1 UNK         0.0600 
    177 H177        4.4392  -11.7090  -46.3956 H         1 UNK         0.0600 
    178 H178        4.8232  -13.3881  -46.7477 H         1 UNK         0.0600 
    179 H179        2.8193  -11.7695  -44.2891 H         1 UNK         0.3000 
    180 H180        2.7546  -11.2801  -40.7369 H         1 UNK         0.0600 
    181 H181        2.7696   -9.3744  -43.1370 H         1 UNK         0.0600 
    182 H182        3.8125   -9.2676  -41.7253 H         1 UNK         0.0600 
    183 H183        2.0800   -9.0344  -41.5510 H         1 UNK         0.0600 
    184 H184        0.9933  -11.1049  -43.1063 H         1 UNK         0.3000 
    185 H185       -0.9445  -13.8866  -42.2231 H         1 UNK         0.0600 
    186 H186       -1.8233  -12.4045  -40.4276 H         1 UNK         0.0600 
    187 H187       -1.7387  -11.0139  -41.5024 H         1 UNK         0.0600 
    188 H188       -2.8528  -12.3371  -41.8490 H         1 UNK         0.0600 
    189 H189       -1.2808  -11.4837  -43.8696 H         1 UNK         0.3000 
    190 H190       -1.8236  -20.9903  -43.8928 H         1 UNK         0.3000 
    191 H191       -3.8846  -22.0792  -42.3269 H         1 UNK         0.0600 
    192 H192       -0.9707  -22.9818  -42.6176 H         1 UNK         0.0600 
    193 H193       -1.5589  -21.7194  -41.5374 H         1 UNK         0.0600 
    194 H194       -2.0360  -23.3903  -41.2788 H         1 UNK         0.0600 
    195 H195       -2.6181  -23.3098  -45.3386 H         1 UNK         0.3000 
    196 H196       -4.1053  -25.8915  -45.0379 H         1 UNK         0.0600 
    197 H197       -1.6245  -26.1360  -45.3658 H         1 UNK         0.0600 
    198 H198       -1.7274  -25.1806  -46.8429 H         1 UNK         0.0600 
    199 H199       -2.5228  -26.7488  -46.7437 H         1 UNK         0.0600 
    200 H200       -4.7785  -22.9251  -45.9936 H         1 UNK         0.3000 
    201 H201       -5.9114  -21.8137  -47.5222 H         1 UNK         0.0600 
    202 H202       -7.8634  -22.9156  -48.5642 H         1 UNK         0.0600 
    203 H203       -7.6868  -23.4765  -46.9108 H         1 UNK         0.0600 
    204 H204       -7.1858  -24.5076  -48.2499 H         1 UNK         0.0600 
    205 H205       -3.3033  -22.8472  -48.3255 H         1 UNK         0.3000 
    206 H206       -1.8994  -23.2599  -49.9731 H         1 UNK         0.0600 
    207 H207       -2.4554  -20.9365  -50.5731 H         1 UNK         0.0600 
    208 H208       -3.7846  -21.4752  -51.5901 H         1 UNK         0.0600 
    209 H209       -2.1232  -21.8637  -52.0257 H         1 UNK         0.0600 
    210 H210       -3.7733  -25.3101  -49.5471 H         1 UNK         0.3000 
    211 H211       -4.5044  -27.2486  -50.2837 H         1 UNK         0.0600 
    212 H212       -2.2236  -27.5222  -51.2959 H         1 UNK         0.0600 
    213 H213       -3.4615  -28.3695  -52.2087 H         1 UNK         0.0600 
    214 H214       -2.8176  -26.8524  -52.8136 H         1 UNK         0.0600 
    215 H215       -6.0887  -25.0267  -50.5970 H         1 UNK         0.3000 
    216 H216       -7.9986  -24.2572  -51.3705 H         1 UNK         0.0600 
    217 H217       -9.5398  -25.5925  -52.7312 H         1 UNK         0.0600 
    218 H218       -8.2722  -26.7284  -53.1613 H         1 UNK         0.0600 
    219 H219       -8.8306  -26.6158  -51.4924 H         1 UNK         0.0600 
    220 H220       -5.8428  -23.1153  -52.1795 H         1 UNK         0.3000 
    221 H221       -4.7701  -21.8023  -53.6062 H         1 UNK         0.0600 
    222 H222       -7.4877  -21.5312  -54.9845 H         1 UNK         0.0600 
    223 H223       -6.9579  -20.6271  -53.5657 H         1 UNK         0.0600 
    224 H224       -6.1435  -20.4012  -55.1045 H         1 UNK         0.0600 
    225 H225       -4.0562  -24.2701  -54.1169 H         1 UNK         0.3000 
    226 H226       -3.8568  -24.5083  -57.1061 H         1 UNK         0.0600 
    227 H227       -5.2538  -26.3316  -56.0954 H         1 UNK         0.0600 
    228 H228       -3.7611  -26.9458  -56.7936 H         1 UNK         0.0600 
    229 H229       -3.9074  -26.7753  -55.0496 H         1 UNK         0.0600 
    230 H230       -2.1999  -24.7537  -53.9357 H         1 UNK         0.3000 
    231 H231        0.3873  -25.4210  -55.1660 H         1 UNK         0.0600 
    232 H232        1.1589  -25.4124  -52.8096 H         1 UNK         0.0600 
    233 H233       -0.2851  -26.3988  -52.9709 H         1 UNK         0.0600 
    234 H234       -0.3916  -24.7838  -52.2698 H         1 UNK         0.0600 
    235 H235       -1.4092  -22.5791  -54.2730 H         1 UNK         0.3000 
    236 H236        0.4234  -20.6858  -55.2650 H         1 UNK         0.0600 
    237 H237        1.6020  -21.1109  -53.0427 H         1 UNK         0.0600 
    238 H238        0.9397  -19.4962  -53.1128 H         1 UNK         0.0600 
    239 H239        0.1060  -20.7432  -52.1927 H         1 UNK         0.0600 
    240 H240       -0.5892  -18.4210  -54.0902 H         1 UNK         0.3000 
    241 H241       -2.2572  -17.0535  -53.8240 H         1 UNK         0.0600 
    242 H242       -5.0296  -16.9454  -54.5851 H         1 UNK         0.3800 
    243 H243       -5.0505  -17.0208  -56.3272 H         1 UNK         0.3800 
    244 H244       -3.0978  -19.1561  -52.2730 H         1 UNK         0.0800 
    245 H245       -4.4374  -19.1057  -53.3569 H         1 UNK         0.0800 
    246 H246       -2.7425  -18.0213  -50.3668 H         1 UNK         0.0800 
    247 H247       -2.2685  -16.4354  -50.9225 H         1 UNK         0.0800 
@<TRIPOS>BOND
     1    1    2 1    
     2    1  127 1    
     3    1  128 1    
     4    1  129 1    
     5    2    3 2    
     6    2    4 am   BACKBONE|DICT|INTERRES
     7    4    5 1    
     8    4  130 1    
     9    5    6 1    
    10    5   65 1    
    11    5  131 1    
    12    6    7 1    
    13    6  132 1    
    14    6  133 1    
    15    7    8 1    
    16    8    9 1    
    17    8  134 1    
    18    8  135 1    
    19    9   10 ar   
    20    9   14 ar   
    21   10   11 ar   
    22   10  136 1    
    23   11   12 ar   
    24   11  126 1    
    25   12   13 ar   
    26   12  137 1    
    27   13   14 ar   
    28   13   15 1    
    29   14  138 1    
    30   15   16 1    
    31   15  139 1    
    32   15  140 1    
    33   16   17 1    
    34   17   18 1    
    35   17  141 1    
    36   17  142 1    
    37   18   19 1    
    38   18   67 1    
    39   18  143 1    
    40   19   20 am   BACKBONE|DICT|INTERRES
    41   19  144 1    
    42   20   21 2    
    43   20   22 1    
    44   22   23 1    
    45   22   24 1    
    46   22  145 1    
    47   23  146 1    
    48   23  147 1    
    49   23  148 1    
    50   24   25 am   BACKBONE|DICT|INTERRES
    51   24  149 1    
    52   25   26 2    
    53   25   27 1    
    54   27   28 1    
    55   27   29 1    
    56   27  150 1    
    57   28  151 1    
    58   28  152 1    
    59   28  153 1    
    60   29   30 am   BACKBONE|DICT|INTERRES
    61   29  154 1    
    62   30   31 2    
    63   30   32 1    
    64   32   33 1    
    65   32   34 1    
    66   32  155 1    
    67   33  156 1    
    68   33  157 1    
    69   33  158 1    
    70   34   35 am   BACKBONE|DICT|INTERRES
    71   34  159 1    
    72   35   36 2    
    73   35   37 1    
    74   37   38 1    
    75   37   39 1    
    76   37  160 1    
    77   38  161 1    
    78   38  162 1    
    79   38  163 1    
    80   39   40 am   BACKBONE|DICT|INTERRES
    81   39  164 1    
    82   40   41 2    
    83   40   42 1    
    84   42   43 1    
    85   42   44 1    
    86   42  165 1    
    87   43  166 1    
    88   43  167 1    
    89   43  168 1    
    90   44   45 am   BACKBONE|DICT|INTERRES
    91   44  169 1    
    92   45   46 2    
    93   45   47 1    
    94   47   48 1    
    95   47   49 1    
    96   47  170 1    
    97   48  171 1    
    98   48  172 1    
    99   48  173 1    
   100   49   50 am   BACKBONE|DICT|INTERRES
   101   49  174 1    
   102   50   51 2    
   103   50   52 1    
   104   52   53 1    
   105   52   54 1    
   106   52  175 1    
   107   53  176 1    
   108   53  177 1    
   109   53  178 1    
   110   54   55 am   BACKBONE|DICT|INTERRES
   111   54  179 1    
   112   55   56 2    
   113   55   57 1    
   114   57   58 1    
   115   57   59 1    
   116   57  180 1    
   117   58  181 1    
   118   58  182 1    
   119   58  183 1    
   120   59   60 am   BACKBONE|DICT|INTERRES
   121   59  184 1    
   122   60   61 2    
   123   60   62 1    
   124   62   63 1    
   125   62   64 1    
   126   62  185 1    
   127   63  186 1    
   128   63  187 1    
   129   63  188 1    
   130   64   65 am   BACKBONE|DICT|INTERRES
   131   64  189 1    
   132   65   66 2    
   133   67   68 2    
   134   67   69 am   BACKBONE|DICT|INTERRES
   135   69   70 1    
   136   69  190 1    
   137   70   71 1    
   138   70   72 1    
   139   70  191 1    
   140   71  192 1    
   141   71  193 1    
   142   71  194 1    
   143   72   73 2    
   144   72   74 am   BACKBONE|DICT|INTERRES
   145   74   75 1    
   146   74  195 1    
   147   75   76 1    
   148   75   77 1    
   149   75  196 1    
   150   76  197 1    
   151   76  198 1    
   152   76  199 1    
   153   77   78 2    
   154   77   79 am   BACKBONE|DICT|INTERRES
   155   79   80 1    
   156   79  200 1    
   157   80   81 1    
   158   80   82 1    
   159   80  201 1    
   160   81  202 1    
   161   81  203 1    
   162   81  204 1    
   163   82   83 2    
   164   82   84 am   BACKBONE|DICT|INTERRES
   165   84   85 1    
   166   84  205 1    
   167   85   86 1    
   168   85   87 1    
   169   85  206 1    
   170   86  207 1    
   171   86  208 1    
   172   86  209 1    
   173   87   88 2    
   174   87   89 am   BACKBONE|DICT|INTERRES
   175   89   90 1    
   176   89  210 1    
   177   90   91 1    
   178   90   92 1    
   179   90  211 1    
   180   91  212 1    
   181   91  213 1    
   182   91  214 1    
   183   92   93 2    
   184   92   94 am   BACKBONE|DICT|INTERRES
   185   94   95 1    
   186   94  215 1    
   187   95   96 1    
   188   95   97 1    
   189   95  216 1    
   190   96  217 1    
   191   96  218 1    
   192   96  219 1    
   193   97   98 2    
   194   97   99 am   BACKBONE|DICT|INTERRES
   195   99  100 1    
   196   99  220 1    
   197  100  101 1    
   198  100  102 1    
   199  100  221 1    
   200  101  222 1    
   201  101  223 1    
   202  101  224 1    
   203  102  103 2    
   204  102  104 am   BACKBONE|DICT|INTERRES
   205  104  105 1    
   206  104  225 1    
   207  105  106 1    
   208  105  107 1    
   209  105  226 1    
   210  106  227 1    
   211  106  228 1    
   212  106  229 1    
   213  107  108 2    
   214  107  109 am   BACKBONE|DICT|INTERRES
   215  109  110 1    
   216  109  230 1    
   217  110  111 1    
   218  110  112 1    
   219  110  231 1    
   220  111  232 1    
   221  111  233 1    
   222  111  234 1    
   223  112  113 2    
   224  112  114 am   BACKBONE|DICT|INTERRES
   225  114  115 1    
   226  114  235 1    
   227  115  116 1    
   228  115  117 1    
   229  115  236 1    
   230  116  237 1    
   231  116  238 1    
   232  116  239 1    
   233  117  118 2    
   234  117  119 am   BACKBONE|DICT|INTERRES
   235  119  120 1    
   236  119  240 1    
   237  120  121 1    
   238  120  124 1    
   239  120  241 1    
   240  121  122 am   BACKBONE|DICT|INTERRES
   241  121  123 2    
   242  122  242 1    
   243  122  243 1    
   244  124  125 1    
   245  124  244 1    
   246  124  245 1    
   247  125  126 1    
   248  126  246 1    
   249  126  247 1    
@<TRIPOS>SUBSTRUCTURE
     1 UNK         1 GROUP             0       ****    0 ROOT    
