@<TRIPOS>MOLECULE
3R540
247   249    1
SMALL
USER_CHARGES


@<TRIPOS>ATOM
      1 CA          2.2085  -16.2524  -47.1749 C.3       0 UNK        -0.1800 
      2 C           1.0127  -15.4534  -46.6781 C.2       0 UNK         0.5000 
      3 O           1.1200  -14.7430  -45.6778 O.2       0 UNK        -0.5000 
      4 N          -0.1283  -15.5581  -47.3726 N.am      1 UNK        -0.5000 
      5 CA         -1.3505  -14.8019  -47.0814 C.3       1 UNK         0.1400 
      6 C6         -2.5541  -15.2448  -47.9475 C.3       23 UNK        -0.0398 
      7 S7         -3.2330  -16.8487  -47.3942 S.3       23 UNK        -0.2404 
      8 C8         -3.7986  -17.5870  -48.9649 C.3       23 UNK        -0.0205 
      9 C9         -2.8512  -18.6574  -49.4930 C.ar      23 UNK        -0.0193 
     10 C10        -3.3509  -19.9064  -49.8777 C.ar      23 UNK        -0.1150 
     11 C11        -2.4962  -20.8883  -50.3876 C.ar      23 UNK        -0.0193 
     12 C12        -1.1320  -20.6173  -50.5018 C.ar      23 UNK        -0.1150 
     13 C13        -0.6145  -19.3868  -50.0955 C.ar      23 UNK        -0.0193 
     14 C14        -1.4815  -18.4046  -49.6128 C.ar      23 UNK        -0.1150 
     15 C15         0.8786  -19.1167  -50.1800 C.3       23 UNK        -0.0205 
     16 S16         1.8590  -20.2291  -49.1188 S.3       23 UNK        -0.2404 
     17 C17         1.1277  -20.0058  -47.4581 C.3       23 UNK        -0.0398 
     18 CA          0.7993  -21.3651  -46.7866 C.3       11 UNK         0.1400 
     19 N           0.9722  -21.3269  -45.3324 N.am      11 UNK        -0.5000 
     20 C           1.1311  -22.4192  -44.5721 C.2       10 UNK         0.5000 
     21 O           1.1179  -23.5664  -45.0180 O.2       10 UNK        -0.5000 
     22 CA          1.3334  -22.2017  -43.0624 C.3       10 UNK         0.1400 
     23 CB          2.7700  -21.7462  -42.7643 C.3       10 UNK        -0.1800 
     24 N           0.3846  -21.2465  -42.4935 N.am      10 UNK        -0.5000 
     25 C          -0.9358  -21.4581  -42.4004 C.2       9 UNK         0.5000 
     26 O          -1.4911  -22.4957  -42.7620 O.2       9 UNK        -0.5000 
     27 CA         -1.7854  -20.3061  -41.8324 C.3       9 UNK         0.1400 
     28 CB         -1.7247  -20.2885  -40.2976 C.3       9 UNK        -0.1800 
     29 N          -1.3969  -18.9940  -42.3495 N.am      9 UNK        -0.5000 
     30 C          -1.4229  -18.6489  -43.6450 C.2       8 UNK         0.5000 
     31 O          -1.7746  -19.3985  -44.5529 O.2       8 UNK        -0.5000 
     32 CA         -0.9007  -17.2493  -43.9923 C.3       8 UNK         0.1400 
     33 CB         -1.8917  -16.1649  -43.5395 C.3       8 UNK        -0.1800 
     34 N           0.4125  -16.9980  -43.4049 N.am      8 UNK        -0.5000 
     35 C           1.5155  -17.7227  -43.6392 C.2       7 UNK         0.5000 
     36 O           1.5622  -18.6753  -44.4166 O.2       7 UNK        -0.5000 
     37 CA          2.7647  -17.3565  -42.8229 C.3       7 UNK         0.1400 
     38 CB          3.4834  -16.1394  -43.4251 C.3       7 UNK        -0.1800 
     39 N           2.4403  -17.1019  -41.4193 N.am      7 UNK        -0.5000 
     40 C           1.9892  -18.0326  -40.5651 C.2       6 UNK         0.5000 
     41 O           1.8341  -19.2175  -40.8594 O.2       6 UNK        -0.5000 
     42 CA          1.6102  -17.5451  -39.1559 C.3       6 UNK         0.1400 
     43 CB          2.8546  -17.4487  -38.2608 C.3       6 UNK        -0.1800 
     44 N           0.9280  -16.2509  -39.1828 N.am      6 UNK        -0.5000 
     45 C          -0.2997  -16.0559  -39.6842 C.2       5 UNK         0.5000 
     46 O          -1.0033  -16.9565  -40.1436 O.2       5 UNK        -0.5000 
     47 CA         -0.7993  -14.5986  -39.7193 C.3       5 UNK         0.1400 
     48 CB         -1.3921  -14.1945  -38.3612 C.3       5 UNK        -0.1800 
     49 N           0.2460  -13.6415  -40.1030 N.am      5 UNK        -0.5000 
     50 C           0.8455  -13.6348  -41.2999 C.2       4 UNK         0.5000 
     51 O           0.5873  -14.4465  -42.1905 O.2       4 UNK        -0.5000 
     52 CA          1.9344  -12.5817  -41.5403 C.3       4 UNK         0.1400 
     53 CB          3.2688  -13.0331  -40.9155 C.3       4 UNK        -0.1800 
     54 N           2.0667  -12.4164  -42.9840 N.am      4 UNK        -0.5000 
     55 C           2.7427  -11.4622  -43.6330 C.2       3 UNK         0.5000 
     56 O           3.4035  -10.5839  -43.0775 O.2       3 UNK        -0.5000 
     57 CA          2.6209  -11.4747  -45.1673 C.3       3 UNK         0.1400 
     58 CB          3.5467  -12.5361  -45.7836 C.3       3 UNK        -0.1800 
     59 N           1.2324  -11.7113  -45.5769 N.am      3 UNK        -0.5000 
     60 C           0.3004  -10.7448  -45.6140 C.2       2 UNK         0.5000 
     61 O           0.5614   -9.5583  -45.4079 O.2       2 UNK        -0.5000 
     62 CA         -1.1718  -11.1368  -45.8723 C.3       2 UNK         0.1400 
     63 CB         -1.8293  -10.2629  -46.9615 C.3       2 UNK        -0.1800 
     64 N          -1.3973  -12.5665  -46.1105 N.am      2 UNK        -0.5000 
     65 C          -1.0908  -13.2863  -47.1983 C.2       1 UNK         0.5000 
     66 O          -0.5993  -12.8277  -48.2312 O.2       1 UNK        -0.5000 
     67 C          -0.5831  -21.9237  -47.1861 C.2       11 UNK         0.5000 
     68 O          -0.6553  -22.7727  -48.0746 O.2       11 UNK        -0.5000 
     69 N          -1.6466  -21.5083  -46.4800 N.am      12 UNK        -0.5000 
     70 CA         -3.0233  -21.9582  -46.7130 C.3       12 UNK         0.1400 
     71 CB         -4.0011  -21.0522  -45.9506 C.3       12 UNK        -0.1800 
     72 C          -3.2768  -23.4402  -46.3731 C.2       12 UNK         0.5000 
     73 O          -4.2780  -23.9944  -46.8277 O.2       12 UNK        -0.5000 
     74 N          -2.3781  -24.0632  -45.5974 N.am      13 UNK        -0.5000 
     75 CA         -2.3772  -25.5029  -45.3313 C.3       13 UNK         0.1400 
     76 CB         -1.5312  -25.7866  -44.0807 C.3       13 UNK        -0.1800 
     77 C          -1.8750  -26.3345  -46.5312 C.2       13 UNK         0.5000 
     78 O          -2.1470  -27.5351  -46.5831 O.2       13 UNK        -0.5000 
     79 N          -1.1601  -25.6948  -47.4661 N.am      14 UNK        -0.5000 
     80 CA         -0.7119  -26.2665  -48.7330 C.3       14 UNK         0.1400 
     81 CB          0.7399  -25.8104  -48.9810 C.3       14 UNK        -0.1800 
     82 C          -1.6587  -25.8332  -49.8721 C.2       14 UNK         0.5000 
     83 O          -2.7465  -25.3138  -49.6155 O.2       14 UNK        -0.5000 
     84 N          -1.2243  -26.0525  -51.1182 N.am      15 UNK        -0.5000 
     85 CA         -1.8987  -25.6126  -52.3445 C.3       15 UNK         0.1400 
     86 CB         -2.4061  -26.8493  -53.1072 C.3       15 UNK        -0.1800 
     87 C          -0.9554  -24.7447  -53.2055 C.2       15 UNK         0.5000 
     88 O          -1.1394  -24.6623  -54.4213 O.2       15 UNK        -0.5000 
     89 N           0.0657  -24.1516  -52.5653 N.am      16 UNK        -0.5000 
     90 CA          1.1839  -23.4309  -53.1767 C.3       16 UNK         0.1400 
     91 CB          2.1008  -22.8860  -52.0706 C.3       16 UNK        -0.1800 
     92 C           0.7449  -22.3127  -54.1406 C.2       16 UNK         0.5000 
     93 O           0.1324  -21.3326  -53.7125 O.2       16 UNK        -0.5000 
     94 N           1.0459  -22.5177  -55.4316 N.am      17 UNK        -0.5000 
     95 CA          0.7703  -21.6432  -56.5796 C.3       17 UNK         0.1400 
     96 CB          1.5607  -20.3245  -56.4456 C.3       17 UNK        -0.1800 
     97 C          -0.7263  -21.3822  -56.8648 C.2       17 UNK         0.5000 
     98 O          -1.0307  -20.5396  -57.7107 O.2       17 UNK        -0.5000 
     99 N          -1.6292  -22.0865  -56.1623 N.am      18 UNK        -0.5000 
    100 CA        -3.0820  -21.8784  -56.1293 C.3       18 UNK         0.1400 
    101 CB        -3.7275  -22.3339  -57.4538 C.3       18 UNK        -0.1800 
    102 C         -3.4727  -20.4345  -55.7337 C.2       18 UNK         0.5000 
    103 O         -4.4443  -19.8892  -56.2627 O.2       18 UNK        -0.5000 
    104 N         -2.6863  -19.8251  -54.8327 N.am      19 UNK        -0.5000 
    105 CA        -2.8578  -18.4538  -54.3523 C.3       19 UNK         0.1400 
    106 CB        -1.6969  -18.1023  -53.4150 C.3       19 UNK        -0.1800 
    107 C         -4.2131  -18.2545  -53.6511 C.2       19 UNK         0.5000 
    108 O         -4.6391  -19.1173  -52.8847 O.2       19 UNK        -0.5000 
    109 N         -4.8966  -17.1466  -53.9711 N.am      20 UNK        -0.5000 
    110 CA        -6.2663  -16.8246  -53.5404 C.3       20 UNK         0.1400 
    111 CB        -6.3039  -16.5301  -52.0250 C.3       20 UNK        -0.1800 
    112 C         -7.3120  -17.8847  -53.9697 C.2       20 UNK         0.5000 
    113 O         -8.3504  -18.0216  -53.3210 O.2       20 UNK        -0.5000 
    114 N         -7.0065  -18.6144  -55.0549 N.am      21 UNK        -0.5000 
    115 CA        -7.7502  -19.7404  -55.6244 C.3       21 UNK         0.1400 
    116 CB        -9.1345  -19.2890  -56.1380 C.3       21 UNK        -0.1800 
    117 C         -7.8164  -20.9725  -54.6945 C.2       21 UNK         0.5000 
    118 O         -8.7969  -21.7184  -54.7494 O.2       21 UNK        -0.5000 
    119 N         -6.7856  -21.1773  -53.8595 N.am      22 UNK        -0.5000 
    120 CA        -6.6565  -22.3549  -52.9861 C.3       22 UNK         0.1400 
    121 C         -6.4644  -23.6990  -53.7533 C.2       22 UNK         0.5000 
    122 N         -6.7552  -24.8263  -53.1169 N.am      22 UNK        -0.7600 
    123 O         -6.0355  -23.7366  -54.9050 O.2       22 UNK        -0.5000 
    124 C124       -5.6018  -22.1371  -51.8679 C.3       23 UNK        -0.0398 
    125 S125       -3.8532  -22.2614  -52.3883 S.3       23 UNK        -0.2404 
    126 C126       -3.0202  -22.2617  -50.7721 C.3       23 UNK        -0.0205 
    127 H127        2.0122  -16.7190  -48.1396 H         1 UNK         0.0600 
    128 H128        2.4601  -17.0370  -46.4632 H         1 UNK         0.0600 
    129 H129        3.0746  -15.5997  -47.2835 H         1 UNK         0.0600 
    130 H130       -0.1530  -16.1311  -48.2006 H         1 UNK         0.3000 
    131 H131       -1.6058  -15.0062  -46.0426 H         1 UNK         0.0600 
    132 H132       -2.2719  -15.2878  -49.0006 H         1 UNK         0.0800 
    133 H133       -3.3685  -14.5207  -47.8811 H         1 UNK         0.0800 
    134 H134       -3.9342  -16.8185  -49.7266 H         1 UNK         0.0800 
    135 H135       -4.7867  -18.0158  -48.7920 H         1 UNK         0.0800 
    136 H136       -4.4065  -20.1148  -49.7863 H         1 UNK         0.1150 
    137 H137       -0.4664  -21.3760  -50.8847 H         1 UNK         0.1150 
    138 H138       -1.0892  -17.4438  -49.3208 H         1 UNK         0.1150 
    139 H139        1.1996  -19.2462  -51.2147 H         1 UNK         0.0800 
    140 H140        1.1040  -18.0831  -49.9168 H         1 UNK         0.0800 
    141 H141        0.2595  -19.3456  -47.4804 H         1 UNK         0.0800 
    142 H142        1.8823  -19.4767  -46.8763 H         1 UNK         0.0800 
    143 H143        1.5349  -22.0880  -47.1479 H         1 UNK         0.0600 
    144 H144        1.0211  -20.4067  -44.9004 H         1 UNK         0.3000 
    145 H145        1.1768  -23.1623  -42.5669 H         1 UNK         0.0600 
    146 H146        2.9484  -21.6857  -41.6907 H         1 UNK         0.0600 
    147 H147        2.9799  -20.7660  -43.1932 H         1 UNK         0.0600 
    148 H148        3.4964  -22.4482  -43.1756 H         1 UNK         0.0600 
    149 H149        0.7714  -20.3797  -42.1340 H         1 UNK         0.3000 
    150 H150       -2.8208  -20.4828  -42.1306 H         1 UNK         0.0600 
    151 H151       -2.0253  -21.2515  -39.8829 H         1 UNK         0.0600 
    152 H152       -2.3941  -19.5331  -39.8858 H         1 UNK         0.0600 
    153 H153       -0.7181  -20.0738  -39.9373 H         1 UNK         0.0600 
    154 H154       -1.0972  -18.3057  -41.6660 H         1 UNK         0.3000 
    155 H155       -0.7965  -17.1935  -45.0766 H         1 UNK         0.0600 
    156 H156       -2.8461  -16.2725  -44.0563 H         1 UNK         0.0600 
    157 H157       -1.5120  -15.1663  -43.7523 H         1 UNK         0.0600 
    158 H158       -2.0910  -16.2158  -42.4696 H         1 UNK         0.0600 
    159 H159        0.4858  -16.1802  -42.8048 H         1 UNK         0.3000 
    160 H160        3.4494  -18.2064  -42.8608 H         1 UNK         0.0600 
    161 H161        2.8457  -15.2558  -43.4363 H         1 UNK         0.0600 
    162 H162        3.7821  -16.3352  -44.4552 H         1 UNK         0.0600 
    163 H163        4.3875  -15.8967  -42.8670 H         1 UNK         0.0600 
    164 H164        2.4943  -16.1455  -41.1059 H         1 UNK         0.3000 
    165 H165        0.9314  -18.2811  -38.7195 H         1 UNK         0.0600 
    166 H166        2.5856  -17.1746  -37.2406 H         1 UNK         0.0600 
    167 H167        3.3745  -18.4065  -38.2125 H         1 UNK         0.0600 
    168 H168        3.5642  -16.7082  -38.6319 H         1 UNK         0.0600 
    169 H169        1.4355  -15.4560  -38.8239 H         1 UNK         0.3000 
    170 H170       -1.5943  -14.5430  -40.4661 H         1 UNK         0.0600 
    171 H171       -0.6377  -14.1974  -37.5735 H         1 UNK         0.0600 
    172 H172       -1.8301  -13.1971  -38.4034 H         1 UNK         0.0600 
    173 H173       -2.1833  -14.8829  -38.0608 H         1 UNK         0.0600 
    174 H174        0.5062  -12.9511  -39.4133 H         1 UNK         0.3000 
    175 H175        1.6149  -11.6350  -41.1008 H         1 UNK         0.0600 
    176 H176        3.6316  -13.9577  -41.3641 H         1 UNK         0.0600 
    177 H177        4.0443  -12.2777  -41.0401 H         1 UNK         0.0600 
    178 H178        3.1631  -13.2066  -39.8440 H         1 UNK         0.0600 
    179 H179        1.5422  -13.1032  -43.5151 H         1 UNK         0.3000 
    180 H180        2.9436  -10.5012  -45.5430 H         1 UNK         0.0600 
    181 H181        3.4092  -12.6043  -46.8628 H         1 UNK         0.0600 
    182 H182        3.3768  -13.5255  -45.3594 H         1 UNK         0.0600 
    183 H183        4.5924  -12.2853  -45.6029 H         1 UNK         0.0600 
    184 H184        0.9636  -12.6767  -45.7346 H         1 UNK         0.3000 
    185 H185       -1.6923  -10.9210  -44.9381 H         1 UNK         0.0600 
    186 H186       -1.3025  -10.3307  -47.9133 H         1 UNK         0.0600 
    187 H187       -2.8670  -10.5514  -47.1281 H         1 UNK         0.0600 
    188 H188       -1.8299   -9.2121  -46.6694 H         1 UNK         0.0600 
    189 H189       -1.7733  -13.0624  -45.3142 H         1 UNK         0.3000 
    190 H190       -1.5263  -20.8071  -45.7515 H         1 UNK         0.3000 
    191 H191       -3.2284  -21.8427  -47.7767 H         1 UNK         0.0600 
    192 H192       -3.8849  -20.0097  -46.2488 H         1 UNK         0.0600 
    193 H193       -3.8478  -21.1162  -44.8727 H         1 UNK         0.0600 
    194 H194       -5.0354  -21.3327  -46.1531 H         1 UNK         0.0600 
    195 H195       -1.5998  -23.5309  -45.2323 H         1 UNK         0.3000 
    196 H196       -3.4018  -25.8167  -45.1211 H         1 UNK         0.0600 
    197 H197       -1.9030  -25.2336  -43.2180 H         1 UNK         0.0600 
    198 H198       -0.4866  -25.5145  -44.2297 H         1 UNK         0.0600 
    199 H199       -1.5591  -26.8460  -43.8233 H         1 UNK         0.0600 
    200 H200       -1.0508  -24.6894  -47.3888 H         1 UNK         0.3000 
    201 H201       -0.7276  -27.3569  -48.6835 H         1 UNK         0.0600 
    202 H202        1.3714  -26.0308  -48.1199 H         1 UNK         0.0600 
    203 H203        0.8024  -24.7380  -49.1690 H         1 UNK         0.0600 
    204 H204        1.1818  -26.3229  -49.8358 H         1 UNK         0.0600 
    205 H205       -0.3301  -26.5049  -51.2498 H         1 UNK         0.3000 
    206 H206       -2.7633  -24.9921  -52.1066 H         1 UNK         0.0600 
    207 H207       -2.9708  -26.5597  -53.9944 H         1 UNK         0.0600 
    208 H208       -1.5833  -27.4872  -53.4317 H         1 UNK         0.0600 
    209 H209       -3.0709  -27.4485  -52.4848 H         1 UNK         0.0600 
    210 H210        0.0998  -24.2416  -51.5616 H         1 UNK         0.3000 
    211 H211        1.7591  -24.1671  -53.7418 H         1 UNK         0.0600 
    212 H212        1.5796  -22.1811  -51.4247 H         1 UNK         0.0600 
    213 H213        2.9584  -22.3638  -52.4964 H         1 UNK         0.0600 
    214 H214        2.4883  -23.6896  -51.4441 H         1 UNK         0.0600 
    215 H215        1.5043  -23.3865  -55.6694 H         1 UNK         0.3000 
    216 H216        1.1525  -22.1690  -57.4556 H         1 UNK         0.0600 
    217 H217        1.4933  -19.7304  -57.3576 H         1 UNK         0.0600 
    218 H218        2.6184  -20.5145  -56.2633 H         1 UNK         0.0600 
    219 H219        1.1841  -19.7089  -55.6279 H         1 UNK         0.0600 
    220 H220       -1.2792  -22.7788  -55.5093 H         1 UNK         0.3000 
    221 H221       -3.4643  -22.5263  -55.3402 H         1 UNK         0.0600 
    222 H222       -4.8157  -22.3104  -57.3829 H         1 UNK         0.0600 
    223 H223       -3.4385  -21.6939  -58.2878 H         1 UNK         0.0600 
    224 H224       -3.4427  -23.3570  -57.6986 H         1 UNK         0.0600 
    225 H225       -1.9231  -20.3506  -54.4247 H         1 UNK         0.3000 
    226 H226       -2.8098  -17.7947  -55.2212 H         1 UNK         0.0600 
    227 H227       -0.7361  -18.1819  -53.9239 H         1 UNK         0.0600 
    228 H228       -1.7876  -17.0840  -53.0352 H         1 UNK         0.0600 
    229 H229       -1.6766  -18.7732  -52.5586 H         1 UNK         0.0600 
    230 H230       -4.4806  -16.4920  -54.6192 H         1 UNK         0.3000 
    231 H231       -6.5411  -15.9059  -54.0603 H         1 UNK         0.0600 
    232 H232       -5.5597  -15.7831  -51.7495 H         1 UNK         0.0600 
    233 H233       -6.1144  -17.4258  -51.4325 H         1 UNK         0.0600 
    234 H234       -7.2778  -16.1416  -51.7252 H         1 UNK         0.0600 
    235 H235       -6.1041  -18.4542  -55.4844 H         1 UNK         0.3000 
    236 H236       -7.1770  -20.0636  -56.4943 H         1 UNK         0.0600 
    237 H237       -9.8064  -19.0272  -55.3204 H         1 UNK         0.0600 
    238 H238       -9.0490  -18.4227  -56.7938 H         1 UNK         0.0600 
    239 H239       -9.6153  -20.0815  -56.7126 H         1 UNK         0.0600 
    240 H240       -6.0171  -20.5171  -53.8356 H         1 UNK         0.3000 
    241 H241       -7.6194  -22.4418  -52.4785 H         1 UNK         0.0600 
    242 H242       -6.6290  -25.7023  -53.5991 H         1 UNK         0.3800 
    243 H243       -7.1071  -24.8298  -52.1724 H         1 UNK         0.3800 
    244 H244       -5.7682  -22.8698  -51.0771 H         1 UNK         0.0800 
    245 H245       -5.7569  -21.1633  -51.4026 H         1 UNK         0.0800 
    246 H246       -2.1879  -22.9633  -50.8163 H         1 UNK         0.0800 
    247 H247       -3.6841  -22.6420  -49.9954 H         1 UNK         0.0800 
@<TRIPOS>BOND
     1    1    2 1    
     2    1  127 1    
     3    1  128 1    
     4    1  129 1    
     5    2    3 2    
     6    2    4 am   BACKBONE|DICT|INTERRES
     7    4    5 1    
     8    4  130 1    
     9    5    6 1    
    10    5   65 1    
    11    5  131 1    
    12    6    7 1    
    13    6  132 1    
    14    6  133 1    
    15    7    8 1    
    16    8    9 1    
    17    8  134 1    
    18    8  135 1    
    19    9   10 ar   
    20    9   14 ar   
    21   10   11 ar   
    22   10  136 1    
    23   11   12 ar   
    24   11  126 1    
    25   12   13 ar   
    26   12  137 1    
    27   13   14 ar   
    28   13   15 1    
    29   14  138 1    
    30   15   16 1    
    31   15  139 1    
    32   15  140 1    
    33   16   17 1    
    34   17   18 1    
    35   17  141 1    
    36   17  142 1    
    37   18   19 1    
    38   18   67 1    
    39   18  143 1    
    40   19   20 am   BACKBONE|DICT|INTERRES
    41   19  144 1    
    42   20   21 2    
    43   20   22 1    
    44   22   23 1    
    45   22   24 1    
    46   22  145 1    
    47   23  146 1    
    48   23  147 1    
    49   23  148 1    
    50   24   25 am   BACKBONE|DICT|INTERRES
    51   24  149 1    
    52   25   26 2    
    53   25   27 1    
    54   27   28 1    
    55   27   29 1    
    56   27  150 1    
    57   28  151 1    
    58   28  152 1    
    59   28  153 1    
    60   29   30 am   BACKBONE|DICT|INTERRES
    61   29  154 1    
    62   30   31 2    
    63   30   32 1    
    64   32   33 1    
    65   32   34 1    
    66   32  155 1    
    67   33  156 1    
    68   33  157 1    
    69   33  158 1    
    70   34   35 am   BACKBONE|DICT|INTERRES
    71   34  159 1    
    72   35   36 2    
    73   35   37 1    
    74   37   38 1    
    75   37   39 1    
    76   37  160 1    
    77   38  161 1    
    78   38  162 1    
    79   38  163 1    
    80   39   40 am   BACKBONE|DICT|INTERRES
    81   39  164 1    
    82   40   41 2    
    83   40   42 1    
    84   42   43 1    
    85   42   44 1    
    86   42  165 1    
    87   43  166 1    
    88   43  167 1    
    89   43  168 1    
    90   44   45 am   BACKBONE|DICT|INTERRES
    91   44  169 1    
    92   45   46 2    
    93   45   47 1    
    94   47   48 1    
    95   47   49 1    
    96   47  170 1    
    97   48  171 1    
    98   48  172 1    
    99   48  173 1    
   100   49   50 am   BACKBONE|DICT|INTERRES
   101   49  174 1    
   102   50   51 2    
   103   50   52 1    
   104   52   53 1    
   105   52   54 1    
   106   52  175 1    
   107   53  176 1    
   108   53  177 1    
   109   53  178 1    
   110   54   55 am   BACKBONE|DICT|INTERRES
   111   54  179 1    
   112   55   56 2    
   113   55   57 1    
   114   57   58 1    
   115   57   59 1    
   116   57  180 1    
   117   58  181 1    
   118   58  182 1    
   119   58  183 1    
   120   59   60 am   BACKBONE|DICT|INTERRES
   121   59  184 1    
   122   60   61 2    
   123   60   62 1    
   124   62   63 1    
   125   62   64 1    
   126   62  185 1    
   127   63  186 1    
   128   63  187 1    
   129   63  188 1    
   130   64   65 am   BACKBONE|DICT|INTERRES
   131   64  189 1    
   132   65   66 2    
   133   67   68 2    
   134   67   69 am   BACKBONE|DICT|INTERRES
   135   69   70 1    
   136   69  190 1    
   137   70   71 1    
   138   70   72 1    
   139   70  191 1    
   140   71  192 1    
   141   71  193 1    
   142   71  194 1    
   143   72   73 2    
   144   72   74 am   BACKBONE|DICT|INTERRES
   145   74   75 1    
   146   74  195 1    
   147   75   76 1    
   148   75   77 1    
   149   75  196 1    
   150   76  197 1    
   151   76  198 1    
   152   76  199 1    
   153   77   78 2    
   154   77   79 am   BACKBONE|DICT|INTERRES
   155   79   80 1    
   156   79  200 1    
   157   80   81 1    
   158   80   82 1    
   159   80  201 1    
   160   81  202 1    
   161   81  203 1    
   162   81  204 1    
   163   82   83 2    
   164   82   84 am   BACKBONE|DICT|INTERRES
   165   84   85 1    
   166   84  205 1    
   167   85   86 1    
   168   85   87 1    
   169   85  206 1    
   170   86  207 1    
   171   86  208 1    
   172   86  209 1    
   173   87   88 2    
   174   87   89 am   BACKBONE|DICT|INTERRES
   175   89   90 1    
   176   89  210 1    
   177   90   91 1    
   178   90   92 1    
   179   90  211 1    
   180   91  212 1    
   181   91  213 1    
   182   91  214 1    
   183   92   93 2    
   184   92   94 am   BACKBONE|DICT|INTERRES
   185   94   95 1    
   186   94  215 1    
   187   95   96 1    
   188   95   97 1    
   189   95  216 1    
   190   96  217 1    
   191   96  218 1    
   192   96  219 1    
   193   97   98 2    
   194   97   99 am   BACKBONE|DICT|INTERRES
   195   99  100 1    
   196   99  220 1    
   197  100  101 1    
   198  100  102 1    
   199  100  221 1    
   200  101  222 1    
   201  101  223 1    
   202  101  224 1    
   203  102  103 2    
   204  102  104 am   BACKBONE|DICT|INTERRES
   205  104  105 1    
   206  104  225 1    
   207  105  106 1    
   208  105  107 1    
   209  105  226 1    
   210  106  227 1    
   211  106  228 1    
   212  106  229 1    
   213  107  108 2    
   214  107  109 am   BACKBONE|DICT|INTERRES
   215  109  110 1    
   216  109  230 1    
   217  110  111 1    
   218  110  112 1    
   219  110  231 1    
   220  111  232 1    
   221  111  233 1    
   222  111  234 1    
   223  112  113 2    
   224  112  114 am   BACKBONE|DICT|INTERRES
   225  114  115 1    
   226  114  235 1    
   227  115  116 1    
   228  115  117 1    
   229  115  236 1    
   230  116  237 1    
   231  116  238 1    
   232  116  239 1    
   233  117  118 2    
   234  117  119 am   BACKBONE|DICT|INTERRES
   235  119  120 1    
   236  119  240 1    
   237  120  121 1    
   238  120  124 1    
   239  120  241 1    
   240  121  122 am   BACKBONE|DICT|INTERRES
   241  121  123 2    
   242  122  242 1    
   243  122  243 1    
   244  124  125 1    
   245  124  244 1    
   246  124  245 1    
   247  125  126 1    
   248  126  246 1    
   249  126  247 1    
@<TRIPOS>SUBSTRUCTURE
     1 UNK         1 GROUP             0       ****    0 ROOT    
