@<TRIPOS>MOLECULE
3R540
247   249    1
SMALL
USER_CHARGES


@<TRIPOS>ATOM
      1 CA          2.6973  -10.2107  -48.6658 C.3       0 UNK        -0.1800 
      2 C           1.8951  -11.0885  -47.7177 C.2       0 UNK         0.5000 
      3 O           2.0584  -10.9841  -46.5028 O.2       0 UNK        -0.5000 
      4 N           1.0141  -11.9371  -48.2634 N.am      1 UNK        -0.5000 
      5 CA          0.1871  -12.9211  -47.5452 C.3       1 UNK         0.1400 
      6 C6         -0.6235  -13.8023  -48.5255 C.3       23 UNK        -0.0398 
      7 S7          0.4345  -14.7372  -49.6834 S.3       23 UNK        -0.2404 
      8 C8          0.2953  -16.4199  -48.9979 C.3       23 UNK        -0.0205 
      9 C9          0.7500  -17.5087  -49.9622 C.ar      23 UNK        -0.0193 
     10 C10         0.3119  -17.5196  -51.2914 C.ar      23 UNK        -0.1150 
     11 C11         0.6885  -18.5491  -52.1575 C.ar      23 UNK        -0.0193 
     12 C12         1.4909  -19.5880  -51.6800 C.ar      23 UNK        -0.1150 
     13 C13         1.9343  -19.5978  -50.3545 C.ar      23 UNK        -0.0193 
     14 C14         1.5703  -18.5448  -49.5054 C.ar      23 UNK        -0.1150 
     15 C15         2.8234  -20.7445  -49.8771 C.3       23 UNK        -0.0205 
     16 S16         2.4876  -21.2993  -48.1728 S.3       23 UNK        -0.2404 
     17 C17         0.7230  -21.7550  -48.2684 C.3       23 UNK        -0.0398 
     18 CA          0.3792  -22.9363  -47.3353 C.3       11 UNK         0.1400 
     19 N           0.5874  -22.6245  -45.9199 N.am      11 UNK        -0.5000 
     20 C           0.6092  -23.5379  -44.9410 C.2       10 UNK         0.5000 
     21 O           0.5100  -24.7488  -45.1385 O.2       10 UNK        -0.5000 
     22 CA          0.7059  -23.0098  -43.4980 C.3       10 UNK         0.1400 
     23 CB          2.1601  -22.6849  -43.1257 C.3       10 UNK        -0.1800 
     24 N          -0.1426  -21.8376  -43.2705 N.am      10 UNK        -0.5000 
     25 C          -1.4817  -21.8553  -43.3376 C.2       9 UNK         0.5000 
     26 O          -2.1372  -22.8743  -43.5555 O.2       9 UNK        -0.5000 
     27 CA         -2.2137  -20.5108  -43.1698 C.3       9 UNK         0.1400 
     28 CB         -2.3507  -20.1476  -41.6840 C.3       9 UNK        -0.1800 
     29 N          -1.5653  -19.4127  -43.8870 N.am      9 UNK        -0.5000 
     30 C          -1.4373  -19.3393  -45.2198 C.2       8 UNK         0.5000 
     31 O          -1.8941  -20.1743  -45.9995 O.2       8 UNK        -0.5000 
     32 CA         -0.6036  -18.1680  -45.7736 C.3       8 UNK         0.1400 
     33 CB         -1.4260  -16.8709  -45.8054 C.3       8 UNK        -0.1800 
     34 N           0.6325  -17.9490  -45.0205 N.am      8 UNK        -0.5000 
     35 C           1.5913  -18.8718  -44.8535 C.2       7 UNK         0.5000 
     36 O           1.5495  -19.9964  -45.3449 O.2       7 UNK        -0.5000 
     37 CA          2.7571  -18.5036  -43.9247 C.3       7 UNK         0.1400 
     38 CB          3.7799  -17.6168  -44.6497 C.3       7 UNK        -0.1800 
     39 N           2.2775  -17.8425  -42.7117 N.am      7 UNK        -0.5000 
     40 C           1.5880  -18.4647  -41.7435 C.2       6 UNK         0.5000 
     41 O           1.3378  -19.6700  -41.7490 O.2       6 UNK        -0.5000 
     42 CA          1.0508  -17.5840  -40.6005 C.3       6 UNK         0.1400 
     43 CB          2.1305  -17.3640  -39.5307 C.3       6 UNK        -0.1800 
     44 N           0.5649  -16.2877  -41.0752 N.am      6 UNK        -0.5000 
     45 C          -0.5074  -16.1241  -41.8632 C.2       5 UNK         0.5000 
     46 O          -1.2324  -17.0487  -42.2278 O.2       5 UNK        -0.5000 
     47 CA         -0.7874  -14.6962  -42.3661 C.3       5 UNK         0.1400 
     48 CB         -1.6998  -13.9417  -41.3888 C.3       5 UNK        -0.1800 
     49 N           0.4292  -13.9141  -42.5901 N.am      5 UNK        -0.5000 
     50 C           1.3726  -14.1986  -43.4964 C.2       4 UNK         0.5000 
     51 O           1.3400  -15.2003  -44.2142 O.2       4 UNK        -0.5000 
     52 CA          2.5377  -13.1935  -43.6063 C.3       4 UNK         0.1400 
     53 CB          3.5212  -13.5437  -44.7369 C.3       4 UNK        -0.1800 
     54 N           2.0526  -11.8305  -43.8164 N.am      4 UNK        -0.5000 
     55 C           1.6012  -10.9990  -42.8685 C.2       3 UNK         0.5000 
     56 O           1.5376  -11.2972  -41.6752 O.2       3 UNK        -0.5000 
     57 CA          1.0901   -9.6316  -43.3456 C.3       3 UNK         0.1400 
     58 CB          2.2579   -8.7148  -43.7432 C.3       3 UNK        -0.1800 
     59 N           0.1915   -9.8001  -44.4857 N.am      3 UNK        -0.5000 
     60 C          -1.1369   -9.9503  -44.3903 C.2       2 UNK         0.5000 
     61 O          -1.7613   -9.8729  -43.3317 O.2       2 UNK        -0.5000 
     62 CA         -1.9003  -10.2450  -45.6971 C.3       2 UNK         0.1400 
     63 CB         -2.3575   -8.9372  -46.3609 C.3       2 UNK        -0.1800 
     64 N          -1.1091  -11.0173  -46.6562 N.am      2 UNK        -0.5000 
     65 C          -0.7621  -12.3022  -46.4939 C.2       1 UNK         0.5000 
     66 O          -1.1545  -12.9958  -45.5565 O.2       1 UNK        -0.5000 
     67 C          -1.0466  -23.4634  -47.5928 C.2       11 UNK         0.5000 
     68 O          -1.1981  -24.4253  -48.3432 O.2       11 UNK        -0.5000 
     69 N          -2.0631  -22.8862  -46.9340 N.am      12 UNK        -0.5000 
     70 CA         -3.4486  -23.3610  -46.9838 C.3       12 UNK         0.1400 
     71 CB         -4.3814  -22.3596  -46.2880 C.3       12 UNK        -0.1800 
     72 C          -3.6229  -24.7777  -46.4102 C.2       12 UNK         0.5000 
     73 O          -4.3292  -25.5861  -47.0125 O.2       12 UNK        -0.5000 
     74 N          -2.9250  -25.0822  -45.3072 N.am      13 UNK        -0.5000 
     75 CA         -2.8497  -26.4228  -44.7173 C.3       13 UNK         0.1400 
     76 CB         -2.1450  -26.3431  -43.3549 C.3       13 UNK        -0.1800 
     77 C          -2.1601  -27.4545  -45.6363 C.2       13 UNK         0.5000 
     78 O          -2.4980  -28.6371  -45.5815 O.2       13 UNK        -0.5000 
     79 N          -1.2432  -26.9833  -46.4920 N.am      14 UNK        -0.5000 
     80 CA         -0.5775  -27.7547  -47.5440 C.3       14 UNK         0.1400 
     81 CB          0.8299  -27.1738  -47.7645 C.3       14 UNK        -0.1800 
     82 C          -1.3784  -27.8000  -48.8667 C.2       14 UNK         0.5000 
     83 O          -0.8722  -28.3408  -49.8507 O.2       14 UNK        -0.5000 
     84 N          -2.6001  -27.2428  -48.8745 N.am      15 UNK        -0.5000 
     85 CA         -3.5474  -27.1606  -49.9926 C.3       15 UNK         0.1400 
     86 CB         -3.9643  -28.5640  -50.4817 C.3       15 UNK        -0.1800 
     87 C          -3.0943  -26.2271  -51.1368 C.2       15 UNK         0.5000 
     88 O          -3.5080  -26.4163  -52.2811 O.2       15 UNK        -0.5000 
     89 N          -2.2910  -25.2110  -50.8037 N.am      16 UNK        -0.5000 
     90 CA         -1.8390  -24.1391  -51.6887 C.3       16 UNK         0.1400 
     91 CB         -0.3104  -24.2343  -51.8484 C.3       16 UNK        -0.1800 
     92 C          -2.2945  -22.7893  -51.1034 C.2       16 UNK         0.5000 
     93 O          -1.4828  -21.8821  -50.9239 O.2       16 UNK        -0.5000 
     94 N          -3.5873  -22.7085  -50.7571 N.am      17 UNK        -0.5000 
     95 CA         -4.2416  -21.5486  -50.1514 C.3       17 UNK         0.1400 
     96 CB         -5.7130  -21.8977  -49.8800 C.3       17 UNK        -0.1800 
     97 C          -4.1418  -20.2760  -51.0101 C.2       17 UNK         0.5000 
     98 O          -4.2799  -20.3565  -52.2334 O.2       17 UNK        -0.5000 
     99 N          -3.9301  -19.1409  -50.3275 N.am      18 UNK        -0.5000 
    100 CA        -3.6949  -17.8042  -50.8763 C.3       18 UNK         0.1400 
    101 CB        -3.6694  -16.7921  -49.7194 C.3       18 UNK        -0.1800 
    102 C         -4.7319  -17.3950  -51.9370 C.2       18 UNK         0.5000 
    103 O         -5.9173  -17.2798  -51.6184 O.2       18 UNK        -0.5000 
    104 N         -4.2636  -17.2404  -53.1822 N.am      19 UNK        -0.5000 
    105 CA        -4.9950  -16.9635  -54.4256 C.3       19 UNK         0.1400 
    106 CB        -5.7659  -15.6323  -54.3461 C.3       19 UNK        -0.1800 
    107 C         -5.9111  -18.1119  -54.8975 C.2       19 UNK         0.5000 
    108 O         -5.9553  -18.3888  -56.0962 O.2       19 UNK        -0.5000 
    109 N         -6.6106  -18.7622  -53.9608 N.am      20 UNK        -0.5000 
    110 CA        -7.5753  -19.8377  -54.1841 C.3       20 UNK         0.1400 
    111 CB        -8.2569  -20.1744  -52.8491 C.3       20 UNK        -0.1800 
    112 C         -6.9776  -21.1075  -54.8174 C.2       20 UNK         0.5000 
    113 O         -7.6563  -21.7504  -55.6199 O.2       20 UNK        -0.5000 
    114 N         -5.7335  -21.4457  -54.4566 N.am      21 UNK        -0.5000 
    115 CA        -5.0208  -22.6273  -54.9445 C.3       21 UNK         0.1400 
    116 CB        -5.2024  -23.7872  -53.9498 C.3       21 UNK        -0.1800 
    117 C         -3.5460  -22.3178  -55.2622 C.2       21 UNK         0.5000 
    118 O         -2.7149  -23.2269  -55.2583 O.2       21 UNK        -0.5000 
    119 N         -3.2483  -21.0476  -55.5629 N.am      22 UNK        -0.5000 
    120 CA        -1.9280  -20.5837  -56.0272 C.3       22 UNK         0.1400 
    121 C         -1.6955  -20.7697  -57.5566 C.2       22 UNK         0.5000 
    122 N         -2.6865  -21.1716  -58.3438 N.am      22 UNK        -0.7600 
    123 O         -0.5869  -20.5560  -58.0394 O.2       22 UNK        -0.5000 
    124 C124       -1.6540  -19.1204  -55.5982 C.3       23 UNK        -0.0398 
    125 S125       -1.5074  -18.9663  -53.7875 S.3       23 UNK        -0.2404 
    126 C126        0.2474  -18.5303  -53.6128 C.3       23 UNK        -0.0205 
    127 H127        2.4406  -10.3992  -49.7086 H         1 UNK         0.0600 
    128 H128        3.7630  -10.3996  -48.5374 H         1 UNK         0.0600 
    129 H129        2.5082   -9.1587  -48.4522 H         1 UNK         0.0600 
    130 H130        0.9367  -11.9743  -49.2701 H         1 UNK         0.3000 
    131 H131        0.8704  -13.5712  -46.9946 H         1 UNK         0.0600 
    132 H132       -1.2641  -14.4983  -47.9816 H         1 UNK         0.0800 
    133 H133       -1.2997  -13.1833  -49.1179 H         1 UNK         0.0800 
    134 H134        0.8669  -16.4610  -48.0692 H         1 UNK         0.0800 
    135 H135       -0.7410  -16.6246  -48.7369 H         1 UNK         0.0800 
    136 H136       -0.3252  -16.7261  -51.6555 H         1 UNK         0.1150 
    137 H137        1.7757  -20.3903  -52.3460 H         1 UNK         0.1150 
    138 H138        1.9103  -18.5425  -48.4792 H         1 UNK         0.1150 
    139 H139        2.7234  -21.6050  -50.5406 H         1 UNK         0.0800 
    140 H140        3.8640  -20.4247  -49.9406 H         1 UNK         0.0800 
    141 H141        0.5004  -22.0182  -49.3027 H         1 UNK         0.0800 
    142 H142        0.1161  -20.8793  -48.0313 H         1 UNK         0.0800 
    143 H143        1.0595  -23.7530  -47.5863 H         1 UNK         0.0600 
    144 H144        0.7519  -21.6470  -45.6876 H         1 UNK         0.3000 
    145 H145        0.3590  -23.8035  -42.8331 H         1 UNK         0.0600 
    146 H146        2.2396  -22.3706  -42.0849 H         1 UNK         0.0600 
    147 H147        2.7987  -23.5600  -43.2516 H         1 UNK         0.0600 
    148 H148        2.5696  -21.8890  -43.7474 H         1 UNK         0.0600 
    149 H149        0.3296  -20.9673  -43.0521 H         1 UNK         0.3000 
    150 H150       -3.2178  -20.6273  -43.5819 H         1 UNK         0.0600 
    151 H151       -2.8459  -20.9461  -41.1302 H         1 UNK         0.0600 
    152 H152       -2.9458  -19.2436  -41.5534 H         1 UNK         0.0600 
    153 H153       -1.3793  -19.9775  -41.2192 H         1 UNK         0.0600 
    154 H154       -1.2071  -18.6497  -43.3196 H         1 UNK         0.3000 
    155 H155       -0.3192  -18.4198  -46.7971 H         1 UNK         0.0600 
    156 H156       -1.8251  -16.6212  -44.8230 H         1 UNK         0.0600 
    157 H157       -0.8242  -16.0260  -46.1396 H         1 UNK         0.0600 
    158 H158       -2.2728  -16.9638  -46.4857 H         1 UNK         0.0600 
    159 H159        0.7642  -17.0311  -44.6051 H         1 UNK         0.3000 
    160 H160        3.2616  -19.4267  -43.6313 H         1 UNK         0.0600 
    161 H161        4.5902  -17.3179  -43.9847 H         1 UNK         0.0600 
    162 H162        3.3218  -16.7147  -45.0533 H         1 UNK         0.0600 
    163 H163        4.2267  -18.1531  -45.4878 H         1 UNK         0.0600 
    164 H164        2.3875  -16.8405  -42.6662 H         1 UNK         0.3000 
    165 H165        0.2141  -18.1123  -40.1383 H         1 UNK         0.0600 
    166 H166        1.7365  -16.8039  -38.6825 H         1 UNK         0.0600 
    167 H167        2.4984  -18.3166  -39.1471 H         1 UNK         0.0600 
    168 H168        2.9868  -16.8166  -39.9266 H         1 UNK         0.0600 
    169 H169        1.1028  -15.4728  -40.8200 H         1 UNK         0.3000 
    170 H170       -1.3074  -14.7783  -43.3223 H         1 UNK         0.0600 
    171 H171       -1.2206  -13.7968  -40.4198 H         1 UNK         0.0600 
    172 H172       -1.9684  -12.9603  -41.7811 H         1 UNK         0.0600 
    173 H173       -2.6281  -14.4890  -41.2195 H         1 UNK         0.0600 
    174 H174        0.5398  -13.0651  -42.0471 H         1 UNK         0.3000 
    175 H175        3.0886  -13.2308  -42.6644 H         1 UNK         0.0600 
    176 H176        4.3168  -12.8023  -44.8109 H         1 UNK         0.0600 
    177 H177        3.0227  -13.5948  -45.7055 H         1 UNK         0.0600 
    178 H178        3.9966  -14.5075  -44.5563 H         1 UNK         0.0600 
    179 H179        2.0479  -11.5097  -44.7829 H         1 UNK         0.3000 
    180 H180        0.5590   -9.1581  -42.5170 H         1 UNK         0.0600 
    181 H181        2.8335   -9.1236  -44.5746 H         1 UNK         0.0600 
    182 H182        2.9438   -8.5732  -42.9071 H         1 UNK         0.0600 
    183 H183        1.8988   -7.7292  -44.0396 H         1 UNK         0.0600 
    184 H184        0.6340   -9.9441  -45.3854 H         1 UNK         0.3000 
    185 H185       -2.7884  -10.8259  -45.4390 H         1 UNK         0.0600 
    186 H186       -1.5100   -8.3185  -46.6589 H         1 UNK         0.0600 
    187 H187       -2.9590   -9.1343  -47.2485 H         1 UNK         0.0600 
    188 H188       -2.9707   -8.3470  -45.6785 H         1 UNK         0.0600 
    189 H189       -0.7504  -10.5208  -47.4587 H         1 UNK         0.3000 
    190 H190       -1.8845  -22.0576  -46.3729 H         1 UNK         0.3000 
    191 H191       -3.7356  -23.4164  -48.0334 H         1 UNK         0.0600 
    192 H192       -4.3123  -21.3714  -46.7422 H         1 UNK         0.0600 
    193 H193       -5.4214  -22.6793  -46.3632 H         1 UNK         0.0600 
    194 H194       -4.1463  -22.2575  -45.2291 H         1 UNK         0.0600 
    195 H195       -2.4129  -24.3434  -44.8333 H         1 UNK         0.3000 
    196 H196       -3.8718  -26.7679  -44.5487 H         1 UNK         0.0600 
    197 H197       -2.1203  -27.3201  -42.8708 H         1 UNK         0.0600 
    198 H198       -2.6632  -25.6593  -42.6824 H         1 UNK         0.0600 
    199 H199       -1.1154  -25.9995  -43.4517 H         1 UNK         0.0600 
    200 H200       -1.0089  -25.9995  -46.4477 H         1 UNK         0.3000 
    201 H201       -0.4616  -28.7864  -47.2061 H         1 UNK         0.0600 
    202 H202        1.3904  -27.1306  -46.8304 H         1 UNK         0.0600 
    203 H203        0.7916  -26.1665  -48.1779 H         1 UNK         0.0600 
    204 H204        1.4039  -27.7889  -48.4583 H         1 UNK         0.0600 
    205 H205       -2.9184  -26.7987  -48.0214 H         1 UNK         0.3000 
    206 H206       -4.4412  -26.6924  -49.5784 H         1 UNK         0.0600 
    207 H207       -4.2849  -29.1924  -49.6508 H         1 UNK         0.0600 
    208 H208       -4.7998  -28.5019  -51.1799 H         1 UNK         0.0600 
    209 H209       -3.1499  -29.0747  -50.9960 H         1 UNK         0.0600 
    210 H210       -1.9924  -25.1137  -49.8342 H         1 UNK         0.3000 
    211 H211       -2.2936  -24.2302  -52.6768 H         1 UNK         0.0600 
    212 H212        0.2012  -24.1257  -50.8912 H         1 UNK         0.0600 
    213 H213        0.0628  -23.4554  -52.5147 H         1 UNK         0.0600 
    214 H214       -0.0203  -25.1945  -52.2750 H         1 UNK         0.0600 
    215 H215       -4.1759  -23.5058  -50.9421 H         1 UNK         0.3000 
    216 H216       -3.7434  -21.3559  -49.1998 H         1 UNK         0.0600 
    217 H217       -6.2375  -21.0584  -49.4211 H         1 UNK         0.0600 
    218 H218       -5.8037  -22.7455  -49.2011 H         1 UNK         0.0600 
    219 H219       -6.2396  -22.1501  -50.8012 H         1 UNK         0.0600 
    220 H220       -3.8754  -19.2025  -49.3222 H         1 UNK         0.3000 
    221 H221       -2.7031  -17.8172  -51.3299 H         1 UNK         0.0600 
    222 H222       -4.6467  -16.6984  -49.2439 H         1 UNK         0.0600 
    223 H223       -2.9578  -17.0871  -48.9501 H         1 UNK         0.0600 
    224 H224       -3.3784  -15.8023  -50.0734 H         1 UNK         0.0600 
    225 H225       -3.2836  -17.4513  -53.3229 H         1 UNK         0.3000 
    226 H226       -4.2279  -16.8456  -55.1922 H         1 UNK         0.0600 
    227 H227       -5.1068  -14.8113  -54.0639 H         1 UNK         0.0600 
    228 H228       -6.2034  -15.3803  -55.3129 H         1 UNK         0.0600 
    229 H229       -6.5811  -15.6726  -53.6234 H         1 UNK         0.0600 
    230 H230       -6.4967  -18.4434  -53.0030 H         1 UNK         0.3000 
    231 H231       -8.3359  -19.4582  -54.8693 H         1 UNK         0.0600 
    232 H232       -7.5328  -20.5012  -52.1023 H         1 UNK         0.0600 
    233 H233       -8.9892  -20.9735  -52.9715 H         1 UNK         0.0600 
    234 H234       -8.7841  -19.3092  -52.4467 H         1 UNK         0.0600 
    235 H235       -5.2454  -20.8901  -53.7547 H         1 UNK         0.3000 
    236 H236       -5.4483  -22.9432  -55.8981 H         1 UNK         0.0600 
    237 H237       -6.2559  -24.0390  -53.8282 H         1 UNK         0.0600 
    238 H238       -4.6932  -24.6896  -54.2901 H         1 UNK         0.0600 
    239 H239       -4.8070  -23.5341  -52.9696 H         1 UNK         0.0600 
    240 H240       -3.9902  -20.3635  -55.5523 H         1 UNK         0.3000 
    241 H241       -1.1651  -21.2025  -55.5501 H         1 UNK         0.0600 
    242 H242       -3.6035  -21.3511  -57.9686 H         1 UNK         0.3800 
    243 H243       -2.5170  -21.2925  -59.3302 H         1 UNK         0.3800 
    244 H244       -0.7385  -18.7420  -56.0567 H         1 UNK         0.0800 
    245 H245       -2.4541  -18.4655  -55.9453 H         1 UNK         0.0800 
    246 H246        0.4184  -17.5382  -54.0333 H         1 UNK         0.0800 
    247 H247        0.8512  -19.2247  -54.1994 H         1 UNK         0.0800 
@<TRIPOS>BOND
     1    1    2 1    
     2    1  127 1    
     3    1  128 1    
     4    1  129 1    
     5    2    3 2    
     6    2    4 am   BACKBONE|DICT|INTERRES
     7    4    5 1    
     8    4  130 1    
     9    5    6 1    
    10    5   65 1    
    11    5  131 1    
    12    6    7 1    
    13    6  132 1    
    14    6  133 1    
    15    7    8 1    
    16    8    9 1    
    17    8  134 1    
    18    8  135 1    
    19    9   10 ar   
    20    9   14 ar   
    21   10   11 ar   
    22   10  136 1    
    23   11   12 ar   
    24   11  126 1    
    25   12   13 ar   
    26   12  137 1    
    27   13   14 ar   
    28   13   15 1    
    29   14  138 1    
    30   15   16 1    
    31   15  139 1    
    32   15  140 1    
    33   16   17 1    
    34   17   18 1    
    35   17  141 1    
    36   17  142 1    
    37   18   19 1    
    38   18   67 1    
    39   18  143 1    
    40   19   20 am   BACKBONE|DICT|INTERRES
    41   19  144 1    
    42   20   21 2    
    43   20   22 1    
    44   22   23 1    
    45   22   24 1    
    46   22  145 1    
    47   23  146 1    
    48   23  147 1    
    49   23  148 1    
    50   24   25 am   BACKBONE|DICT|INTERRES
    51   24  149 1    
    52   25   26 2    
    53   25   27 1    
    54   27   28 1    
    55   27   29 1    
    56   27  150 1    
    57   28  151 1    
    58   28  152 1    
    59   28  153 1    
    60   29   30 am   BACKBONE|DICT|INTERRES
    61   29  154 1    
    62   30   31 2    
    63   30   32 1    
    64   32   33 1    
    65   32   34 1    
    66   32  155 1    
    67   33  156 1    
    68   33  157 1    
    69   33  158 1    
    70   34   35 am   BACKBONE|DICT|INTERRES
    71   34  159 1    
    72   35   36 2    
    73   35   37 1    
    74   37   38 1    
    75   37   39 1    
    76   37  160 1    
    77   38  161 1    
    78   38  162 1    
    79   38  163 1    
    80   39   40 am   BACKBONE|DICT|INTERRES
    81   39  164 1    
    82   40   41 2    
    83   40   42 1    
    84   42   43 1    
    85   42   44 1    
    86   42  165 1    
    87   43  166 1    
    88   43  167 1    
    89   43  168 1    
    90   44   45 am   BACKBONE|DICT|INTERRES
    91   44  169 1    
    92   45   46 2    
    93   45   47 1    
    94   47   48 1    
    95   47   49 1    
    96   47  170 1    
    97   48  171 1    
    98   48  172 1    
    99   48  173 1    
   100   49   50 am   BACKBONE|DICT|INTERRES
   101   49  174 1    
   102   50   51 2    
   103   50   52 1    
   104   52   53 1    
   105   52   54 1    
   106   52  175 1    
   107   53  176 1    
   108   53  177 1    
   109   53  178 1    
   110   54   55 am   BACKBONE|DICT|INTERRES
   111   54  179 1    
   112   55   56 2    
   113   55   57 1    
   114   57   58 1    
   115   57   59 1    
   116   57  180 1    
   117   58  181 1    
   118   58  182 1    
   119   58  183 1    
   120   59   60 am   BACKBONE|DICT|INTERRES
   121   59  184 1    
   122   60   61 2    
   123   60   62 1    
   124   62   63 1    
   125   62   64 1    
   126   62  185 1    
   127   63  186 1    
   128   63  187 1    
   129   63  188 1    
   130   64   65 am   BACKBONE|DICT|INTERRES
   131   64  189 1    
   132   65   66 2    
   133   67   68 2    
   134   67   69 am   BACKBONE|DICT|INTERRES
   135   69   70 1    
   136   69  190 1    
   137   70   71 1    
   138   70   72 1    
   139   70  191 1    
   140   71  192 1    
   141   71  193 1    
   142   71  194 1    
   143   72   73 2    
   144   72   74 am   BACKBONE|DICT|INTERRES
   145   74   75 1    
   146   74  195 1    
   147   75   76 1    
   148   75   77 1    
   149   75  196 1    
   150   76  197 1    
   151   76  198 1    
   152   76  199 1    
   153   77   78 2    
   154   77   79 am   BACKBONE|DICT|INTERRES
   155   79   80 1    
   156   79  200 1    
   157   80   81 1    
   158   80   82 1    
   159   80  201 1    
   160   81  202 1    
   161   81  203 1    
   162   81  204 1    
   163   82   83 2    
   164   82   84 am   BACKBONE|DICT|INTERRES
   165   84   85 1    
   166   84  205 1    
   167   85   86 1    
   168   85   87 1    
   169   85  206 1    
   170   86  207 1    
   171   86  208 1    
   172   86  209 1    
   173   87   88 2    
   174   87   89 am   BACKBONE|DICT|INTERRES
   175   89   90 1    
   176   89  210 1    
   177   90   91 1    
   178   90   92 1    
   179   90  211 1    
   180   91  212 1    
   181   91  213 1    
   182   91  214 1    
   183   92   93 2    
   184   92   94 am   BACKBONE|DICT|INTERRES
   185   94   95 1    
   186   94  215 1    
   187   95   96 1    
   188   95   97 1    
   189   95  216 1    
   190   96  217 1    
   191   96  218 1    
   192   96  219 1    
   193   97   98 2    
   194   97   99 am   BACKBONE|DICT|INTERRES
   195   99  100 1    
   196   99  220 1    
   197  100  101 1    
   198  100  102 1    
   199  100  221 1    
   200  101  222 1    
   201  101  223 1    
   202  101  224 1    
   203  102  103 2    
   204  102  104 am   BACKBONE|DICT|INTERRES
   205  104  105 1    
   206  104  225 1    
   207  105  106 1    
   208  105  107 1    
   209  105  226 1    
   210  106  227 1    
   211  106  228 1    
   212  106  229 1    
   213  107  108 2    
   214  107  109 am   BACKBONE|DICT|INTERRES
   215  109  110 1    
   216  109  230 1    
   217  110  111 1    
   218  110  112 1    
   219  110  231 1    
   220  111  232 1    
   221  111  233 1    
   222  111  234 1    
   223  112  113 2    
   224  112  114 am   BACKBONE|DICT|INTERRES
   225  114  115 1    
   226  114  235 1    
   227  115  116 1    
   228  115  117 1    
   229  115  236 1    
   230  116  237 1    
   231  116  238 1    
   232  116  239 1    
   233  117  118 2    
   234  117  119 am   BACKBONE|DICT|INTERRES
   235  119  120 1    
   236  119  240 1    
   237  120  121 1    
   238  120  124 1    
   239  120  241 1    
   240  121  122 am   BACKBONE|DICT|INTERRES
   241  121  123 2    
   242  122  242 1    
   243  122  243 1    
   244  124  125 1    
   245  124  244 1    
   246  124  245 1    
   247  125  126 1    
   248  126  246 1    
   249  126  247 1    
@<TRIPOS>SUBSTRUCTURE
     1 UNK         1 GROUP             0       ****    0 ROOT    
