@<TRIPOS>MOLECULE
3R540
247   249    1
SMALL
USER_CHARGES


@<TRIPOS>ATOM
      1 CA         -2.5216  -12.1290  -50.3729 C.3       0 UNK        -0.1800 
      2 C          -1.2590  -12.4559  -49.5916 C.2       0 UNK         0.5000 
      3 O          -0.8185  -11.6471  -48.7761 O.2       0 UNK        -0.5000 
      4 N          -0.6960  -13.6532  -49.7971 N.am      1 UNK        -0.5000 
      5 CA          0.4304  -14.1850  -49.0211 C.3       1 UNK         0.1400 
      6 C6          1.0472  -15.4358  -49.7056 C.3       23 UNK        -0.0398 
      7 S7          2.3664  -16.2647  -48.7516 S.3       23 UNK        -0.2404 
      8 C8          3.2720  -17.1949  -50.0259 C.3       23 UNK        -0.0205 
      9 C9          2.4050  -18.2142  -50.7531 C.ar      23 UNK        -0.0193 
     10 C10         2.1066  -18.0279  -52.1048 C.ar      23 UNK        -0.1150 
     11 C11         1.3406  -18.9652  -52.8004 C.ar      23 UNK        -0.0193 
     12 C12         0.8829  -20.1050  -52.1343 C.ar      23 UNK        -0.1150 
     13 C13         1.1838  -20.3192  -50.7848 C.ar      23 UNK        -0.0193 
     14 C14         1.9376  -19.3589  -50.0962 C.ar      23 UNK        -0.1150 
     15 C15         0.6587  -21.5807  -50.1005 C.3       23 UNK        -0.0205 
     16 S16         1.8728  -22.4053  -49.0111 S.3       23 UNK        -0.2404 
     17 C17         1.2982  -21.8996  -47.3514 C.3       23 UNK        -0.0398 
     18 CA          0.4369  -22.9866  -46.6553 C.3       11 UNK         0.1400 
     19 N           0.3292  -22.7868  -45.2070 N.am      11 UNK        -0.5000 
     20 C          -0.1740  -23.6883  -44.3487 C.2       10 UNK         0.5000 
     21 O          -0.5248  -24.8213  -44.6765 O.2       10 UNK        -0.5000 
     22 CA         -0.3748  -23.2257  -42.8932 C.3       10 UNK         0.1400 
     23 CB          0.9243  -23.3814  -42.0901 C.3       10 UNK        -0.1800 
     24 N          -0.8394  -21.8393  -42.8161 N.am      10 UNK        -0.5000 
     25 C          -2.0517  -21.4299  -43.2259 C.2       9 UNK         0.5000 
     26 O          -2.9290  -22.2003  -43.6143 O.2       9 UNK        -0.5000 
     27 CA         -2.3060  -19.9070  -43.2761 C.3       9 UNK         0.1400 
     28 CB         -2.9434  -19.4230  -41.9670 C.3       9 UNK        -0.1800 
     29 N          -1.0860  -19.1409  -43.5415 N.am      9 UNK        -0.5000 
     30 C          -0.3441  -19.2766  -44.6513 C.2       8 UNK         0.5000 
     31 O          -0.7275  -19.9122  -45.6328 O.2       8 UNK        -0.5000 
     32 CA          1.0902  -18.7106  -44.6456 C.3       8 UNK         0.1400 
     33 CB          1.3124  -17.7131  -45.7854 C.3       8 UNK        -0.1800 
     34 N           1.4907  -18.1150  -43.3697 N.am      8 UNK        -0.5000 
     35 C           1.7651  -18.8198  -42.2603 C.2       7 UNK         0.5000 
     36 O           1.7137  -20.0496  -42.2158 O.2       7 UNK        -0.5000 
     37 CA          2.0952  -18.0328  -40.9756 C.3       7 UNK         0.1400 
     38 CB          3.6161  -17.9219  -40.7934 C.3       7 UNK        -0.1800 
     39 N           1.5128  -16.6901  -40.9413 N.am      7 UNK        -0.5000 
     40 C           0.2020  -16.4096  -40.9780 C.2       6 UNK         0.5000 
     41 O          -0.6771  -17.2709  -40.9775 O.2       6 UNK        -0.5000 
     42 CA         -0.1892  -14.9213  -41.0864 C.3       6 UNK         0.1400 
     43 CB         -0.5406  -14.3563  -39.7021 C.3       6 UNK        -0.1800 
     44 N           0.8379  -14.0731  -41.7052 N.am      6 UNK        -0.5000 
     45 C           1.3099  -14.2285  -42.9495 C.2       5 UNK         0.5000 
     46 O           0.9602  -15.1388  -43.7008 O.2       5 UNK        -0.5000 
     47 CA          2.3726  -13.2282  -43.4152 C.3       5 UNK         0.1400 
     48 CB          3.6415  -13.9470  -43.9053 C.3       5 UNK        -0.1800 
     49 N           1.8156  -12.4290  -44.4981 N.am      5 UNK        -0.5000 
     50 C           2.0163  -11.1169  -44.6661 C.2       4 UNK         0.5000 
     51 O           2.7245  -10.4318  -43.9265 O.2       4 UNK        -0.5000 
     52 CA          1.2973  -10.4467  -45.8515 C.3       4 UNK         0.1400 
     53 CB          2.0782  -10.6668  -47.1562 C.3       4 UNK        -0.1800 
     54 N          -0.0787  -10.9118  -46.0238 N.am      4 UNK        -0.5000 
     55 C          -1.0844  -10.6668  -45.1717 C.2       3 UNK         0.5000 
     56 O          -0.9678   -9.9904  -44.1493 O.2       3 UNK        -0.5000 
     57 CA         -2.4488  -11.2908  -45.5142 C.3       3 UNK         0.1400 
     58 CB         -3.2187  -10.4218  -46.5208 C.3       3 UNK        -0.1800 
     59 N          -2.2982  -12.6453  -46.0444 N.am      3 UNK        -0.5000 
     60 C          -2.1045  -13.7291  -45.2801 C.2       2 UNK         0.5000 
     61 O          -2.1382  -13.7073  -44.0497 O.2       2 UNK        -0.5000 
     62 CA         -1.8321  -15.0625  -46.0042 C.3       2 UNK         0.1400 
     63 CB         -3.1336  -15.8650  -46.1502 C.3       2 UNK        -0.1800 
     64 N          -1.2085  -14.9102  -47.3234 N.am      2 UNK        -0.5000 
     65 C           0.0133  -14.3992  -47.5444 C.2       1 UNK         0.5000 
     66 O           0.7600  -14.0151  -46.6458 O.2       1 UNK        -0.5000 
     67 C          -0.9617  -23.1100  -47.2900 C.2       11 UNK         0.5000 
     68 O          -1.1851  -24.0317  -48.0698 O.2       11 UNK        -0.5000 
     69 N          -1.8901  -22.2197  -46.9080 N.am      12 UNK        -0.5000 
     70 CA         -3.2876  -22.2399  -47.3468 C.3       12 UNK         0.1400 
     71 CB         -4.0259  -21.0098  -46.7987 C.3       12 UNK        -0.1800 
     72 C          -4.0363  -23.5350  -46.9806 C.2       12 UNK         0.5000 
     73 O          -4.8275  -24.0229  -47.7873 O.2       12 UNK        -0.5000 
     74 N          -3.7597  -24.0739  -45.7862 N.am      13 UNK        -0.5000 
     75 CA         -4.2899  -25.3528  -45.3188 C.3       13 UNK         0.1400 
     76 CB         -4.0466  -25.4828  -43.8072 C.3       13 UNK        -0.1800 
     77 C          -3.6936  -26.5553  -46.0755 C.2       13 UNK         0.5000 
     78 O          -4.4340  -27.4738  -46.4291 O.2       13 UNK        -0.5000 
     79 N          -2.3722  -26.5367  -46.2970 N.am      14 UNK        -0.5000 
     80 CA         -1.6289  -27.6132  -46.9510 C.3       14 UNK         0.1400 
     81 CB         -0.1308  -27.4525  -46.6483 C.3       14 UNK        -0.1800 
     82 C          -1.8682  -27.6835  -48.4694 C.2       14 UNK         0.5000 
     83 O          -2.1197  -28.7677  -48.9983 O.2       14 UNK        -0.5000 
     84 N          -1.7664  -26.5358  -49.1488 N.am      15 UNK        -0.5000 
     85 CA         -1.8631  -26.4073  -50.5989 C.3       15 UNK         0.1400 
     86 CB         -1.0018  -25.2159  -51.0522 C.3       15 UNK        -0.1800 
     87 C          -3.3321  -26.2774  -51.0328 C.2       15 UNK         0.5000 
     88 O          -3.7939  -25.1835  -51.3633 O.2       15 UNK        -0.5000 
     89 N          -4.0509  -27.4063  -51.0161 N.am      16 UNK        -0.5000 
     90 CA         -5.4324  -27.5261  -51.4814 C.3       16 UNK         0.1400 
     91 CB         -5.9177  -28.9667  -51.2608 C.3       16 UNK        -0.1800 
     92 C          -5.5661  -27.1141  -52.9611 C.2       16 UNK         0.5000 
     93 O          -4.8901  -27.6915  -53.8151 O.2       16 UNK        -0.5000 
     94 N          -6.4052  -26.1000  -53.2144 N.am      17 UNK        -0.5000 
     95 CA         -6.6504  -25.4454  -54.5071 C.3       17 UNK         0.1400 
     96 CB         -7.2479  -26.4358  -55.5293 C.3       17 UNK        -0.1800 
     97 C          -5.4379  -24.6662  -55.0709 C.2       17 UNK         0.5000 
     98 O          -5.4264  -24.3422  -56.2598 O.2       17 UNK        -0.5000 
     99 N          -4.4572  -24.3452  -54.2175 N.am      18 UNK        -0.5000 
    100 CA        -3.2614  -23.5675  -54.5487 C.3       18 UNK         0.1400 
    101 CB        -2.1605  -24.5070  -55.0776 C.3       18 UNK        -0.1800 
    102 C         -2.8242  -22.7385  -53.3265 C.2       18 UNK         0.5000 
    103 O         -1.6303  -22.6142  -53.0510 O.2       18 UNK        -0.5000 
    104 N         -3.8188  -22.2304  -52.5870 N.am      19 UNK        -0.5000 
    105 CA        -3.6671  -21.5508  -51.3039 C.3       19 UNK         0.1400 
    106 CB        -5.0617  -21.4079  -50.6709 C.3       19 UNK        -0.1800 
    107 C         -2.9702  -20.1811  -51.4012 C.2       19 UNK         0.5000 
    108 O         -2.8666  -19.6065  -52.4862 O.2       19 UNK        -0.5000 
    109 N         -2.5597  -19.6573  -50.2378 N.am      20 UNK        -0.5000 
    110 CA        -1.8335  -18.3996  -50.0233 C.3       20 UNK         0.1400 
    111 CB        -1.2639  -18.4211  -48.5931 C.3       20 UNK        -0.1800 
    112 C         -2.6338  -17.1065  -50.3174 C.2       20 UNK         0.5000 
    113 O         -2.4311  -16.0897  -49.6521 O.2       20 UNK        -0.5000 
    114 N         -3.4971  -17.1426  -51.3362 N.am      21 UNK        -0.5000 
    115 CA        -4.2495  -16.0049  -51.8692 C.3       21 UNK         0.1400 
    116 CB        -5.5479  -16.5370  -52.4961 C.3       21 UNK        -0.1800 
    117 C         -3.4388  -15.1889  -52.9000 C.2       21 UNK         0.5000 
    118 O         -3.9351  -14.1748  -53.3908 O.2       21 UNK        -0.5000 
    119 N         -2.2186  -15.6486  -53.2053 N.am      22 UNK        -0.5000 
    120 CA        -1.2350  -15.1710  -54.1972 C.3       22 UNK         0.1400 
    121 C         -0.7532  -13.6874  -54.0716 C.2       22 UNK         0.5000 
    122 N         -1.5538  -12.7699  -53.5551 N.am      22 UNK        -0.7600 
    123 O          0.3629  -13.3526  -54.4592 O.2       22 UNK        -0.5000 
    124 C124       -0.0344  -16.1547  -54.2662 C.3       23 UNK        -0.0398 
    125 S125       -0.5311  -17.8889  -54.5545 S.3       23 UNK        -0.2404 
    126 C126        1.0379  -18.7690  -54.2792 C.3       23 UNK        -0.0205 
    127 H127       -3.3025  -11.7840  -49.6958 H         1 UNK         0.0600 
    128 H128       -2.9007  -12.9991  -50.9066 H         1 UNK         0.0600 
    129 H129       -2.3223  -11.3380  -51.0947 H         1 UNK         0.0600 
    130 H130       -1.1459  -14.3054  -50.4238 H         1 UNK         0.3000 
    131 H131        1.2060  -13.4162  -49.0141 H         1 UNK         0.0600 
    132 H132        0.2780  -16.1734  -49.9250 H         1 UNK         0.0800 
    133 H133        1.4576  -15.1441  -50.6733 H         1 UNK         0.0800 
    134 H134        3.7179  -16.4895  -50.7287 H         1 UNK         0.0800 
    135 H135        4.1046  -17.7155  -49.5510 H         1 UNK         0.0800 
    136 H136        2.4835  -17.1565  -52.6212 H         1 UNK         0.1150 
    137 H137        0.2897  -20.8298  -52.6743 H         1 UNK         0.1150 
    138 H138        2.1718  -19.5021  -49.0511 H         1 UNK         0.1150 
    139 H139        0.3586  -22.3097  -50.8554 H         1 UNK         0.0800 
    140 H140       -0.2497  -21.3388  -49.5510 H         1 UNK         0.0800 
    141 H141        0.7787  -20.9440  -47.4132 H         1 UNK         0.0800 
    142 H142        2.1923  -21.7097  -46.7565 H         1 UNK         0.0800 
    143 H143        0.9402  -23.9459  -46.7963 H         1 UNK         0.0600 
    144 H144        0.5443  -21.8648  -44.8607 H         1 UNK         0.3000 
    145 H145       -1.1344  -23.8660  -42.4395 H         1 UNK         0.0600 
    146 H146        0.7841  -23.0843  -41.0507 H         1 UNK         0.0600 
    147 H147        1.2592  -24.4194  -42.0898 H         1 UNK         0.0600 
    148 H148        1.7316  -22.7770  -42.5052 H         1 UNK         0.0600 
    149 H149       -0.1600  -21.1505  -42.5151 H         1 UNK         0.3000 
    150 H150       -3.0061  -19.7098  -44.0896 H         1 UNK         0.0600 
    151 H151       -3.8753  -19.9532  -41.7669 H         1 UNK         0.0600 
    152 H152       -3.1775  -18.3592  -42.0123 H         1 UNK         0.0600 
    153 H153       -2.2827  -19.5847  -41.1144 H         1 UNK         0.0600 
    154 H154       -0.7266  -18.5855  -42.7746 H         1 UNK         0.3000 
    155 H155        1.7520  -19.5582  -44.8344 H         1 UNK         0.0600 
    156 H156        0.6659  -16.8440  -45.6989 H         1 UNK         0.0600 
    157 H157        2.3430  -17.3587  -45.8042 H         1 UNK         0.0600 
    158 H158        1.1120  -18.1767  -46.7515 H         1 UNK         0.0600 
    159 H159        1.4880  -17.1006  -43.3310 H         1 UNK         0.3000 
    160 H160        1.6868  -18.5952  -40.1336 H         1 UNK         0.0600 
    161 H161        4.0762  -17.3441  -41.5961 H         1 UNK         0.0600 
    162 H162        4.0821  -18.9082  -40.7898 H         1 UNK         0.0600 
    163 H163        3.8668  -17.4426  -39.8469 H         1 UNK         0.0600 
    164 H164        2.1610  -15.9169  -40.9460 H         1 UNK         0.3000 
    165 H165       -1.0811  -14.8685  -41.7140 H         1 UNK         0.0600 
    166 H166       -0.9128  -13.3343  -39.7759 H         1 UNK         0.0600 
    167 H167       -1.3208  -14.9503  -39.2242 H         1 UNK         0.0600 
    168 H168        0.3239  -14.3536  -39.0371 H         1 UNK         0.0600 
    169 H169        1.1756  -13.3026  -41.1467 H         1 UNK         0.3000 
    170 H170        2.6407  -12.5896  -42.5709 H         1 UNK         0.0600 
    171 H171        3.4362  -14.5777  -44.7719 H         1 UNK         0.0600 
    172 H172        4.4134  -13.2318  -44.1893 H         1 UNK         0.0600 
    173 H173        4.0573  -14.5845  -43.1242 H         1 UNK         0.0600 
    174 H174        1.2489  -12.9426  -45.1719 H         1 UNK         0.3000 
    175 H175        1.2642   -9.3728  -45.6560 H         1 UNK         0.0600 
    176 H176        1.6061  -10.1485  -47.9910 H         1 UNK         0.0600 
    177 H177        2.1431  -11.7244  -47.4131 H         1 UNK         0.0600 
    178 H178        3.0968  -10.2870  -47.0701 H         1 UNK         0.0600 
    179 H179       -0.2762  -11.4278  -46.8749 H         1 UNK         0.3000 
    180 H180       -3.0381  -11.3329  -44.5956 H         1 UNK         0.0600 
    181 H181       -2.6775  -10.3051  -47.4593 H         1 UNK         0.0600 
    182 H182       -3.3895   -9.4228  -46.1179 H         1 UNK         0.0600 
    183 H183       -4.1945  -10.8517  -46.7474 H         1 UNK         0.0600 
    184 H184       -2.2292  -12.7405  -47.0466 H         1 UNK         0.3000 
    185 H185       -1.1560  -15.6326  -45.3676 H         1 UNK         0.0600 
    186 H186       -3.6421  -15.9669  -45.1905 H         1 UNK         0.0600 
    187 H187       -3.8265  -15.3852  -46.8425 H         1 UNK         0.0600 
    188 H188       -2.9376  -16.8715  -46.5146 H         1 UNK         0.0600 
    189 H189       -1.7569  -15.2122  -48.1253 H         1 UNK         0.3000 
    190 H190       -1.6096  -21.4625  -46.2902 H         1 UNK         0.3000 
    191 H191       -3.2777  -22.1745  -48.4328 H         1 UNK         0.0600 
    192 H192       -3.5132  -20.0844  -47.0552 H         1 UNK         0.0600 
    193 H193       -5.0354  -20.9485  -47.2065 H         1 UNK         0.0600 
    194 H194       -4.1207  -21.0494  -45.7145 H         1 UNK         0.0600 
    195 H195       -3.1574  -23.5651  -45.1486 H         1 UNK         0.3000 
    196 H196       -5.3690  -25.3549  -45.4869 H         1 UNK         0.0600 
    197 H197       -4.4555  -26.4188  -43.4249 H         1 UNK         0.0600 
    198 H198       -4.5256  -24.6704  -43.2603 H         1 UNK         0.0600 
    199 H199       -2.9835  -25.4654  -43.5657 H         1 UNK         0.0600 
    200 H200       -1.8252  -25.7604  -45.9396 H         1 UNK         0.3000 
    201 H201       -1.9553  -28.5624  -46.5207 H         1 UNK         0.0600 
    202 H202        0.0610  -27.5006  -45.5763 H         1 UNK         0.0600 
    203 H203        0.4517  -28.2452  -47.1191 H         1 UNK         0.0600 
    204 H204        0.2539  -26.4991  -47.0128 H         1 UNK         0.0600 
    205 H205       -1.5914  -25.6692  -48.6413 H         1 UNK         0.3000 
    206 H206       -1.4505  -27.3023  -51.0691 H         1 UNK         0.0600 
    207 H207        0.0239  -25.3086  -50.6957 H         1 UNK         0.0600 
    208 H208       -0.9628  -25.1574  -52.1392 H         1 UNK         0.0600 
    209 H209       -1.3947  -24.2662  -50.6886 H         1 UNK         0.0600 
    210 H210       -3.6015  -28.2536  -50.6942 H         1 UNK         0.3000 
    211 H211       -6.0454  -26.8629  -50.8680 H         1 UNK         0.0600 
    212 H212       -5.3155  -29.6845  -51.8187 H         1 UNK         0.0600 
    213 H213       -6.9523  -29.0830  -51.5854 H         1 UNK         0.0600 
    214 H214       -5.8746  -29.2405  -50.2064 H         1 UNK         0.0600 
    215 H215       -6.8921  -25.6863  -52.4312 H         1 UNK         0.3000 
    216 H216       -7.4126  -24.6901  -54.3113 H         1 UNK         0.0600 
    217 H217       -7.5982  -25.9144  -56.4208 H         1 UNK         0.0600 
    218 H218       -8.1024  -26.9676  -55.1111 H         1 UNK         0.0600 
    219 H219       -6.5167  -27.1763  -55.8539 H         1 UNK         0.0600 
    220 H220       -4.5148  -24.6534  -53.2511 H         1 UNK         0.3000 
    221 H221       -3.5018  -22.8449  -55.3312 H         1 UNK         0.0600 
    222 H222       -1.8975  -25.2666  -54.3413 H         1 UNK         0.0600 
    223 H223       -2.4833  -25.0202  -55.9834 H         1 UNK         0.0600 
    224 H224       -1.2536  -23.9544  -55.3256 H         1 UNK         0.0600 
    225 H225       -4.7641  -22.3626  -52.9123 H         1 UNK         0.3000 
    226 H226       -3.0510  -22.1940  -50.6734 H         1 UNK         0.0600 
    227 H227       -5.5123  -22.3852  -50.4937 H         1 UNK         0.0600 
    228 H228       -5.0197  -20.8964  -49.7095 H         1 UNK         0.0600 
    229 H229       -5.7355  -20.8372  -51.3111 H         1 UNK         0.0600 
    230 H230       -2.7481  -20.1781  -49.3963 H         1 UNK         0.3000 
    231 H231       -0.9899  -18.3857  -50.7148 H         1 UNK         0.0600 
    232 H232       -2.0555  -18.4736  -47.8488 H         1 UNK         0.0600 
    233 H233       -0.6708  -17.5357  -48.3722 H         1 UNK         0.0600 
    234 H234       -0.6117  -19.2781  -48.4381 H         1 UNK         0.0600 
    235 H235       -3.5403  -18.0075  -51.8708 H         1 UNK         0.3000 
    236 H236       -4.5131  -15.3313  -51.0511 H         1 UNK         0.0600 
    237 H237       -6.1442  -17.0813  -51.7635 H         1 UNK         0.0600 
    238 H238       -6.1657  -15.7216  -52.8745 H         1 UNK         0.0600 
    239 H239       -5.3443  -17.2107  -53.3295 H         1 UNK         0.0600 
    240 H240       -1.9532  -16.5135  -52.7590 H         1 UNK         0.3000 
    241 H241       -1.7384  -15.2135  -55.1640 H         1 UNK         0.0600 
    242 H242       -2.5153  -13.0264  -53.3483 H         1 UNK         0.3800 
    243 H243       -1.2503  -11.8115  -53.4943 H         1 UNK         0.3800 
    244 H244        0.6501  -15.8740  -55.0685 H         1 UNK         0.0800 
    245 H245        0.5344  -16.0951  -53.3387 H         1 UNK         0.0800 
    246 H246        0.9793  -19.7418  -54.7698 H         1 UNK         0.0800 
    247 H247        1.8530  -18.2340  -54.7691 H         1 UNK         0.0800 
@<TRIPOS>BOND
     1    1    2 1    
     2    1  127 1    
     3    1  128 1    
     4    1  129 1    
     5    2    3 2    
     6    2    4 am   BACKBONE|DICT|INTERRES
     7    4    5 1    
     8    4  130 1    
     9    5    6 1    
    10    5   65 1    
    11    5  131 1    
    12    6    7 1    
    13    6  132 1    
    14    6  133 1    
    15    7    8 1    
    16    8    9 1    
    17    8  134 1    
    18    8  135 1    
    19    9   10 ar   
    20    9   14 ar   
    21   10   11 ar   
    22   10  136 1    
    23   11   12 ar   
    24   11  126 1    
    25   12   13 ar   
    26   12  137 1    
    27   13   14 ar   
    28   13   15 1    
    29   14  138 1    
    30   15   16 1    
    31   15  139 1    
    32   15  140 1    
    33   16   17 1    
    34   17   18 1    
    35   17  141 1    
    36   17  142 1    
    37   18   19 1    
    38   18   67 1    
    39   18  143 1    
    40   19   20 am   BACKBONE|DICT|INTERRES
    41   19  144 1    
    42   20   21 2    
    43   20   22 1    
    44   22   23 1    
    45   22   24 1    
    46   22  145 1    
    47   23  146 1    
    48   23  147 1    
    49   23  148 1    
    50   24   25 am   BACKBONE|DICT|INTERRES
    51   24  149 1    
    52   25   26 2    
    53   25   27 1    
    54   27   28 1    
    55   27   29 1    
    56   27  150 1    
    57   28  151 1    
    58   28  152 1    
    59   28  153 1    
    60   29   30 am   BACKBONE|DICT|INTERRES
    61   29  154 1    
    62   30   31 2    
    63   30   32 1    
    64   32   33 1    
    65   32   34 1    
    66   32  155 1    
    67   33  156 1    
    68   33  157 1    
    69   33  158 1    
    70   34   35 am   BACKBONE|DICT|INTERRES
    71   34  159 1    
    72   35   36 2    
    73   35   37 1    
    74   37   38 1    
    75   37   39 1    
    76   37  160 1    
    77   38  161 1    
    78   38  162 1    
    79   38  163 1    
    80   39   40 am   BACKBONE|DICT|INTERRES
    81   39  164 1    
    82   40   41 2    
    83   40   42 1    
    84   42   43 1    
    85   42   44 1    
    86   42  165 1    
    87   43  166 1    
    88   43  167 1    
    89   43  168 1    
    90   44   45 am   BACKBONE|DICT|INTERRES
    91   44  169 1    
    92   45   46 2    
    93   45   47 1    
    94   47   48 1    
    95   47   49 1    
    96   47  170 1    
    97   48  171 1    
    98   48  172 1    
    99   48  173 1    
   100   49   50 am   BACKBONE|DICT|INTERRES
   101   49  174 1    
   102   50   51 2    
   103   50   52 1    
   104   52   53 1    
   105   52   54 1    
   106   52  175 1    
   107   53  176 1    
   108   53  177 1    
   109   53  178 1    
   110   54   55 am   BACKBONE|DICT|INTERRES
   111   54  179 1    
   112   55   56 2    
   113   55   57 1    
   114   57   58 1    
   115   57   59 1    
   116   57  180 1    
   117   58  181 1    
   118   58  182 1    
   119   58  183 1    
   120   59   60 am   BACKBONE|DICT|INTERRES
   121   59  184 1    
   122   60   61 2    
   123   60   62 1    
   124   62   63 1    
   125   62   64 1    
   126   62  185 1    
   127   63  186 1    
   128   63  187 1    
   129   63  188 1    
   130   64   65 am   BACKBONE|DICT|INTERRES
   131   64  189 1    
   132   65   66 2    
   133   67   68 2    
   134   67   69 am   BACKBONE|DICT|INTERRES
   135   69   70 1    
   136   69  190 1    
   137   70   71 1    
   138   70   72 1    
   139   70  191 1    
   140   71  192 1    
   141   71  193 1    
   142   71  194 1    
   143   72   73 2    
   144   72   74 am   BACKBONE|DICT|INTERRES
   145   74   75 1    
   146   74  195 1    
   147   75   76 1    
   148   75   77 1    
   149   75  196 1    
   150   76  197 1    
   151   76  198 1    
   152   76  199 1    
   153   77   78 2    
   154   77   79 am   BACKBONE|DICT|INTERRES
   155   79   80 1    
   156   79  200 1    
   157   80   81 1    
   158   80   82 1    
   159   80  201 1    
   160   81  202 1    
   161   81  203 1    
   162   81  204 1    
   163   82   83 2    
   164   82   84 am   BACKBONE|DICT|INTERRES
   165   84   85 1    
   166   84  205 1    
   167   85   86 1    
   168   85   87 1    
   169   85  206 1    
   170   86  207 1    
   171   86  208 1    
   172   86  209 1    
   173   87   88 2    
   174   87   89 am   BACKBONE|DICT|INTERRES
   175   89   90 1    
   176   89  210 1    
   177   90   91 1    
   178   90   92 1    
   179   90  211 1    
   180   91  212 1    
   181   91  213 1    
   182   91  214 1    
   183   92   93 2    
   184   92   94 am   BACKBONE|DICT|INTERRES
   185   94   95 1    
   186   94  215 1    
   187   95   96 1    
   188   95   97 1    
   189   95  216 1    
   190   96  217 1    
   191   96  218 1    
   192   96  219 1    
   193   97   98 2    
   194   97   99 am   BACKBONE|DICT|INTERRES
   195   99  100 1    
   196   99  220 1    
   197  100  101 1    
   198  100  102 1    
   199  100  221 1    
   200  101  222 1    
   201  101  223 1    
   202  101  224 1    
   203  102  103 2    
   204  102  104 am   BACKBONE|DICT|INTERRES
   205  104  105 1    
   206  104  225 1    
   207  105  106 1    
   208  105  107 1    
   209  105  226 1    
   210  106  227 1    
   211  106  228 1    
   212  106  229 1    
   213  107  108 2    
   214  107  109 am   BACKBONE|DICT|INTERRES
   215  109  110 1    
   216  109  230 1    
   217  110  111 1    
   218  110  112 1    
   219  110  231 1    
   220  111  232 1    
   221  111  233 1    
   222  111  234 1    
   223  112  113 2    
   224  112  114 am   BACKBONE|DICT|INTERRES
   225  114  115 1    
   226  114  235 1    
   227  115  116 1    
   228  115  117 1    
   229  115  236 1    
   230  116  237 1    
   231  116  238 1    
   232  116  239 1    
   233  117  118 2    
   234  117  119 am   BACKBONE|DICT|INTERRES
   235  119  120 1    
   236  119  240 1    
   237  120  121 1    
   238  120  124 1    
   239  120  241 1    
   240  121  122 am   BACKBONE|DICT|INTERRES
   241  121  123 2    
   242  122  242 1    
   243  122  243 1    
   244  124  125 1    
   245  124  244 1    
   246  124  245 1    
   247  125  126 1    
   248  126  246 1    
   249  126  247 1    
@<TRIPOS>SUBSTRUCTURE
     1 UNK         1 GROUP             0       ****    0 ROOT    
