@<TRIPOS>MOLECULE
3R540
247   249    1
SMALL
USER_CHARGES


@<TRIPOS>ATOM
      1 CA         -4.6857  -14.6114  -42.9367 C.3       0 UNK        -0.1800 
      2 C          -3.5109  -14.3012  -43.8535 C.2       0 UNK         0.5000 
      3 O          -2.3975  -14.7494  -43.5871 O.2       0 UNK        -0.5000 
      4 N          -3.7616  -13.5468  -44.9319 N.am      1 UNK        -0.5000 
      5 CA         -2.7717  -13.0919  -45.9151 C.3       1 UNK         0.1400 
      6 C6         -2.0528  -14.2715  -46.6365 C.3       23 UNK        -0.0398 
      7 S7         -1.6628  -13.9387  -48.3898 S.3       23 UNK        -0.2404 
      8 C8         -3.3043  -13.9848  -49.1934 C.3       23 UNK        -0.0205 
      9 C9         -3.8902  -15.3873  -49.2920 C.ar      23 UNK        -0.0193 
     10 C10        -3.7599  -16.1279  -50.4706 C.ar      23 UNK        -0.1150 
     11 C11        -4.3561  -17.3878  -50.5877 C.ar      23 UNK        -0.0193 
     12 C12        -5.0244  -17.9360  -49.4881 C.ar      23 UNK        -0.1150 
     13 C13        -5.1472  -17.2155  -48.2957 C.ar      23 UNK        -0.0193 
     14 C14        -4.6134  -15.9251  -48.2240 C.ar      23 UNK        -0.1150 
     15 C15        -5.9008  -17.8282  -47.1174 C.3       23 UNK        -0.0205 
     16 S16        -5.1955  -17.4425  -45.4728 S.3       23 UNK        -0.2404 
     17 C17        -3.4643  -18.0327  -45.5643 C.3       23 UNK        -0.0398 
     18 CA         -3.2460  -19.4675  -46.0977 C.3       11 UNK         0.1400 
     19 N          -1.8183  -19.7621  -46.2587 N.am      11 UNK        -0.5000 
     20 C          -1.3295  -20.8655  -46.8403 C.2       10 UNK         0.5000 
     21 O          -2.0344  -21.7578  -47.3035 O.2       10 UNK        -0.5000 
     22 CA          0.1959  -21.0418  -46.8556 C.3       10 UNK         0.1400 
     23 CB          0.8437  -20.1413  -47.9177 C.3       10 UNK        -0.1800 
     24 N           0.7863  -20.7961  -45.5412 N.am      10 UNK        -0.5000 
     25 C           0.5158  -21.5251  -44.4478 C.2       9 UNK         0.5000 
     26 O          -0.2001  -22.5266  -44.4543 O.2       9 UNK        -0.5000 
     27 CA          1.1042  -21.0310  -43.1152 C.3       9 UNK         0.1400 
     28 CB          2.5589  -21.4975  -42.9594 C.3       9 UNK        -0.1800 
     29 N           1.0298  -19.5767  -42.9656 N.am      9 UNK        -0.5000 
     30 C          -0.1096  -18.8703  -42.9147 C.2       8 UNK         0.5000 
     31 O          -1.2312  -19.3769  -42.9575 O.2       8 UNK        -0.5000 
     32 CA          0.0272  -17.3374  -42.8631 C.3       8 UNK         0.1400 
     33 CB          0.4155  -16.8579  -41.4568 C.3       8 UNK        -0.1800 
     34 N           0.9948  -16.8353  -43.8374 N.am      8 UNK        -0.5000 
     35 C           0.8569  -16.9478  -45.1657 C.2       7 UNK         0.5000 
     36 O          -0.1305  -17.4369  -45.7160 O.2       7 UNK        -0.5000 
     37 CA          2.0528  -16.4919  -46.0184 C.3       7 UNK         0.1400 
     38 CB          2.0332  -14.9717  -46.2356 C.3       7 UNK        -0.1800 
     39 N           3.3280  -16.8893  -45.4191 N.am      7 UNK        -0.5000 
     40 C           3.7705  -18.1538  -45.3631 C.2       6 UNK         0.5000 
     41 O           3.1570  -19.1122  -45.8295 O.2       6 UNK        -0.5000 
     42 CA          5.1047  -18.3956  -44.6338 C.3       6 UNK         0.1400 
     43 CB          6.2902  -18.1406  -45.5764 C.3       6 UNK        -0.1800 
     44 N           5.2532  -17.5714  -43.4348 N.am      6 UNK        -0.5000 
     45 C           4.4885  -17.6786  -42.3391 C.2       5 UNK         0.5000 
     46 O           3.5935  -18.5116  -42.2080 O.2       5 UNK        -0.5000 
     47 CA          4.7316  -16.6466  -41.2230 C.3       5 UNK         0.1400 
     48 CB          5.8118  -17.1459  -40.2521 C.3       5 UNK        -0.1800 
     49 N           5.1044  -15.3217  -41.7277 N.am      5 UNK        -0.5000 
     50 C           4.3296  -14.5647  -42.5153 C.2       4 UNK         0.5000 
     51 O           3.2309  -14.9255  -42.9442 O.2       4 UNK        -0.5000 
     52 CA          4.9068  -13.2019  -42.9391 C.3       4 UNK         0.1400 
     53 CB          5.4566  -13.2816  -44.3720 C.3       4 UNK        -0.1800 
     54 N           3.9021  -12.1430  -42.8756 N.am      4 UNK        -0.5000 
     55 C           3.3076  -11.7092  -41.7554 C.2       3 UNK         0.5000 
     56 O           3.6196  -12.0942  -40.6272 O.2       3 UNK        -0.5000 
     57 CA          2.1881  -10.6567  -41.9074 C.3       3 UNK         0.1400 
     58 CB          2.6761   -9.2804  -41.4270 C.3       3 UNK        -0.1800 
     59 N           1.6601  -10.5170  -43.2693 N.am      3 UNK        -0.5000 
     60 C           0.9442  -11.4465  -43.9150 C.2       2 UNK         0.5000 
     61 O           0.6875  -12.5563  -43.4456 O.2       2 UNK        -0.5000 
     62 CA          0.4738  -11.0677  -45.3349 C.3       2 UNK         0.1400 
     63 CB          1.6484  -11.1137  -46.3265 C.3       2 UNK        -0.1800 
     64 N          -0.5884  -11.9442  -45.8294 N.am      2 UNK        -0.5000 
     65 C          -1.8241  -12.0236  -45.3179 C.2       1 UNK         0.5000 
     66 O          -2.2408  -11.2650  -44.4374 O.2       1 UNK        -0.5000 
     67 C          -3.9726  -20.5360  -45.2513 C.2       11 UNK         0.5000 
     68 O          -5.0490  -20.9863  -45.6453 O.2       11 UNK        -0.5000 
     69 N          -3.3438  -20.9857  -44.1552 N.am      12 UNK        -0.5000 
     70 CA         -3.8336  -22.0747  -43.3032 C.3       12 UNK         0.1400 
     71 CB         -2.9334  -22.1941  -42.0645 C.3       12 UNK        -0.1800 
     72 C          -3.9429  -23.4322  -44.0311 C.2       12 UNK         0.5000 
     73 O          -4.8174  -24.2311  -43.6953 O.2       12 UNK        -0.5000 
     74 N          -3.0816  -23.6522  -45.0324 N.am      13 UNK        -0.5000 
     75 CA         -3.0840  -24.8162  -45.9199 C.3       13 UNK         0.1400 
     76 CB         -1.6276  -25.1353  -46.3007 C.3       13 UNK        -0.1800 
     77 C          -3.9447  -24.6081  -47.1856 C.2       13 UNK         0.5000 
     78 O          -3.9139  -25.4620  -48.0743 O.2       13 UNK        -0.5000 
     79 N          -4.6532  -23.4706  -47.2840 N.am      14 UNK        -0.5000 
     80 CA         -5.4495  -23.0128  -48.4309 C.3       14 UNK         0.1400 
     81 CB         -6.7010  -23.8970  -48.6093 C.3       14 UNK        -0.1800 
     82 C          -4.6184  -22.8881  -49.7264 C.2       14 UNK         0.5000 
     83 O          -5.1148  -23.1867  -50.8128 O.2       14 UNK        -0.5000 
     84 N          -3.3446  -22.5005  -49.5738 N.am      15 UNK        -0.5000 
     85 CA         -2.2903  -22.4413  -50.5866 C.3       15 UNK         0.1400 
     86 CB         -2.5405  -21.2791  -51.5610 C.3       15 UNK        -0.1800 
     87 C          -2.0604  -23.7967  -51.2830 C.2       15 UNK         0.5000 
     88 O          -1.8890  -23.8446  -52.5021 O.2       15 UNK        -0.5000 
     89 N          -2.0918  -24.8763  -50.4870 N.am      16 UNK        -0.5000 
     90 CA         -2.0007  -26.2803  -50.9002 C.3       16 UNK         0.1400 
     91 CB         -0.6037  -26.5935  -51.4772 C.3       16 UNK        -0.1800 
     92 C          -3.1603  -26.6786  -51.8373 C.2       16 UNK         0.5000 
     93 O          -2.9379  -27.3257  -52.8609 O.2       16 UNK        -0.5000 
     94 N          -4.3755  -26.2495  -51.4633 N.am      17 UNK        -0.5000 
     95 CA         -5.6249  -26.3402  -52.2266 C.3       17 UNK         0.1400 
     96 CB         -6.0586  -27.8088  -52.4194 C.3       17 UNK        -0.1800 
     97 C          -5.5514  -25.5392  -53.5445 C.2       17 UNK         0.5000 
     98 O          -5.8460  -26.0695  -54.6174 O.2       17 UNK        -0.5000 
     99 N          -5.1535  -24.2658  -53.4143 N.am      18 UNK        -0.5000 
    100 CA        -4.9911  -23.2570  -54.4643 C.3       18 UNK         0.1400 
    101 CB        -6.3654  -22.8227  -55.0129 C.3       18 UNK        -0.1800 
    102 C         -3.9963  -23.6732  -55.5702 C.2       18 UNK         0.5000 
    103 O         -4.2982  -23.5376  -56.7582 O.2       18 UNK        -0.5000 
    104 N         -2.8344  -24.1932  -55.1561 N.am      19 UNK        -0.5000 
    105 CA        -1.7654  -24.6611  -56.0383 C.3       19 UNK         0.1400 
    106 CB        -1.4488  -26.1279  -55.7110 C.3       19 UNK        -0.1800 
    107 C         -0.5001  -23.7982  -55.9074 C.2       19 UNK         0.5000 
    108 O          0.1481  -23.5240  -56.9181 O.2       19 UNK        -0.5000 
    109 N         -0.1638  -23.3816  -54.6786 N.am      20 UNK        -0.5000 
    110 CA         1.0080  -22.5536  -54.3762 C.3       20 UNK         0.1400 
    111 CB         1.3882  -22.7555  -52.9006 C.3       20 UNK        -0.1800 
    112 C          0.7702  -21.0591  -54.6666 C.2       20 UNK         0.5000 
    113 O          1.7272  -20.3180  -54.8930 O.2       20 UNK        -0.5000 
    114 N         -0.5010  -20.6533  -54.6483 N.am      21 UNK        -0.5000 
    115 CA        -1.0273  -19.3116  -54.8588 C.3       21 UNK         0.1400 
    116 CB        -0.6814  -18.4054  -53.6607 C.3       21 UNK        -0.1800 
    117 C         -2.5465  -19.4544  -55.0426 C.2       21 UNK         0.5000 
    118 O         -3.0806  -20.5430  -54.8188 O.2       21 UNK        -0.5000 
    119 N         -3.2179  -18.3702  -55.4482 N.am      22 UNK        -0.5000 
    120 CA        -4.6721  -18.3172  -55.7099 C.3       22 UNK         0.1400 
    121 C         -5.1464  -19.1531  -56.9424 C.2       22 UNK         0.5000 
    122 N         -4.2611  -19.5904  -57.8295 N.am      22 UNK        -0.7600 
    123 O         -6.3399  -19.3776  -57.1253 O.2       22 UNK        -0.5000 
    124 C124       -5.5353  -18.5903  -54.4414 C.3       23 UNK        -0.0398 
    125 S125       -5.3453  -17.3053  -53.1599 S.3       23 UNK        -0.2404 
    126 C126       -4.3132  -18.1374  -51.9120 C.3       23 UNK        -0.0205 
    127 H127       -5.6259  -14.2351  -43.3403 H         1 UNK         0.0600 
    128 H128       -4.5273  -14.1587  -41.9580 H         1 UNK         0.0600 
    129 H129       -4.7821  -15.6891  -42.8035 H         1 UNK         0.0600 
    130 H130       -4.6947  -13.1833  -45.0645 H         1 UNK         0.3000 
    131 H131       -3.3638  -12.5484  -46.6504 H         1 UNK         0.0600 
    132 H132       -1.1442  -14.5640  -46.1084 H         1 UNK         0.0800 
    133 H133       -2.6659  -15.1657  -46.6025 H         1 UNK         0.0800 
    134 H134       -4.0025  -13.3300  -48.6724 H         1 UNK         0.0800 
    135 H135       -3.2024  -13.5627  -50.1942 H         1 UNK         0.0800 
    136 H136       -3.2330  -15.7067  -51.3154 H         1 UNK         0.1150 
    137 H137       -5.4729  -18.9162  -49.5698 H         1 UNK         0.1150 
    138 H138       -4.7553  -15.3392  -47.3277 H         1 UNK         0.1150 
    139 H139       -6.9264  -17.4585  -47.1427 H         1 UNK         0.0800 
    140 H140       -5.9704  -18.9111  -47.2266 H         1 UNK         0.0800 
    141 H141       -3.0228  -17.9283  -44.5717 H         1 UNK         0.0800 
    142 H142       -2.9159  -17.3395  -46.2000 H         1 UNK         0.0800 
    143 H143       -3.6700  -19.5182  -47.1018 H         1 UNK         0.0600 
    144 H144       -1.1683  -19.0578  -45.9187 H         1 UNK         0.3000 
    145 H145        0.4056  -22.0794  -47.1238 H         1 UNK         0.0600 
    146 H146        1.9138  -20.3335  -47.9960 H         1 UNK         0.0600 
    147 H147        0.4088  -20.3227  -48.9015 H         1 UNK         0.0600 
    148 H148        0.7100  -19.0841  -47.6902 H         1 UNK         0.0600 
    149 H149        1.4398  -20.0221  -45.4724 H         1 UNK         0.3000 
    150 H150        0.5173  -21.4765  -42.3095 H         1 UNK         0.0600 
    151 H151        2.6352  -22.5809  -43.0590 H         1 UNK         0.0600 
    152 H152        2.9542  -21.2329  -41.9786 H         1 UNK         0.0600 
    153 H153        3.2075  -21.0508  -43.7135 H         1 UNK         0.0600 
    154 H154        1.9167  -19.0876  -42.8754 H         1 UNK         0.3000 
    155 H155       -0.9465  -16.9116  -43.1103 H         1 UNK         0.0600 
    156 H156       -0.3161  -17.1869  -40.7179 H         1 UNK         0.0600 
    157 H157        0.4577  -15.7692  -41.4125 H         1 UNK         0.0600 
    158 H158        1.3883  -17.2430  -41.1513 H         1 UNK         0.0600 
    159 H159        1.8218  -16.3749  -43.4725 H         1 UNK         0.3000 
    160 H160        1.9720  -16.9724  -46.9957 H         1 UNK         0.0600 
    161 H161        2.0330  -14.4258  -45.2915 H         1 UNK         0.0600 
    162 H162        1.1431  -14.6719  -46.7882 H         1 UNK         0.0600 
    163 H163        2.8966  -14.6436  -46.8144 H         1 UNK         0.0600 
    164 H164        3.8532  -16.1670  -44.9489 H         1 UNK         0.3000 
    165 H165        5.1311  -19.4437  -44.3283 H         1 UNK         0.0600 
    166 H166        7.2368  -18.3865  -45.0948 H         1 UNK         0.0600 
    167 H167        6.2139  -18.7561  -46.4738 H         1 UNK         0.0600 
    168 H168        6.3359  -17.0986  -45.8957 H         1 UNK         0.0600 
    169 H169        5.9660  -16.8574  -43.4550 H         1 UNK         0.3000 
    170 H170        3.7976  -16.5384  -40.6677 H         1 UNK         0.0600 
    171 H171        5.5490  -18.1236  -39.8456 H         1 UNK         0.0600 
    172 H172        6.7811  -17.2438  -40.7423 H         1 UNK         0.0600 
    173 H173        5.9286  -16.4659  -39.4080 H         1 UNK         0.0600 
    174 H174        5.9977  -14.9611  -41.4245 H         1 UNK         0.3000 
    175 H175        5.7235  -12.9341  -42.2655 H         1 UNK         0.0600 
    176 H176        4.6722  -13.5183  -45.0922 H         1 UNK         0.0600 
    177 H177        5.9130  -12.3382  -44.6723 H         1 UNK         0.0600 
    178 H178        6.2233  -14.0529  -44.4558 H         1 UNK         0.0600 
    179 H179        3.5604  -11.7908  -43.7561 H         1 UNK         0.3000 
    180 H180        1.3659  -10.9704  -41.2608 H         1 UNK         0.0600 
    181 H181        3.4901   -8.9037  -42.0476 H         1 UNK         0.0600 
    182 H182        3.0422   -9.3301  -40.4006 H         1 UNK         0.0600 
    183 H183        1.8702   -8.5464  -41.4459 H         1 UNK         0.0600 
    184 H184        1.8416   -9.6351  -43.7269 H         1 UNK         0.3000 
    185 H185        0.0822  -10.0489  -45.3033 H         1 UNK         0.0600 
    186 H186        1.3280  -10.8356  -47.3308 H         1 UNK         0.0600 
    187 H187        2.0936  -12.1070  -46.3807 H         1 UNK         0.0600 
    188 H188        2.4372  -10.4181  -46.0381 H         1 UNK         0.0600 
    189 H189       -0.3315  -12.5855  -46.5655 H         1 UNK         0.3000 
    190 H190       -2.4745  -20.5414  -43.8701 H         1 UNK         0.3000 
    191 H191       -4.8366  -21.8032  -42.9682 H         1 UNK         0.0600 
    192 H192       -1.9086  -22.4482  -42.3352 H         1 UNK         0.0600 
    193 H193       -2.9091  -21.2601  -41.5028 H         1 UNK         0.0600 
    194 H194       -3.2971  -22.9703  -41.3901 H         1 UNK         0.0600 
    195 H195       -2.3809  -22.9472  -45.2284 H         1 UNK         0.3000 
    196 H196       -3.4919  -25.6790  -45.3900 H         1 UNK         0.0600 
    197 H197       -1.0163  -25.2983  -45.4128 H         1 UNK         0.0600 
    198 H198       -1.1735  -24.3249  -46.8717 H         1 UNK         0.0600 
    199 H199       -1.5652  -26.0404  -46.9061 H         1 UNK         0.0600 
    200 H200       -4.5965  -22.8096  -46.5173 H         1 UNK         0.3000 
    201 H201       -5.7864  -22.0040  -48.1888 H         1 UNK         0.0600 
    202 H202       -7.3622  -23.4897  -49.3750 H         1 UNK         0.0600 
    203 H203       -7.2752  -23.9562  -47.6848 H         1 UNK         0.0600 
    204 H204       -6.4418  -24.9129  -48.9087 H         1 UNK         0.0600 
    205 H205       -3.0240  -22.2839  -48.6295 H         1 UNK         0.3000 
    206 H206       -1.3645  -22.2230  -50.0528 H         1 UNK         0.0600 
    207 H207       -3.4636  -21.4095  -52.1243 H         1 UNK         0.0600 
    208 H208       -1.7252  -21.1905  -52.2763 H         1 UNK         0.0600 
    209 H209       -2.6010  -20.3334  -51.0239 H         1 UNK         0.0600 
    210 H210       -2.3162  -24.7345  -49.5107 H         1 UNK         0.3000 
    211 H211       -2.1235  -26.8768  -49.9950 H         1 UNK         0.0600 
    212 H212        0.1807  -26.3358  -50.7657 H         1 UNK         0.0600 
    213 H213       -0.5024  -27.6561  -51.7001 H         1 UNK         0.0600 
    214 H214       -0.4085  -26.0467  -52.3993 H         1 UNK         0.0600 
    215 H215       -4.4311  -25.7140  -50.6068 H         1 UNK         0.3000 
    216 H216       -6.3882  -25.8537  -51.6173 H         1 UNK         0.0600 
    217 H217       -7.0472  -27.8637  -52.8764 H         1 UNK         0.0600 
    218 H218       -5.3723  -28.3577  -53.0645 H         1 UNK         0.0600 
    219 H219       -6.1130  -28.3319  -51.4647 H         1 UNK         0.0600 
    220 H220       -4.9768  -23.9276  -52.4697 H         1 UNK         0.3000 
    221 H221       -4.5563  -22.3925  -53.9669 H         1 UNK         0.0600 
    222 H222       -6.2602  -21.9900  -55.7095 H         1 UNK         0.0600 
    223 H223       -6.8647  -23.6343  -55.5428 H         1 UNK         0.0600 
    224 H224       -7.0224  -22.4901  -54.2093 H         1 UNK         0.0600 
    225 H225       -2.6511  -24.2354  -54.1569 H         1 UNK         0.3000 
    226 H226       -2.0817  -24.6156  -57.0823 H         1 UNK         0.0600 
    227 H227       -2.3308  -26.7568  -55.8340 H         1 UNK         0.0600 
    228 H228       -0.6733  -26.5184  -56.3709 H         1 UNK         0.0600 
    229 H229       -1.0987  -26.2453  -54.6856 H         1 UNK         0.0600 
    230 H230       -0.7570  -23.6305  -53.8898 H         1 UNK         0.3000 
    231 H231        1.8460  -22.8858  -54.9925 H         1 UNK         0.0600 
    232 H232        2.2985  -22.2076  -52.6543 H         1 UNK         0.0600 
    233 H233        1.5711  -23.8073  -52.6797 H         1 UNK         0.0600 
    234 H234        0.6036  -22.4038  -52.2303 H         1 UNK         0.0600 
    235 H235       -1.2325  -21.3415  -54.5103 H         1 UNK         0.3000 
    236 H236       -0.6030  -18.8994  -55.7760 H         1 UNK         0.0600 
    237 H237        0.3946  -18.2532  -53.5776 H         1 UNK         0.0600 
    238 H238       -1.1359  -17.4194  -53.7625 H         1 UNK         0.0600 
    239 H239       -1.0271  -18.8329  -52.7196 H         1 UNK         0.0600 
    240 H240       -2.7128  -17.5126  -55.6192 H         1 UNK         0.3000 
    241 H241       -4.8686  -17.2873  -56.0094 H         1 UNK         0.0600 
    242 H242       -4.5793  -20.1228  -58.6238 H         1 UNK         0.3800 
    243 H243       -3.2785  -19.4071  -57.7099 H         1 UNK         0.3800 
    244 H244       -5.3327  -19.5776  -54.0259 H         1 UNK         0.0800 
    245 H245       -6.5960  -18.5971  -54.6964 H         1 UNK         0.0800 
    246 H246       -3.2864  -18.1960  -52.2700 H         1 UNK         0.0800 
    247 H247       -4.6622  -19.1622  -51.7788 H         1 UNK         0.0800 
@<TRIPOS>BOND
     1    1    2 1    
     2    1  127 1    
     3    1  128 1    
     4    1  129 1    
     5    2    3 2    
     6    2    4 am   BACKBONE|DICT|INTERRES
     7    4    5 1    
     8    4  130 1    
     9    5    6 1    
    10    5   65 1    
    11    5  131 1    
    12    6    7 1    
    13    6  132 1    
    14    6  133 1    
    15    7    8 1    
    16    8    9 1    
    17    8  134 1    
    18    8  135 1    
    19    9   10 ar   
    20    9   14 ar   
    21   10   11 ar   
    22   10  136 1    
    23   11   12 ar   
    24   11  126 1    
    25   12   13 ar   
    26   12  137 1    
    27   13   14 ar   
    28   13   15 1    
    29   14  138 1    
    30   15   16 1    
    31   15  139 1    
    32   15  140 1    
    33   16   17 1    
    34   17   18 1    
    35   17  141 1    
    36   17  142 1    
    37   18   19 1    
    38   18   67 1    
    39   18  143 1    
    40   19   20 am   BACKBONE|DICT|INTERRES
    41   19  144 1    
    42   20   21 2    
    43   20   22 1    
    44   22   23 1    
    45   22   24 1    
    46   22  145 1    
    47   23  146 1    
    48   23  147 1    
    49   23  148 1    
    50   24   25 am   BACKBONE|DICT|INTERRES
    51   24  149 1    
    52   25   26 2    
    53   25   27 1    
    54   27   28 1    
    55   27   29 1    
    56   27  150 1    
    57   28  151 1    
    58   28  152 1    
    59   28  153 1    
    60   29   30 am   BACKBONE|DICT|INTERRES
    61   29  154 1    
    62   30   31 2    
    63   30   32 1    
    64   32   33 1    
    65   32   34 1    
    66   32  155 1    
    67   33  156 1    
    68   33  157 1    
    69   33  158 1    
    70   34   35 am   BACKBONE|DICT|INTERRES
    71   34  159 1    
    72   35   36 2    
    73   35   37 1    
    74   37   38 1    
    75   37   39 1    
    76   37  160 1    
    77   38  161 1    
    78   38  162 1    
    79   38  163 1    
    80   39   40 am   BACKBONE|DICT|INTERRES
    81   39  164 1    
    82   40   41 2    
    83   40   42 1    
    84   42   43 1    
    85   42   44 1    
    86   42  165 1    
    87   43  166 1    
    88   43  167 1    
    89   43  168 1    
    90   44   45 am   BACKBONE|DICT|INTERRES
    91   44  169 1    
    92   45   46 2    
    93   45   47 1    
    94   47   48 1    
    95   47   49 1    
    96   47  170 1    
    97   48  171 1    
    98   48  172 1    
    99   48  173 1    
   100   49   50 am   BACKBONE|DICT|INTERRES
   101   49  174 1    
   102   50   51 2    
   103   50   52 1    
   104   52   53 1    
   105   52   54 1    
   106   52  175 1    
   107   53  176 1    
   108   53  177 1    
   109   53  178 1    
   110   54   55 am   BACKBONE|DICT|INTERRES
   111   54  179 1    
   112   55   56 2    
   113   55   57 1    
   114   57   58 1    
   115   57   59 1    
   116   57  180 1    
   117   58  181 1    
   118   58  182 1    
   119   58  183 1    
   120   59   60 am   BACKBONE|DICT|INTERRES
   121   59  184 1    
   122   60   61 2    
   123   60   62 1    
   124   62   63 1    
   125   62   64 1    
   126   62  185 1    
   127   63  186 1    
   128   63  187 1    
   129   63  188 1    
   130   64   65 am   BACKBONE|DICT|INTERRES
   131   64  189 1    
   132   65   66 2    
   133   67   68 2    
   134   67   69 am   BACKBONE|DICT|INTERRES
   135   69   70 1    
   136   69  190 1    
   137   70   71 1    
   138   70   72 1    
   139   70  191 1    
   140   71  192 1    
   141   71  193 1    
   142   71  194 1    
   143   72   73 2    
   144   72   74 am   BACKBONE|DICT|INTERRES
   145   74   75 1    
   146   74  195 1    
   147   75   76 1    
   148   75   77 1    
   149   75  196 1    
   150   76  197 1    
   151   76  198 1    
   152   76  199 1    
   153   77   78 2    
   154   77   79 am   BACKBONE|DICT|INTERRES
   155   79   80 1    
   156   79  200 1    
   157   80   81 1    
   158   80   82 1    
   159   80  201 1    
   160   81  202 1    
   161   81  203 1    
   162   81  204 1    
   163   82   83 2    
   164   82   84 am   BACKBONE|DICT|INTERRES
   165   84   85 1    
   166   84  205 1    
   167   85   86 1    
   168   85   87 1    
   169   85  206 1    
   170   86  207 1    
   171   86  208 1    
   172   86  209 1    
   173   87   88 2    
   174   87   89 am   BACKBONE|DICT|INTERRES
   175   89   90 1    
   176   89  210 1    
   177   90   91 1    
   178   90   92 1    
   179   90  211 1    
   180   91  212 1    
   181   91  213 1    
   182   91  214 1    
   183   92   93 2    
   184   92   94 am   BACKBONE|DICT|INTERRES
   185   94   95 1    
   186   94  215 1    
   187   95   96 1    
   188   95   97 1    
   189   95  216 1    
   190   96  217 1    
   191   96  218 1    
   192   96  219 1    
   193   97   98 2    
   194   97   99 am   BACKBONE|DICT|INTERRES
   195   99  100 1    
   196   99  220 1    
   197  100  101 1    
   198  100  102 1    
   199  100  221 1    
   200  101  222 1    
   201  101  223 1    
   202  101  224 1    
   203  102  103 2    
   204  102  104 am   BACKBONE|DICT|INTERRES
   205  104  105 1    
   206  104  225 1    
   207  105  106 1    
   208  105  107 1    
   209  105  226 1    
   210  106  227 1    
   211  106  228 1    
   212  106  229 1    
   213  107  108 2    
   214  107  109 am   BACKBONE|DICT|INTERRES
   215  109  110 1    
   216  109  230 1    
   217  110  111 1    
   218  110  112 1    
   219  110  231 1    
   220  111  232 1    
   221  111  233 1    
   222  111  234 1    
   223  112  113 2    
   224  112  114 am   BACKBONE|DICT|INTERRES
   225  114  115 1    
   226  114  235 1    
   227  115  116 1    
   228  115  117 1    
   229  115  236 1    
   230  116  237 1    
   231  116  238 1    
   232  116  239 1    
   233  117  118 2    
   234  117  119 am   BACKBONE|DICT|INTERRES
   235  119  120 1    
   236  119  240 1    
   237  120  121 1    
   238  120  124 1    
   239  120  241 1    
   240  121  122 am   BACKBONE|DICT|INTERRES
   241  121  123 2    
   242  122  242 1    
   243  122  243 1    
   244  124  125 1    
   245  124  244 1    
   246  124  245 1    
   247  125  126 1    
   248  126  246 1    
   249  126  247 1    
@<TRIPOS>SUBSTRUCTURE
     1 UNK         1 GROUP             0       ****    0 ROOT    
