@<TRIPOS>MOLECULE
3R540
247   249    1
SMALL
USER_CHARGES


@<TRIPOS>ATOM
      1 CA          2.0695  -11.9701  -50.4753 C.3       0 UNK        -0.1800 
      2 C           2.9325  -11.4631  -49.3288 C.2       0 UNK         0.5000 
      3 O           3.1123  -10.2538  -49.1789 O.2       0 UNK        -0.5000 
      4 N           3.4619  -12.3807  -48.5119 N.am      1 UNK        -0.5000 
      5 CA          4.2882  -12.1118  -47.3315 C.3       1 UNK         0.1400 
      6 C6          5.2501  -13.2919  -47.0125 C.3       23 UNK        -0.0398 
      7 S7          4.4509  -14.9352  -46.9209 S.3       23 UNK        -0.2404 
      8 C8          4.8439  -15.6131  -48.5612 C.3       23 UNK        -0.0205 
      9 C9          3.9420  -16.7895  -48.8956 C.ar      23 UNK        -0.0193 
     10 C10         2.6624  -16.5638  -49.4093 C.ar      23 UNK        -0.1150 
     11 C11         1.8326  -17.6379  -49.7367 C.ar      23 UNK        -0.0193 
     12 C12         2.2956  -18.9436  -49.5612 C.ar      23 UNK        -0.1150 
     13 C13         3.5701  -19.1892  -49.0328 C.ar      23 UNK        -0.0193 
     14 C14         4.3855  -18.1011  -48.7041 C.ar      23 UNK        -0.1150 
     15 C15         4.1165  -20.6036  -48.8224 C.3       23 UNK        -0.0205 
     16 S16         2.8663  -21.9302  -48.6955 S.3       23 UNK        -0.2404 
     17 C17         1.9422  -21.3830  -47.2217 C.3       23 UNK        -0.0398 
     18 CA          0.7746  -22.3109  -46.8198 C.3       11 UNK         0.1400 
     19 N           0.2084  -21.8939  -45.5380 N.am      11 UNK        -0.5000 
     20 C          -0.6689  -22.5958  -44.8116 C.2       10 UNK         0.5000 
     21 O          -1.0644  -23.7194  -45.1174 O.2       10 UNK        -0.5000 
     22 CA         -1.2323  -21.9030  -43.5574 C.3       10 UNK         0.1400 
     23 CB         -0.2566  -22.0312  -42.3787 C.3       10 UNK        -0.1800 
     24 N          -1.5468  -20.4911  -43.7907 N.am      10 UNK        -0.5000 
     25 C          -2.4819  -20.0631  -44.6517 C.2       9 UNK         0.5000 
     26 O          -3.2079  -20.8184  -45.2970 O.2       9 UNK        -0.5000 
     27 CA         -2.6053  -18.5437  -44.8602 C.3       9 UNK         0.1400 
     28 CB         -3.4107  -17.9015  -43.7213 C.3       9 UNK        -0.1800 
     29 N          -1.3087  -17.8783  -44.9839 N.am      9 UNK        -0.5000 
     30 C          -0.4273  -18.0912  -45.9723 C.2       8 UNK         0.5000 
     31 O          -0.6254  -18.8590  -46.9128 O.2       8 UNK        -0.5000 
     32 CA          0.9270  -17.3665  -45.8557 C.3       8 UNK         0.1400 
     33 CB          0.7883  -15.8887  -46.2538 C.3       8 UNK        -0.1800 
     34 N           1.4889  -17.4701  -44.5069 N.am      8 UNK        -0.5000 
     35 C           1.8092  -18.6257  -43.9051 C.2       7 UNK         0.5000 
     36 O           1.7275  -19.7266  -44.4473 O.2       7 UNK        -0.5000 
     37 CA          2.2322  -18.5487  -42.4301 C.3       7 UNK         0.1400 
     38 CB          3.7286  -18.2260  -42.3003 C.3       7 UNK        -0.1800 
     39 N           1.4367  -17.5639  -41.6978 N.am      7 UNK        -0.5000 
     40 C           0.1540  -17.7434  -41.3506 C.2       6 UNK         0.5000 
     41 O          -0.4737  -18.7784  -41.5747 O.2       6 UNK        -0.5000 
     42 CA         -0.5590  -16.5553  -40.6766 C.3       6 UNK         0.1400 
     43 CB         -0.2859  -16.5469  -39.1653 C.3       6 UNK        -0.1800 
     44 N          -0.1709  -15.2642  -41.2469 N.am      6 UNK        -0.5000 
     45 C          -0.4498  -14.8787  -42.4998 C.2       5 UNK         0.5000 
     46 O          -1.1200  -15.5500  -43.2829 O.2       5 UNK        -0.5000 
     47 CA          0.1569  -13.5445  -42.9769 C.3       5 UNK         0.1400 
     48 CB         -0.8246  -12.3914  -42.7224 C.3       5 UNK        -0.1800 
     49 N           1.4589  -13.2174  -42.3845 N.am      5 UNK        -0.5000 
     50 C           2.5527  -13.9930  -42.4403 C.2       4 UNK         0.5000 
     51 O           2.5571  -15.1206  -42.9362 O.2       4 UNK        -0.5000 
     52 CA          3.8442  -13.3956  -41.8555 C.3       4 UNK         0.1400 
     53 CB          5.0943  -14.2331  -42.1815 C.3       4 UNK        -0.1800 
     54 N           4.0185  -12.0478  -42.3841 N.am      4 UNK        -0.5000 
     55 C           4.3294  -10.9534  -41.6786 C.2       3 UNK         0.5000 
     56 O           4.5508  -10.9640  -40.4672 O.2       3 UNK        -0.5000 
     57 CA          4.4011   -9.6142  -42.4465 C.3       3 UNK         0.1400 
     58 CB          5.8645   -9.2220  -42.7027 C.3       3 UNK        -0.1800 
     59 N           3.6887   -9.6315  -43.7270 N.am      3 UNK        -0.5000 
     60 C           2.3598   -9.7343  -43.8674 C.2       2 UNK         0.5000 
     61 O           1.5751   -9.7161  -42.9190 O.2       2 UNK        -0.5000 
     62 CA          1.8153   -9.9360  -45.2978 C.3       2 UNK         0.1400 
     63 CB          1.2806   -8.6109  -45.8607 C.3       2 UNK        -0.1800 
     64 N           2.7705  -10.5073  -46.2566 N.am      2 UNK        -0.5000 
     65 C           3.4058  -11.6819  -46.1379 C.2       1 UNK         0.5000 
     66 O           3.3050  -12.4004  -45.1455 O.2       1 UNK        -0.5000 
     67 C          -0.3142  -22.4275  -47.9115 C.2       11 UNK         0.5000 
     68 O          -0.3433  -23.4290  -48.6257 O.2       11 UNK        -0.5000 
     69 N          -1.2267  -21.4476  -47.9867 N.am      12 UNK        -0.5000 
     70 CA         -2.3891  -21.4655  -48.8796 C.3       12 UNK         0.1400 
     71 CB         -3.1212  -20.1168  -48.7989 C.3       12 UNK        -0.1800 
     72 C          -3.3507  -22.6329  -48.5802 C.2       12 UNK         0.5000 
     73 O          -3.7921  -23.3192  -49.5033 O.2       12 UNK        -0.5000 
     74 N          -3.6157  -22.8751  -47.2885 N.am      13 UNK        -0.5000 
     75 CA         -4.4164  -23.9995  -46.8020 C.3       13 UNK         0.1400 
     76 CB         -4.6818  -23.8303  -45.2987 C.3       13 UNK        -0.1800 
     77 C          -3.7786  -25.3714  -47.0947 C.2       13 UNK         0.5000 
     78 O          -4.5075  -26.3248  -47.3662 O.2       13 UNK        -0.5000 
     79 N          -2.4411  -25.4466  -47.0533 N.am      14 UNK        -0.5000 
     80 CA         -1.6660  -26.6297  -47.4261 C.3       14 UNK         0.1400 
     81 CB         -0.2375  -26.5095  -46.8732 C.3       14 UNK        -0.1800 
     82 C          -1.6501  -26.8684  -48.9479 C.2       14 UNK         0.5000 
     83 O          -1.7277  -28.0214  -49.3741 O.2       14 UNK        -0.5000 
     84 N          -1.5606  -25.7861  -49.7372 N.am      15 UNK        -0.5000 
     85 CA         -1.6245  -25.8082  -51.2013 C.3       15 UNK         0.1400 
     86 CB         -1.2601  -24.4254  -51.7637 C.3       15 UNK        -0.1800 
     87 C          -2.9990  -26.2761  -51.7140 C.2       15 UNK         0.5000 
     88 O          -3.0551  -27.1250  -52.6037 O.2       15 UNK        -0.5000 
     89 N          -4.0691  -25.7481  -51.1017 N.am      16 UNK        -0.5000 
     90 CA         -5.4699  -26.1937  -51.1179 C.3       16 UNK         0.1400 
     91 CB         -5.5803  -27.6088  -50.5182 C.3       16 UNK        -0.1800 
     92 C          -6.2285  -26.1455  -52.4609 C.2       16 UNK         0.5000 
     93 O          -7.4547  -26.0317  -52.4284 O.2       16 UNK        -0.5000 
     94 N          -5.5267  -26.2725  -53.5949 N.am      17 UNK        -0.5000 
     95 CA         -6.0612  -26.4426  -54.9496 C.3       17 UNK         0.1400 
     96 CB         -4.8999  -26.4728  -55.9561 C.3       17 UNK        -0.1800 
     97 C          -7.1215  -25.3931  -55.3375 C.2       17 UNK         0.5000 
     98 O          -6.7929  -24.2188  -55.5179 O.2       17 UNK        -0.5000 
     99 N          -8.3827  -25.8461  -55.4048 N.am      18 UNK        -0.5000 
    100 CA        -9.6002  -25.0725  -55.6814 C.3       18 UNK         0.1400 
    101 CB        -9.5928  -24.5657  -57.1391 C.3       18 UNK        -0.1800 
    102 C         -9.8724  -23.9370  -54.6679 C.2       18 UNK         0.5000 
    103 O        -10.5756  -22.9834  -55.0036 O.2       18 UNK        -0.5000 
    104 N         -9.2822  -24.0303  -53.4651 N.am      19 UNK        -0.5000 
    105 CA        -9.2698  -23.0706  -52.3498 C.3       19 UNK         0.1400 
    106 CB       -10.6932  -22.8256  -51.8138 C.3       19 UNK        -0.1800 
    107 C         -8.5466  -21.7343  -52.6343 C.2       19 UNK         0.5000 
    108 O         -8.0821  -21.0915  -51.6928 O.2       19 UNK        -0.5000 
    109 N         -8.4583  -21.3358  -53.9078 N.am      20 UNK        -0.5000 
    110 CA        -7.8718  -20.0853  -54.3828 C.3       20 UNK         0.1400 
    111 CB        -8.3921  -19.8166  -55.8036 C.3       20 UNK        -0.1800 
    112 C         -6.3322  -20.0614  -54.3654 C.2       20 UNK         0.5000 
    113 O         -5.7643  -18.9709  -54.4451 O.2       20 UNK        -0.5000 
    114 N         -5.6895  -21.2376  -54.2862 N.am      21 UNK        -0.5000 
    115 CA        -4.2371  -21.4450  -54.2858 C.3       21 UNK         0.1400 
    116 CB        -3.9437  -22.9401  -54.0856 C.3       21 UNK        -0.1800 
    117 C         -3.4967  -20.5961  -53.2337 C.2       21 UNK         0.5000 
    118 O         -3.4929  -20.9486  -52.0550 O.2       21 UNK        -0.5000 
    119 N         -2.9060  -19.4838  -53.6880 N.am      22 UNK        -0.5000 
    120 CA        -2.2460  -18.4587  -52.8633 C.3       22 UNK         0.1400 
    121 C         -3.2106  -17.6582  -51.9300 C.2       22 UNK         0.5000 
    122 N         -4.5075  -17.6153  -52.2111 N.am      22 UNK        -0.7600 
    123 O         -2.7869  -17.0414  -50.9573 O.2       22 UNK        -0.5000 
    124 C124       -0.9759  -19.0032  -52.1481 C.3       23 UNK        -0.0398 
    125 S125        0.3584  -17.7584  -52.0614 S.3       23 UNK        -0.2404 
    126 C126        0.4347  -17.3954  -50.2788 C.3       23 UNK        -0.0205 
    127 H127        1.0587  -11.5718  -50.3880 H         1 UNK         0.0600 
    128 H128        2.0067  -13.0586  -50.4858 H         1 UNK         0.0600 
    129 H129        2.4844  -11.6445  -51.4292 H         1 UNK         0.0600 
    130 H130        3.2400  -13.3552  -48.6525 H         1 UNK         0.3000 
    131 H131        4.9261  -11.2537  -47.5547 H         1 UNK         0.0600 
    132 H132        6.0348  -13.3286  -47.7692 H         1 UNK         0.0800 
    133 H133        5.7727  -13.1137  -46.0711 H         1 UNK         0.0800 
    134 H134        4.7305  -14.8429  -49.3252 H         1 UNK         0.0800 
    135 H135        5.8924  -15.9141  -48.5839 H         1 UNK         0.0800 
    136 H136        2.3124  -15.5517  -49.5524 H         1 UNK         0.1150 
    137 H137        1.6483  -19.7627  -49.8389 H         1 UNK         0.1150 
    138 H138        5.3746  -18.2751  -48.3037 H         1 UNK         0.1150 
    139 H139        4.7828  -20.8393  -49.6530 H         1 UNK         0.0800 
    140 H140        4.7290  -20.6280  -47.9196 H         1 UNK         0.0800 
    141 H141        1.5756  -20.3680  -47.3717 H         1 UNK         0.0800 
    142 H142        2.6569  -21.3229  -46.3998 H         1 UNK         0.0800 
    143 H143        1.1871  -23.3111  -46.6713 H         1 UNK         0.0600 
    144 H144        0.5242  -20.9954  -45.1819 H         1 UNK         0.3000 
    145 H145       -2.1597  -22.4112  -43.2859 H         1 UNK         0.0600 
    146 H146       -0.6802  -21.6062  -41.4686 H         1 UNK         0.0600 
    147 H147       -0.0280  -23.0777  -42.1734 H         1 UNK         0.0600 
    148 H148        0.6863  -21.5221  -42.5784 H         1 UNK         0.0600 
    149 H149       -1.0215  -19.8103  -43.2522 H         1 UNK         0.3000 
    150 H150       -3.1497  -18.3812  -45.7926 H         1 UNK         0.0600 
    151 H151       -4.3878  -18.3751  -43.6177 H         1 UNK         0.0600 
    152 H152       -3.5815  -16.8414  -43.9095 H         1 UNK         0.0600 
    153 H153       -2.8975  -17.9919  -42.7636 H         1 UNK         0.0600 
    154 H154       -1.0880  -17.1848  -44.2742 H         1 UNK         0.3000 
    155 H155        1.6305  -17.8413  -46.5431 H         1 UNK         0.0600 
    156 H156        0.5468  -15.7966  -47.3130 H         1 UNK         0.0600 
    157 H157        1.7121  -15.3392  -46.0788 H         1 UNK         0.0600 
    158 H158       -0.0028  -15.3887  -45.6968 H         1 UNK         0.0600 
    159 H159        1.6355  -16.6056  -43.9962 H         1 UNK         0.3000 
    160 H160        2.0624  -19.5284  -41.9789 H         1 UNK         0.0600 
    161 H161        3.9898  -17.2911  -42.7956 H         1 UNK         0.0600 
    162 H162        4.3324  -19.0118  -42.7557 H         1 UNK         0.0600 
    163 H163        4.0285  -18.1493  -41.2552 H         1 UNK         0.0600 
    164 H164        1.8544  -16.6504  -41.5787 H         1 UNK         0.3000 
    165 H165       -1.6329  -16.6836  -40.8283 H         1 UNK         0.0600 
    166 H166       -0.8483  -15.7568  -38.6674 H         1 UNK         0.0600 
    167 H167       -0.5838  -17.4926  -38.7104 H         1 UNK         0.0600 
    168 H168        0.7720  -16.3961  -38.9468 H         1 UNK         0.0600 
    169 H169        0.3851  -14.6530  -40.6675 H         1 UNK         0.3000 
    170 H170        0.3097  -13.6260  -44.0546 H         1 UNK         0.0600 
    171 H171       -1.8057  -12.6111  -43.1458 H         1 UNK         0.0600 
    172 H172       -0.9603  -12.2064  -41.6562 H         1 UNK         0.0600 
    173 H173       -0.4771  -11.4671  -43.1827 H         1 UNK         0.0600 
    174 H174        1.5483  -12.2951  -41.9817 H         1 UNK         0.3000 
    175 H175        3.7164  -13.3679  -40.7717 H         1 UNK         0.0600 
    176 H176        5.2360  -14.3360  -43.2585 H         1 UNK         0.0600 
    177 H177        5.9933  -13.7771  -41.7669 H         1 UNK         0.0600 
    178 H178        5.0151  -15.2357  -41.7603 H         1 UNK         0.0600 
    179 H179        3.8139  -11.9592  -43.3772 H         1 UNK         0.3000 
    180 H180        3.9456   -8.8492  -41.8143 H         1 UNK         0.0600 
    181 H181        6.3687   -9.9470  -43.3430 H         1 UNK         0.0600 
    182 H182        6.4237   -9.1650  -41.7679 H         1 UNK         0.0600 
    183 H183        5.9338   -8.2446  -43.1806 H         1 UNK         0.0600 
    184 H184        4.2565   -9.6488  -44.5610 H         1 UNK         0.3000 
    185 H185        0.9804  -10.6354  -45.2225 H         1 UNK         0.0600 
    186 H186        0.5398   -8.1707  -45.1917 H         1 UNK         0.0600 
    187 H187        2.0796   -7.8804  -45.9933 H         1 UNK         0.0600 
    188 H188        0.7968   -8.7588  -46.8264 H         1 UNK         0.0600 
    189 H189        2.8827  -10.0093  -47.1335 H         1 UNK         0.3000 
    190 H190       -1.1144  -20.6218  -47.4039 H         1 UNK         0.3000 
    191 H191       -2.0181  -21.5930  -49.8980 H         1 UNK         0.0600 
    192 H192       -2.4594  -19.2902  -49.0560 H         1 UNK         0.0600 
    193 H193       -3.9611  -20.0875  -49.4940 H         1 UNK         0.0600 
    194 H194       -3.5160  -19.9280  -47.8014 H         1 UNK         0.0600 
    195 H195       -3.2579  -22.2326  -46.5864 H         1 UNK         0.3000 
    196 H196       -5.3771  -23.9681  -47.3200 H         1 UNK         0.0600 
    197 H197       -5.3070  -24.6393  -44.9190 H         1 UNK         0.0600 
    198 H198       -5.2005  -22.8939  -45.0929 H         1 UNK         0.0600 
    199 H199       -3.7562  -23.8330  -44.7233 H         1 UNK         0.0600 
    200 H200       -1.9173  -24.6368  -46.7395 H         1 UNK         0.3000 
    201 H201       -2.1312  -27.5005  -46.9592 H         1 UNK         0.0600 
    202 H202       -0.2432  -26.3977  -45.7888 H         1 UNK         0.0600 
    203 H203        0.2901  -25.6540  -47.2941 H         1 UNK         0.0600 
    204 H204        0.3462  -27.4009  -47.1057 H         1 UNK         0.0600 
    205 H205       -1.4167  -24.8793  -49.3016 H         1 UNK         0.3000 
    206 H206       -0.8767  -26.5218  -51.5531 H         1 UNK         0.0600 
    207 H207       -0.2798  -24.1024  -51.4127 H         1 UNK         0.0600 
    208 H208       -1.2223  -24.4494  -52.8530 H         1 UNK         0.0600 
    209 H209       -1.9845  -23.6630  -51.4760 H         1 UNK         0.0600 
    210 H210       -3.8875  -24.9857  -50.4518 H         1 UNK         0.3000 
    211 H211       -5.9929  -25.5102  -50.4470 H         1 UNK         0.0600 
    212 H212       -5.1106  -28.3564  -51.1582 H         1 UNK         0.0600 
    213 H213       -6.6237  -27.8992  -50.3886 H         1 UNK         0.0600 
    214 H214       -5.1046  -27.6658  -49.5402 H         1 UNK         0.0600 
    215 H215       -4.5288  -26.4273  -53.4851 H         1 UNK         0.3000 
    216 H216       -6.5329  -27.4268  -54.9750 H         1 UNK         0.0600 
    217 H217       -5.2685  -26.6144  -56.9728 H         1 UNK         0.0600 
    218 H218       -4.2156  -27.2941  -55.7419 H         1 UNK         0.0600 
    219 H219       -4.3233  -25.5490  -55.9435 H         1 UNK         0.0600 
    220 H220       -8.5412  -26.8211  -55.1909 H         1 UNK         0.3000 
    221 H221      -10.4330  -25.7694  -55.5786 H         1 UNK         0.0600 
    222 H222       -8.8276  -23.8053  -57.2991 H         1 UNK         0.0600 
    223 H223       -9.4075  -25.3803  -57.8391 H         1 UNK         0.0600 
    224 H224      -10.5531  -24.1238  -57.4073 H         1 UNK         0.0600 
    225 H225       -8.6994  -24.8478  -53.3014 H         1 UNK         0.3000 
    226 H226       -8.7012  -23.5580  -51.5564 H         1 UNK         0.0600 
    227 H227      -11.1844  -23.7638  -51.5560 H         1 UNK         0.0600 
    228 H228      -10.6681  -22.2137  -50.9113 H         1 UNK         0.0600 
    229 H229      -11.3192  -22.3059  -52.5395 H         1 UNK         0.0600 
    230 H230       -8.9289  -21.9068  -54.6000 H         1 UNK         0.3000 
    231 H231       -8.2168  -19.2776  -53.7341 H         1 UNK         0.0600 
    232 H232       -8.0908  -20.6037  -56.4962 H         1 UNK         0.0600 
    233 H233       -8.0079  -18.8720  -56.1911 H         1 UNK         0.0600 
    234 H234       -9.4805  -19.7545  -55.8200 H         1 UNK         0.0600 
    235 H235       -6.2543  -22.0753  -54.2540 H         1 UNK         0.3000 
    236 H236       -3.8682  -21.1653  -55.2743 H         1 UNK         0.0600 
    237 H237       -4.3450  -23.5258  -54.9089 H         1 UNK         0.0600 
    238 H238       -2.8703  -23.1266  -54.0533 H         1 UNK         0.0600 
    239 H239       -4.3747  -23.3198  -53.1580 H         1 UNK         0.0600 
    240 H240       -3.0089  -19.2512  -54.6656 H         1 UNK         0.3000 
    241 H241       -1.9168  -17.7200  -53.5947 H         1 UNK         0.0600 
    242 H242       -5.1245  -17.0892  -51.6140 H         1 UNK         0.3800 
    243 H243       -4.8812  -18.1009  -53.0225 H         1 UNK         0.3800 
    244 H244       -1.2164  -19.4097  -51.1656 H         1 UNK         0.0800 
    245 H245       -0.5640  -19.8428  -52.7096 H         1 UNK         0.0800 
    246 H246        0.1322  -16.3594  -50.1198 H         1 UNK         0.0800 
    247 H247       -0.2755  -18.0018  -49.7154 H         1 UNK         0.0800 
@<TRIPOS>BOND
     1    1    2 1    
     2    1  127 1    
     3    1  128 1    
     4    1  129 1    
     5    2    3 2    
     6    2    4 am   BACKBONE|DICT|INTERRES
     7    4    5 1    
     8    4  130 1    
     9    5    6 1    
    10    5   65 1    
    11    5  131 1    
    12    6    7 1    
    13    6  132 1    
    14    6  133 1    
    15    7    8 1    
    16    8    9 1    
    17    8  134 1    
    18    8  135 1    
    19    9   10 ar   
    20    9   14 ar   
    21   10   11 ar   
    22   10  136 1    
    23   11   12 ar   
    24   11  126 1    
    25   12   13 ar   
    26   12  137 1    
    27   13   14 ar   
    28   13   15 1    
    29   14  138 1    
    30   15   16 1    
    31   15  139 1    
    32   15  140 1    
    33   16   17 1    
    34   17   18 1    
    35   17  141 1    
    36   17  142 1    
    37   18   19 1    
    38   18   67 1    
    39   18  143 1    
    40   19   20 am   BACKBONE|DICT|INTERRES
    41   19  144 1    
    42   20   21 2    
    43   20   22 1    
    44   22   23 1    
    45   22   24 1    
    46   22  145 1    
    47   23  146 1    
    48   23  147 1    
    49   23  148 1    
    50   24   25 am   BACKBONE|DICT|INTERRES
    51   24  149 1    
    52   25   26 2    
    53   25   27 1    
    54   27   28 1    
    55   27   29 1    
    56   27  150 1    
    57   28  151 1    
    58   28  152 1    
    59   28  153 1    
    60   29   30 am   BACKBONE|DICT|INTERRES
    61   29  154 1    
    62   30   31 2    
    63   30   32 1    
    64   32   33 1    
    65   32   34 1    
    66   32  155 1    
    67   33  156 1    
    68   33  157 1    
    69   33  158 1    
    70   34   35 am   BACKBONE|DICT|INTERRES
    71   34  159 1    
    72   35   36 2    
    73   35   37 1    
    74   37   38 1    
    75   37   39 1    
    76   37  160 1    
    77   38  161 1    
    78   38  162 1    
    79   38  163 1    
    80   39   40 am   BACKBONE|DICT|INTERRES
    81   39  164 1    
    82   40   41 2    
    83   40   42 1    
    84   42   43 1    
    85   42   44 1    
    86   42  165 1    
    87   43  166 1    
    88   43  167 1    
    89   43  168 1    
    90   44   45 am   BACKBONE|DICT|INTERRES
    91   44  169 1    
    92   45   46 2    
    93   45   47 1    
    94   47   48 1    
    95   47   49 1    
    96   47  170 1    
    97   48  171 1    
    98   48  172 1    
    99   48  173 1    
   100   49   50 am   BACKBONE|DICT|INTERRES
   101   49  174 1    
   102   50   51 2    
   103   50   52 1    
   104   52   53 1    
   105   52   54 1    
   106   52  175 1    
   107   53  176 1    
   108   53  177 1    
   109   53  178 1    
   110   54   55 am   BACKBONE|DICT|INTERRES
   111   54  179 1    
   112   55   56 2    
   113   55   57 1    
   114   57   58 1    
   115   57   59 1    
   116   57  180 1    
   117   58  181 1    
   118   58  182 1    
   119   58  183 1    
   120   59   60 am   BACKBONE|DICT|INTERRES
   121   59  184 1    
   122   60   61 2    
   123   60   62 1    
   124   62   63 1    
   125   62   64 1    
   126   62  185 1    
   127   63  186 1    
   128   63  187 1    
   129   63  188 1    
   130   64   65 am   BACKBONE|DICT|INTERRES
   131   64  189 1    
   132   65   66 2    
   133   67   68 2    
   134   67   69 am   BACKBONE|DICT|INTERRES
   135   69   70 1    
   136   69  190 1    
   137   70   71 1    
   138   70   72 1    
   139   70  191 1    
   140   71  192 1    
   141   71  193 1    
   142   71  194 1    
   143   72   73 2    
   144   72   74 am   BACKBONE|DICT|INTERRES
   145   74   75 1    
   146   74  195 1    
   147   75   76 1    
   148   75   77 1    
   149   75  196 1    
   150   76  197 1    
   151   76  198 1    
   152   76  199 1    
   153   77   78 2    
   154   77   79 am   BACKBONE|DICT|INTERRES
   155   79   80 1    
   156   79  200 1    
   157   80   81 1    
   158   80   82 1    
   159   80  201 1    
   160   81  202 1    
   161   81  203 1    
   162   81  204 1    
   163   82   83 2    
   164   82   84 am   BACKBONE|DICT|INTERRES
   165   84   85 1    
   166   84  205 1    
   167   85   86 1    
   168   85   87 1    
   169   85  206 1    
   170   86  207 1    
   171   86  208 1    
   172   86  209 1    
   173   87   88 2    
   174   87   89 am   BACKBONE|DICT|INTERRES
   175   89   90 1    
   176   89  210 1    
   177   90   91 1    
   178   90   92 1    
   179   90  211 1    
   180   91  212 1    
   181   91  213 1    
   182   91  214 1    
   183   92   93 2    
   184   92   94 am   BACKBONE|DICT|INTERRES
   185   94   95 1    
   186   94  215 1    
   187   95   96 1    
   188   95   97 1    
   189   95  216 1    
   190   96  217 1    
   191   96  218 1    
   192   96  219 1    
   193   97   98 2    
   194   97   99 am   BACKBONE|DICT|INTERRES
   195   99  100 1    
   196   99  220 1    
   197  100  101 1    
   198  100  102 1    
   199  100  221 1    
   200  101  222 1    
   201  101  223 1    
   202  101  224 1    
   203  102  103 2    
   204  102  104 am   BACKBONE|DICT|INTERRES
   205  104  105 1    
   206  104  225 1    
   207  105  106 1    
   208  105  107 1    
   209  105  226 1    
   210  106  227 1    
   211  106  228 1    
   212  106  229 1    
   213  107  108 2    
   214  107  109 am   BACKBONE|DICT|INTERRES
   215  109  110 1    
   216  109  230 1    
   217  110  111 1    
   218  110  112 1    
   219  110  231 1    
   220  111  232 1    
   221  111  233 1    
   222  111  234 1    
   223  112  113 2    
   224  112  114 am   BACKBONE|DICT|INTERRES
   225  114  115 1    
   226  114  235 1    
   227  115  116 1    
   228  115  117 1    
   229  115  236 1    
   230  116  237 1    
   231  116  238 1    
   232  116  239 1    
   233  117  118 2    
   234  117  119 am   BACKBONE|DICT|INTERRES
   235  119  120 1    
   236  119  240 1    
   237  120  121 1    
   238  120  124 1    
   239  120  241 1    
   240  121  122 am   BACKBONE|DICT|INTERRES
   241  121  123 2    
   242  122  242 1    
   243  122  243 1    
   244  124  125 1    
   245  124  244 1    
   246  124  245 1    
   247  125  126 1    
   248  126  246 1    
   249  126  247 1    
@<TRIPOS>SUBSTRUCTURE
     1 UNK         1 GROUP             0       ****    0 ROOT    
