@<TRIPOS>MOLECULE
3R540
247   249    1
SMALL
USER_CHARGES


@<TRIPOS>ATOM
      1 CA          1.2710  -10.5762  -51.6405 C.3       0 UNK        -0.1800 
      2 C           1.4333  -11.3302  -50.3279 C.2       0 UNK         0.5000 
      3 O           2.3946  -11.0889  -49.5971 O.2       0 UNK        -0.5000 
      4 N           0.5036  -12.2460  -50.0326 N.am      1 UNK        -0.5000 
      5 CA          0.4639  -13.0289  -48.7941 C.3       1 UNK         0.1400 
      6 C6         -0.4887  -14.2418  -48.9106 C.3       23 UNK        -0.0398 
      7 S7          0.1062  -15.4877  -50.1013 S.3       23 UNK        -0.2404 
      8 C8         -1.1498  -15.3785  -51.4207 C.3       23 UNK        -0.0205 
      9 C9         -2.5793  -15.7025  -50.9861 C.ar      23 UNK        -0.0193 
     10 C10        -3.6420  -15.0793  -51.6465 C.ar      23 UNK        -0.1150 
     11 C11        -4.9684  -15.3842  -51.3241 C.ar      23 UNK        -0.0193 
     12 C12        -5.2245  -16.3064  -50.3051 C.ar      23 UNK        -0.1150 
     13 C13        -4.1775  -16.9274  -49.6165 C.ar      23 UNK        -0.0193 
     14 C14        -2.8577  -16.6216  -49.9665 C.ar      23 UNK        -0.1150 
     15 C15        -4.4962  -17.8950  -48.4786 C.3       23 UNK        -0.0205 
     16 S16        -3.4472  -19.3855  -48.4641 S.3       23 UNK        -0.2404 
     17 C17        -4.3741  -20.4214  -47.2904 C.3       23 UNK        -0.0398 
     18 CA         -3.5716  -21.6700  -46.8635 C.3       11 UNK         0.1400 
     19 N          -2.3590  -21.3431  -46.1087 N.am      11 UNK        -0.5000 
     20 C          -1.4103  -22.2253  -45.7601 C.2       10 UNK         0.5000 
     21 O          -1.4520  -23.4166  -46.0687 O.2       10 UNK        -0.5000 
     22 CA         -0.2542  -21.7191  -44.8763 C.3       10 UNK         0.1400 
     23 CB          1.0048  -21.4948  -45.7268 C.3       10 UNK        -0.1800 
     24 N          -0.5581  -20.4945  -44.1305 N.am      10 UNK        -0.5000 
     25 C          -1.5467  -20.3455  -43.2351 C.2       9 UNK         0.5000 
     26 O          -2.3230  -21.2470  -42.9167 O.2       9 UNK        -0.5000 
     27 CA         -1.7359  -18.9352  -42.6473 C.3       9 UNK         0.1400 
     28 CB         -0.8403  -18.7278  -41.4166 C.3       9 UNK        -0.1800 
     29 N          -1.4693  -17.8868  -43.6357 N.am      9 UNK        -0.5000 
     30 C          -2.2660  -17.6115  -44.6797 C.2       8 UNK         0.5000 
     31 O          -3.3308  -18.1893  -44.8906 O.2       8 UNK        -0.5000 
     32 CA         -1.7917  -16.5204  -45.6578 C.3       8 UNK         0.1400 
     33 CB         -2.4206  -15.1663  -45.3002 C.3       8 UNK        -0.1800 
     34 N          -0.3321  -16.4001  -45.6824 N.am      8 UNK        -0.5000 
     35 C           0.4610  -17.2449  -46.3583 C.2       7 UNK         0.5000 
     36 O           0.0428  -18.1579  -47.0682 O.2       7 UNK        -0.5000 
     37 CA          1.9758  -17.0652  -46.1707 C.3       7 UNK         0.1400 
     38 CB          2.5239  -15.9709  -47.0971 C.3       7 UNK        -0.1800 
     39 N           2.3305  -16.7407  -44.7912 N.am      7 UNK        -0.5000 
     40 C           2.2415  -17.5824  -43.7542 C.2       6 UNK         0.5000 
     41 O           1.7781  -18.7182  -43.8522 O.2       6 UNK        -0.5000 
     42 CA          2.6925  -17.0677  -42.3708 C.3       6 UNK         0.1400 
     43 CB          3.6510  -18.0519  -41.6722 C.3       6 UNK        -0.1800 
     44 N           3.2324  -15.7023  -42.3798 N.am      6 UNK        -0.5000 
     45 C           4.3730  -15.2496  -42.9255 C.2       5 UNK         0.5000 
     46 O           5.2047  -15.9716  -43.4745 O.2       5 UNK        -0.5000 
     47 CA          4.5999  -13.7232  -42.9087 C.3       5 UNK         0.1400 
     48 CB          4.5573  -13.1645  -44.3412 C.3       5 UNK        -0.1800 
     49 N           3.6000  -13.0133  -42.1093 N.am      5 UNK        -0.5000 
     50 C           3.6500  -12.8481  -40.7806 C.2       4 UNK         0.5000 
     51 O           4.5979  -13.2029  -40.0798 O.2       4 UNK        -0.5000 
     52 CA          2.4105  -12.2075  -40.1246 C.3       4 UNK         0.1400 
     53 CB          2.5919  -10.6869  -40.0037 C.3       4 UNK        -0.1800 
     54 N           1.1679  -12.4850  -40.8532 N.am      4 UNK        -0.5000 
     55 C           0.5996  -13.6947  -40.9699 C.2       3 UNK         0.5000 
     56 O           1.0553  -14.7155  -40.4574 O.2       3 UNK        -0.5000 
     57 CA         -0.6493  -13.7909  -41.8627 C.3       3 UNK         0.1400 
     58 CB         -1.9242  -13.5200  -41.0517 C.3       3 UNK        -0.1800 
     59 N          -0.5861  -12.8689  -42.9990 N.am      3 UNK        -0.5000 
     60 C           0.1972  -13.0505  -44.0680 C.2       2 UNK         0.5000 
     61 O           0.9173  -14.0418  -44.2336 O.2       2 UNK        -0.5000 
     62 CA          0.1789  -11.9382  -45.1219 C.3       2 UNK         0.1400 
     63 CB          1.1753  -10.8244  -44.7604 C.3       2 UNK        -0.1800 
     64 N           0.5402  -12.5234  -46.4061 N.am      2 UNK        -0.5000 
     65 C           0.0499  -12.1542  -47.5928 C.2       1 UNK         0.5000 
     66 O          -0.7288  -11.2103  -47.7514 O.2       1 UNK        -0.5000 
     67 C          -4.4898  -22.6882  -46.1526 C.2       11 UNK         0.5000 
     68 O          -5.2736  -23.3535  -46.8317 O.2       11 UNK        -0.5000 
     69 N          -4.3492  -22.8408  -44.8264 N.am      12 UNK        -0.5000 
     70 CA         -5.0114  -23.8798  -44.0350 C.3       12 UNK         0.1400 
     71 CB         -4.7159  -23.6437  -42.5468 C.3       12 UNK        -0.1800 
     72 C          -4.6068  -25.3118  -44.4443 C.2       12 UNK         0.5000 
     73 O          -5.4169  -26.2291  -44.3082 O.2       12 UNK        -0.5000 
     74 N          -3.3888  -25.4805  -44.9800 N.am      13 UNK        -0.5000 
     75 CA         -2.8700  -26.7394  -45.5132 C.3       13 UNK         0.1400 
     76 CB         -1.3461  -26.7823  -45.2977 C.3       13 UNK        -0.1800 
     77 C          -3.2673  -26.9098  -46.9935 C.2       13 UNK         0.5000 
     78 O          -2.3971  -27.0584  -47.8525 O.2       13 UNK        -0.5000 
     79 N          -4.5794  -26.8557  -47.2677 N.am      14 UNK        -0.5000 
     80 CA         -5.2221  -27.0203  -48.5783 C.3       14 UNK         0.1400 
     81 CB         -5.1261  -28.4909  -49.0353 C.3       14 UNK        -0.1800 
     82 C          -4.6828  -26.0335  -49.6346 C.2       14 UNK         0.5000 
     83 O          -4.1757  -26.4527  -50.6775 O.2       14 UNK        -0.5000 
     84 N          -4.7509  -24.7328  -49.3123 N.am      15 UNK        -0.5000 
     85 CA         -4.2210  -23.6146  -50.1028 C.3       15 UNK         0.1400 
     86 CB         -4.9938  -23.4577  -51.4275 C.3       15 UNK        -0.1800 
     87 C          -2.6886  -23.6961  -50.2857 C.2       15 UNK         0.5000 
     88 O          -2.1766  -23.3524  -51.3505 O.2       15 UNK        -0.5000 
     89 N          -1.9966  -24.1891  -49.2455 N.am      16 UNK        -0.5000 
     90 CA         -0.5658  -24.5093  -49.1916 C.3       16 UNK         0.1400 
     91 CB          0.2870  -23.2272  -49.2757 C.3       16 UNK        -0.1800 
     92 C          -0.1858  -25.5575  -50.2566 C.2       16 UNK         0.5000 
     93 O           0.7252  -25.3318  -51.0524 O.2       16 UNK        -0.5000 
     94 N          -0.9484  -26.6601  -50.2941 N.am      17 UNK        -0.5000 
     95 CA         -0.9311  -27.7086  -51.3224 C.3       17 UNK         0.1400 
     96 CB          0.3545  -28.5538  -51.2145 C.3       17 UNK        -0.1800 
     97 C          -1.1674  -27.1373  -52.7398 C.2       17 UNK         0.5000 
     98 O          -0.4646  -27.4955  -53.6862 O.2       17 UNK        -0.5000 
     99 N          -2.1375  -26.2170  -52.8297 N.am      18 UNK        -0.5000 
    100 CA        -2.5379  -25.4148  -53.9905 C.3       18 UNK         0.1400 
    101 CB        -3.0529  -26.3149  -55.1319 C.3       18 UNK        -0.1800 
    102 C         -1.4953  -24.3861  -54.4868 C.2       18 UNK         0.5000 
    103 O         -1.7498  -23.7307  -55.4987 O.2       18 UNK        -0.5000 
    104 N         -0.3630  -24.2188  -53.7870 N.am      19 UNK        -0.5000 
    105 CA         0.6930  -23.2727  -54.1602 C.3       19 UNK         0.1400 
    106 CB         2.0104  -23.6736  -53.4802 C.3       19 UNK        -0.1800 
    107 C          0.3486  -21.8071  -53.8317 C.2       19 UNK         0.5000 
    108 O          0.9123  -20.9079  -54.4567 O.2       19 UNK        -0.5000 
    109 N         -0.5588  -21.5870  -52.8723 N.am      20 UNK        -0.5000 
    110 CA        -1.0046  -20.2734  -52.4087 C.3       20 UNK         0.1400 
    111 CB        -0.6685  -20.1194  -50.9144 C.3       20 UNK        -0.1800 
    112 C         -2.5042  -20.0710  -52.6885 C.2       20 UNK         0.5000 
    113 O         -3.1628  -19.3177  -51.9752 O.2       20 UNK        -0.5000 
    114 N         -3.0318  -20.7079  -53.7438 N.am      21 UNK        -0.5000 
    115 CA        -4.4349  -20.6427  -54.1770 C.3       21 UNK         0.1400 
    116 CB        -4.7236  -21.8568  -55.0784 C.3       21 UNK        -0.1800 
    117 C         -4.8443  -19.3011  -54.8361 C.2       21 UNK         0.5000 
    118 O         -5.6590  -19.2928  -55.7602 O.2       21 UNK        -0.5000 
    119 N         -4.2783  -18.1910  -54.3479 N.am      22 UNK        -0.5000 
    120 CA        -4.5181  -16.8032  -54.7719 C.3       22 UNK         0.1400 
    121 C         -4.1240  -16.4764  -56.2479 C.2       22 UNK         0.5000 
    122 N         -3.2557  -17.2558  -56.8816 N.am      22 UNK        -0.7600 
    123 O         -4.5832  -15.4949  -56.8254 O.2       22 UNK        -0.5000 
    124 C124       -5.9393  -16.3124  -54.3697 C.3       23 UNK        -0.0398 
    125 S125       -5.9496  -14.5626  -53.8446 S.3       23 UNK        -0.2404 
    126 C126       -6.1350  -14.6964  -52.0316 C.3       23 UNK        -0.0205 
    127 H127        0.3859  -10.9009  -52.1883 H         1 UNK         0.0600 
    128 H128        2.1418  -10.7372  -52.2760 H         1 UNK         0.0600 
    129 H129        1.1794   -9.5069  -51.4498 H         1 UNK         0.0600 
    130 H130       -0.2746  -12.3806  -50.6604 H         1 UNK         0.3000 
    131 H131        1.4733  -13.4007  -48.6054 H         1 UNK         0.0600 
    132 H132       -1.4963  -13.9146  -49.1724 H         1 UNK         0.0800 
    133 H133       -0.5827  -14.7525  -47.9522 H         1 UNK         0.0800 
    134 H134       -1.1048  -14.3782  -51.8534 H         1 UNK         0.0800 
    135 H135       -0.8722  -16.0709  -52.2162 H         1 UNK         0.0800 
    136 H136       -3.4363  -14.3601  -52.4266 H         1 UNK         0.1150 
    137 H137       -6.2468  -16.5327  -50.0367 H         1 UNK         0.1150 
    138 H138       -2.0475  -17.1099  -49.4445 H         1 UNK         0.1150 
    139 H139       -4.3889  -17.3721  -47.5278 H         1 UNK         0.0800 
    140 H140       -5.5384  -18.2109  -48.5437 H         1 UNK         0.0800 
    141 H141       -5.3047  -20.7088  -47.7841 H         1 UNK         0.0800 
    142 H142       -4.6590  -19.8293  -46.4200 H         1 UNK         0.0800 
    143 H143       -3.2193  -22.1620  -47.7672 H         1 UNK         0.0600 
    144 H144       -2.2560  -20.3799  -45.8212 H         1 UNK         0.3000 
    145 H145       -0.0398  -22.5023  -44.1467 H         1 UNK         0.0600 
    146 H146        1.8568  -21.2163  -45.1065 H         1 UNK         0.0600 
    147 H147        1.2799  -22.4022  -46.2662 H         1 UNK         0.0600 
    148 H148        0.8550  -20.7065  -46.4652 H         1 UNK         0.0600 
    149 H149        0.0778  -19.7176  -44.2772 H         1 UNK         0.3000 
    150 H150       -2.7760  -18.8432  -42.3270 H         1 UNK         0.0600 
    151 H151       -1.1064  -19.4289  -40.6247 H         1 UNK         0.0600 
    152 H152       -0.9486  -17.7221  -41.0097 H         1 UNK         0.0600 
    153 H153        0.2123  -18.8881  -41.6481 H         1 UNK         0.0600 
    154 H154       -0.5961  -17.3911  -43.5534 H         1 UNK         0.3000 
    155 H155       -2.1366  -16.7948  -46.6572 H         1 UNK         0.0600 
    156 H156       -3.5067  -15.2111  -45.3898 H         1 UNK         0.0600 
    157 H157       -2.0741  -14.3755  -45.9651 H         1 UNK         0.0600 
    158 H158       -2.1933  -14.8745  -44.2756 H         1 UNK         0.0600 
    159 H159        0.0931  -15.6758  -45.1133 H         1 UNK         0.3000 
    160 H160        2.4580  -18.0093  -46.4335 H         1 UNK         0.0600 
    161 H161        2.1029  -14.9953  -46.8588 H         1 UNK         0.0600 
    162 H162        2.2924  -16.1897  -48.1399 H         1 UNK         0.0600 
    163 H163        3.6084  -15.8948  -47.0162 H         1 UNK         0.0600 
    164 H164        2.6573  -15.8029  -44.6112 H         1 UNK         0.3000 
    165 H165        1.7866  -17.0160  -41.7666 H         1 UNK         0.0600 
    166 H166        4.5554  -18.2250  -42.2557 H         1 UNK         0.0600 
    167 H167        3.9480  -17.6831  -40.6905 H         1 UNK         0.0600 
    168 H168        3.1729  -19.0208  -41.5227 H         1 UNK         0.0600 
    169 H169        2.6324  -15.0207  -41.9336 H         1 UNK         0.3000 
    170 H170        5.5937  -13.5389  -42.4953 H         1 UNK         0.0600 
    171 H171        5.3237  -13.6261  -44.9652 H         1 UNK         0.0600 
    172 H172        3.5939  -13.3475  -44.8185 H         1 UNK         0.0600 
    173 H173        4.7386  -12.0896  -44.3512 H         1 UNK         0.0600 
    174 H174        2.7783  -12.6939  -42.5992 H         1 UNK         0.3000 
    175 H175        2.3156  -12.6238  -39.1194 H         1 UNK         0.0600 
    176 H176        2.6721  -10.2111  -40.9819 H         1 UNK         0.0600 
    177 H177        1.7549  -10.2304  -39.4751 H         1 UNK         0.0600 
    178 H178        3.4975  -10.4448  -39.4456 H         1 UNK         0.0600 
    179 H179        0.7229  -11.6992  -41.3036 H         1 UNK         0.3000 
    180 H180       -0.7034  -14.8129  -42.2446 H         1 UNK         0.0600 
    181 H181       -1.9408  -12.5062  -40.6500 H         1 UNK         0.0600 
    182 H182       -2.0044  -14.2088  -40.2095 H         1 UNK         0.0600 
    183 H183       -2.8157  -13.6535  -41.6648 H         1 UNK         0.0600 
    184 H184       -1.1612  -12.0403  -42.9411 H         1 UNK         0.3000 
    185 H185       -0.8318  -11.5270  -45.1695 H         1 UNK         0.0600 
    186 H186        0.9336  -10.3752  -43.7964 H         1 UNK         0.0600 
    187 H187        2.1976  -11.1992  -44.7035 H         1 UNK         0.0600 
    188 H188        1.1560  -10.0262  -45.5027 H         1 UNK         0.0600 
    189 H189        1.1419  -13.3317  -46.3299 H         1 UNK         0.3000 
    190 H190       -3.6792  -22.2604  -44.3346 H         1 UNK         0.3000 
    191 H191       -6.0878  -23.7838  -44.1911 H         1 UNK         0.0600 
    192 H192       -3.6488  -23.7180  -42.3330 H         1 UNK         0.0600 
    193 H193       -5.0523  -22.6566  -42.2290 H         1 UNK         0.0600 
    194 H194       -5.2284  -24.3783  -41.9244 H         1 UNK         0.0600 
    195 H195       -2.7991  -24.6678  -45.1240 H         1 UNK         0.3000 
    196 H196       -3.3026  -27.5772  -44.9626 H         1 UNK         0.0600 
    197 H197       -1.0940  -26.6706  -44.2431 H         1 UNK         0.0600 
    198 H198       -0.8349  -25.9929  -45.8489 H         1 UNK         0.0600 
    199 H199       -0.9319  -27.7346  -45.6311 H         1 UNK         0.0600 
    200 H200       -5.2055  -26.6983  -46.4872 H         1 UNK         0.3000 
    201 H201       -6.2783  -26.7832  -48.4430 H         1 UNK         0.0600 
    202 H202       -5.6695  -28.6459  -49.9681 H         1 UNK         0.0600 
    203 H203       -5.5575  -29.1628  -48.2934 H         1 UNK         0.0600 
    204 H204       -4.0932  -28.7975  -49.2041 H         1 UNK         0.0600 
    205 H205       -5.1452  -24.4736  -48.4113 H         1 UNK         0.3000 
    206 H206       -4.4135  -22.7065  -49.5344 H         1 UNK         0.0600 
    207 H207       -6.0506  -23.2668  -51.2420 H         1 UNK         0.0600 
    208 H208       -4.9244  -24.3438  -52.0556 H         1 UNK         0.0600 
    209 H209       -4.6105  -22.6161  -52.0018 H         1 UNK         0.0600 
    210 H210       -2.5197  -24.4822  -48.4334 H         1 UNK         0.3000 
    211 H211       -0.3854  -24.9669  -48.2179 H         1 UNK         0.0600 
    212 H212       -0.0532  -22.4756  -48.5639 H         1 UNK         0.0600 
    213 H213        1.3319  -23.4423  -49.0509 H         1 UNK         0.0600 
    214 H214        0.2550  -22.7860  -50.2714 H         1 UNK         0.0600 
    215 H215       -1.6529  -26.7694  -49.5676 H         1 UNK         0.3000 
    216 H216       -1.7786  -28.3616  -51.1086 H         1 UNK         0.0600 
    217 H217        0.3219  -29.4027  -51.8983 H         1 UNK         0.0600 
    218 H218        1.2443  -27.9721  -51.4573 H         1 UNK         0.0600 
    219 H219        0.4791  -28.9529  -50.2079 H         1 UNK         0.0600 
    220 H220       -2.6723  -26.0374  -51.9851 H         1 UNK         0.3000 
    221 H221       -3.3821  -24.8183  -53.6494 H         1 UNK         0.0600 
    222 H222       -2.2501  -26.8985  -55.5828 H         1 UNK         0.0600 
    223 H223       -3.8140  -27.0084  -54.7741 H         1 UNK         0.0600 
    224 H224       -3.5068  -25.7202  -55.9254 H         1 UNK         0.0600 
    225 H225       -0.2170  -24.7541  -52.9389 H         1 UNK         0.3000 
    226 H226        0.8447  -23.3414  -55.2396 H         1 UNK         0.0600 
    227 H227        2.2439  -24.7248  -53.6506 H         1 UNK         0.0600 
    228 H228        2.8421  -23.0865  -53.8713 H         1 UNK         0.0600 
    229 H229        1.9749  -23.5048  -52.4036 H         1 UNK         0.0600 
    230 H230       -1.0131  -22.3812  -52.4233 H         1 UNK         0.3000 
    231 H231       -0.4838  -19.4801  -52.9477 H         1 UNK         0.0600 
    232 H232       -0.8993  -19.1134  -50.5611 H         1 UNK         0.0600 
    233 H233        0.3912  -20.2905  -50.7260 H         1 UNK         0.0600 
    234 H234       -1.2388  -20.8177  -50.3013 H         1 UNK         0.0600 
    235 H235       -2.4205  -21.2933  -54.2953 H         1 UNK         0.3000 
    236 H236       -5.0639  -20.7365  -53.2902 H         1 UNK         0.0600 
    237 H237       -4.4903  -22.7912  -54.5687 H         1 UNK         0.0600 
    238 H238       -5.7765  -21.9015  -55.3595 H         1 UNK         0.0600 
    239 H239       -4.1365  -21.8219  -55.9968 H         1 UNK         0.0600 
    240 H240       -3.6832  -18.3073  -53.5335 H         1 UNK         0.3000 
    241 H241       -3.7959  -16.2377  -54.1845 H         1 UNK         0.0600 
    242 H242       -2.9968  -17.0401  -57.8316 H         1 UNK         0.3800 
    243 H243       -2.8671  -18.0660  -56.4267 H         1 UNK         0.3800 
    244 H244       -6.6478  -16.4491  -55.1882 H         1 UNK         0.0800 
    245 H245       -6.3302  -16.9109  -53.5456 H         1 UNK         0.0800 
    246 H246       -7.0726  -15.2120  -51.8177 H         1 UNK         0.0800 
    247 H247       -6.2387  -13.6918  -51.6201 H         1 UNK         0.0800 
@<TRIPOS>BOND
     1    1    2 1    
     2    1  127 1    
     3    1  128 1    
     4    1  129 1    
     5    2    3 2    
     6    2    4 am   BACKBONE|DICT|INTERRES
     7    4    5 1    
     8    4  130 1    
     9    5    6 1    
    10    5   65 1    
    11    5  131 1    
    12    6    7 1    
    13    6  132 1    
    14    6  133 1    
    15    7    8 1    
    16    8    9 1    
    17    8  134 1    
    18    8  135 1    
    19    9   10 ar   
    20    9   14 ar   
    21   10   11 ar   
    22   10  136 1    
    23   11   12 ar   
    24   11  126 1    
    25   12   13 ar   
    26   12  137 1    
    27   13   14 ar   
    28   13   15 1    
    29   14  138 1    
    30   15   16 1    
    31   15  139 1    
    32   15  140 1    
    33   16   17 1    
    34   17   18 1    
    35   17  141 1    
    36   17  142 1    
    37   18   19 1    
    38   18   67 1    
    39   18  143 1    
    40   19   20 am   BACKBONE|DICT|INTERRES
    41   19  144 1    
    42   20   21 2    
    43   20   22 1    
    44   22   23 1    
    45   22   24 1    
    46   22  145 1    
    47   23  146 1    
    48   23  147 1    
    49   23  148 1    
    50   24   25 am   BACKBONE|DICT|INTERRES
    51   24  149 1    
    52   25   26 2    
    53   25   27 1    
    54   27   28 1    
    55   27   29 1    
    56   27  150 1    
    57   28  151 1    
    58   28  152 1    
    59   28  153 1    
    60   29   30 am   BACKBONE|DICT|INTERRES
    61   29  154 1    
    62   30   31 2    
    63   30   32 1    
    64   32   33 1    
    65   32   34 1    
    66   32  155 1    
    67   33  156 1    
    68   33  157 1    
    69   33  158 1    
    70   34   35 am   BACKBONE|DICT|INTERRES
    71   34  159 1    
    72   35   36 2    
    73   35   37 1    
    74   37   38 1    
    75   37   39 1    
    76   37  160 1    
    77   38  161 1    
    78   38  162 1    
    79   38  163 1    
    80   39   40 am   BACKBONE|DICT|INTERRES
    81   39  164 1    
    82   40   41 2    
    83   40   42 1    
    84   42   43 1    
    85   42   44 1    
    86   42  165 1    
    87   43  166 1    
    88   43  167 1    
    89   43  168 1    
    90   44   45 am   BACKBONE|DICT|INTERRES
    91   44  169 1    
    92   45   46 2    
    93   45   47 1    
    94   47   48 1    
    95   47   49 1    
    96   47  170 1    
    97   48  171 1    
    98   48  172 1    
    99   48  173 1    
   100   49   50 am   BACKBONE|DICT|INTERRES
   101   49  174 1    
   102   50   51 2    
   103   50   52 1    
   104   52   53 1    
   105   52   54 1    
   106   52  175 1    
   107   53  176 1    
   108   53  177 1    
   109   53  178 1    
   110   54   55 am   BACKBONE|DICT|INTERRES
   111   54  179 1    
   112   55   56 2    
   113   55   57 1    
   114   57   58 1    
   115   57   59 1    
   116   57  180 1    
   117   58  181 1    
   118   58  182 1    
   119   58  183 1    
   120   59   60 am   BACKBONE|DICT|INTERRES
   121   59  184 1    
   122   60   61 2    
   123   60   62 1    
   124   62   63 1    
   125   62   64 1    
   126   62  185 1    
   127   63  186 1    
   128   63  187 1    
   129   63  188 1    
   130   64   65 am   BACKBONE|DICT|INTERRES
   131   64  189 1    
   132   65   66 2    
   133   67   68 2    
   134   67   69 am   BACKBONE|DICT|INTERRES
   135   69   70 1    
   136   69  190 1    
   137   70   71 1    
   138   70   72 1    
   139   70  191 1    
   140   71  192 1    
   141   71  193 1    
   142   71  194 1    
   143   72   73 2    
   144   72   74 am   BACKBONE|DICT|INTERRES
   145   74   75 1    
   146   74  195 1    
   147   75   76 1    
   148   75   77 1    
   149   75  196 1    
   150   76  197 1    
   151   76  198 1    
   152   76  199 1    
   153   77   78 2    
   154   77   79 am   BACKBONE|DICT|INTERRES
   155   79   80 1    
   156   79  200 1    
   157   80   81 1    
   158   80   82 1    
   159   80  201 1    
   160   81  202 1    
   161   81  203 1    
   162   81  204 1    
   163   82   83 2    
   164   82   84 am   BACKBONE|DICT|INTERRES
   165   84   85 1    
   166   84  205 1    
   167   85   86 1    
   168   85   87 1    
   169   85  206 1    
   170   86  207 1    
   171   86  208 1    
   172   86  209 1    
   173   87   88 2    
   174   87   89 am   BACKBONE|DICT|INTERRES
   175   89   90 1    
   176   89  210 1    
   177   90   91 1    
   178   90   92 1    
   179   90  211 1    
   180   91  212 1    
   181   91  213 1    
   182   91  214 1    
   183   92   93 2    
   184   92   94 am   BACKBONE|DICT|INTERRES
   185   94   95 1    
   186   94  215 1    
   187   95   96 1    
   188   95   97 1    
   189   95  216 1    
   190   96  217 1    
   191   96  218 1    
   192   96  219 1    
   193   97   98 2    
   194   97   99 am   BACKBONE|DICT|INTERRES
   195   99  100 1    
   196   99  220 1    
   197  100  101 1    
   198  100  102 1    
   199  100  221 1    
   200  101  222 1    
   201  101  223 1    
   202  101  224 1    
   203  102  103 2    
   204  102  104 am   BACKBONE|DICT|INTERRES
   205  104  105 1    
   206  104  225 1    
   207  105  106 1    
   208  105  107 1    
   209  105  226 1    
   210  106  227 1    
   211  106  228 1    
   212  106  229 1    
   213  107  108 2    
   214  107  109 am   BACKBONE|DICT|INTERRES
   215  109  110 1    
   216  109  230 1    
   217  110  111 1    
   218  110  112 1    
   219  110  231 1    
   220  111  232 1    
   221  111  233 1    
   222  111  234 1    
   223  112  113 2    
   224  112  114 am   BACKBONE|DICT|INTERRES
   225  114  115 1    
   226  114  235 1    
   227  115  116 1    
   228  115  117 1    
   229  115  236 1    
   230  116  237 1    
   231  116  238 1    
   232  116  239 1    
   233  117  118 2    
   234  117  119 am   BACKBONE|DICT|INTERRES
   235  119  120 1    
   236  119  240 1    
   237  120  121 1    
   238  120  124 1    
   239  120  241 1    
   240  121  122 am   BACKBONE|DICT|INTERRES
   241  121  123 2    
   242  122  242 1    
   243  122  243 1    
   244  124  125 1    
   245  124  244 1    
   246  124  245 1    
   247  125  126 1    
   248  126  246 1    
   249  126  247 1    
@<TRIPOS>SUBSTRUCTURE
     1 UNK         1 GROUP             0       ****    0 ROOT    
