@<TRIPOS>MOLECULE
3R540
247   249    1
SMALL
USER_CHARGES


@<TRIPOS>ATOM
      1 CA          8.1400  -14.6006  -46.4971 C.3       0 UNK        -0.1800 
      2 C           8.0793  -13.3253  -47.3360 C.2       0 UNK         0.5000 
      3 O           9.1197  -12.8472  -47.7831 O.2       0 UNK        -0.5000 
      4 N           6.8988  -12.7368  -47.5806 N.am      1 UNK        -0.5000 
      5 CA          5.5788  -13.1622  -47.0906 C.3       1 UNK         0.1400 
      6 C6          4.4437  -12.6472  -48.0178 C.3       23 UNK        -0.0398 
      7 S7          3.0951  -13.8619  -48.2101 S.3       23 UNK        -0.2404 
      8 C8          3.4202  -14.5147  -49.8734 C.3       23 UNK        -0.0205 
      9 C9          2.4692  -15.6515  -50.2160 C.ar      23 UNK        -0.0193 
     10 C10         1.1485  -15.3770  -50.5830 C.ar      23 UNK        -0.1150 
     11 C11         0.2766  -16.4144  -50.9262 C.ar      23 UNK        -0.0193 
     12 C12         0.7355  -17.7348  -50.9062 C.ar      23 UNK        -0.1150 
     13 C13         2.0554  -18.0218  -50.5466 C.ar      23 UNK        -0.0193 
     14 C14         2.9141  -16.9766  -50.1919 C.ar      23 UNK        -0.1150 
     15 C15         2.5699  -19.4531  -50.5799 C.3       23 UNK        -0.0205 
     16 S16         2.2747  -20.3226  -49.0108 S.3       23 UNK        -0.2404 
     17 C17         0.5263  -20.8123  -49.1876 C.3       23 UNK        -0.0398 
     18 CA          0.1671  -21.9798  -48.2405 C.3       11 UNK         0.1400 
     19 N           0.1754  -21.5856  -46.8295 N.am      11 UNK        -0.5000 
     20 C           0.0735  -22.4358  -45.7991 C.2       10 UNK         0.5000 
     21 O           0.0283  -23.6594  -45.9261 O.2       10 UNK        -0.5000 
     22 CA         -0.0696  -21.8142  -44.3980 C.3       10 UNK         0.1400 
     23 CB          1.2974  -21.4115  -43.8256 C.3       10 UNK        -0.1800 
     24 N          -0.9766  -20.6641  -44.3946 N.am      10 UNK        -0.5000 
     25 C          -2.2878  -20.7449  -44.6638 C.2       9 UNK         0.5000 
     26 O          -2.8715  -21.8096  -44.8684 O.2       9 UNK        -0.5000 
     27 CA         -3.0726  -19.4228  -44.7620 C.3       9 UNK         0.1400 
     28 CB         -3.4910  -18.9343  -43.3678 C.3       9 UNK        -0.1800 
     29 N          -2.3310  -18.3681  -45.4565 N.am      9 UNK        -0.5000 
     30 C          -1.9896  -18.4112  -46.7530 C.2       8 UNK         0.5000 
     31 O          -2.3205  -19.3196  -47.5128 O.2       8 UNK        -0.5000 
     32 CA         -1.0797  -17.2873  -47.2833 C.3       8 UNK         0.1400 
     33 CB         -1.8953  -16.0503  -47.6823 C.3       8 UNK        -0.1800 
     34 N          -0.0410  -16.9053  -46.3289 N.am      8 UNK        -0.5000 
     35 C           0.9221  -17.7298  -45.8951 C.2       7 UNK         0.5000 
     36 O           1.0377  -18.8963  -46.2649 O.2       7 UNK        -0.5000 
     37 CA          1.8690  -17.1871  -44.8137 C.3       7 UNK         0.1400 
     38 CB          2.9099  -16.2303  -45.4085 C.3       7 UNK        -0.1800 
     39 N           1.1402  -16.5176  -43.7382 N.am      7 UNK        -0.5000 
     40 C           0.3300  -17.1418  -42.8722 C.2       6 UNK         0.5000 
     41 O           0.1376  -18.3573  -42.8672 O.2       6 UNK        -0.5000 
     42 CA         -0.4165  -16.2500  -41.8647 C.3       6 UNK         0.1400 
     43 CB          0.4693  -15.9497  -40.6465 C.3       6 UNK        -0.1800 
     44 N          -0.8702  -14.9915  -42.4583 N.am      6 UNK        -0.5000 
     45 C          -1.8174  -14.9007  -43.4024 C.2       5 UNK         0.5000 
     46 O          -2.4130  -15.8692  -43.8736 O.2       5 UNK        -0.5000 
     47 CA         -2.1093  -13.4905  -43.9423 C.3       5 UNK         0.1400 
     48 CB         -2.9858  -12.6977  -42.9615 C.3       5 UNK        -0.1800 
     49 N          -0.8907  -12.7324  -44.2298 N.am      5 UNK        -0.5000 
     50 C           0.0225  -13.0737  -45.1463 C.2       4 UNK         0.5000 
     51 O          -0.0405  -14.1009  -45.8188 O.2       4 UNK        -0.5000 
     52 CA          1.2214  -12.1327  -45.3279 C.3       4 UNK         0.1400 
     53 CB          0.8170  -10.7913  -45.9677 C.3       4 UNK        -0.1800 
     54 N           2.0175  -11.9486  -44.1143 N.am      4 UNK        -0.5000 
     55 C           1.7043  -11.3002  -42.9837 C.2       3 UNK         0.5000 
     56 O           0.6083  -10.7783  -42.7733 O.2       3 UNK        -0.5000 
     57 CA          2.7933  -11.2309  -41.8921 C.3       3 UNK         0.1400 
     58 CB          2.4415  -12.1718  -40.7292 C.3       3 UNK        -0.1800 
     59 N           4.1373  -11.5646  -42.3738 N.am      3 UNK        -0.5000 
     60 C           4.8722  -10.8203  -43.2124 C.2       2 UNK         0.5000 
     61 O           4.5183   -9.7207  -43.6400 O.2       2 UNK        -0.5000 
     62 CA          6.2205  -11.4094  -43.6779 C.3       2 UNK         0.1400 
     63 CB          6.7605  -12.5367  -42.7685 C.3       2 UNK        -0.1800 
     64 N           6.1745  -11.8646  -45.0722 N.am      2 UNK        -0.5000 
     65 C           5.3426  -12.7727  -45.6098 C.2       1 UNK         0.5000 
     66 O           4.4384  -13.3197  -44.9788 O.2       1 UNK        -0.5000 
     67 C          -1.1666  -22.6407  -48.6454 C.2       11 UNK         0.5000 
     68 O          -1.1380  -23.6522  -49.3438 O.2       11 UNK        -0.5000 
     69 N          -2.3007  -22.1072  -48.1670 N.am      12 UNK        -0.5000 
     70 CA         -3.6351  -22.6751  -48.3748 C.3       12 UNK         0.1400 
     71 CB         -4.7040  -21.7268  -47.8089 C.3       12 UNK        -0.1800 
     72 C          -3.7912  -24.0745  -47.7564 C.2       12 UNK         0.5000 
     73 O          -4.3760  -24.9559  -48.3878 O.2       12 UNK        -0.5000 
     74 N          -3.2446  -24.2568  -46.5467 N.am      13 UNK        -0.5000 
     75 CA         -3.1957  -25.5380  -45.8457 C.3       13 UNK         0.1400 
     76 CB         -2.7437  -25.3174  -44.3943 C.3       13 UNK        -0.1800 
     77 C          -2.2935  -26.5594  -46.5615 C.2       13 UNK         0.5000 
     78 O          -2.6969  -27.7114  -46.7199 O.2       13 UNK        -0.5000 
     79 N          -1.1133  -26.1130  -47.0161 N.am      14 UNK        -0.5000 
     80 CA         -0.1512  -26.9163  -47.7752 C.3       14 UNK         0.1400 
     81 CB          1.1658  -26.1391  -47.9192 C.3       14 UNK        -0.1800 
     82 C          -0.6818  -27.3507  -49.1551 C.2       14 UNK         0.5000 
     83 O          -0.4632  -28.4937  -49.5581 O.2       14 UNK        -0.5000 
     84 N          -1.3930  -26.4442  -49.8391 N.am      15 UNK        -0.5000 
     85 CA         -2.0685  -26.6930  -51.1149 C.3       15 UNK         0.1400 
     86 CB         -2.4332  -25.3444  -51.7567 C.3       15 UNK        -0.1800 
     87 C          -3.3279  -27.5723  -50.9832 C.2       15 UNK         0.5000 
     88 O          -3.7904  -28.1041  -51.9931 O.2       15 UNK        -0.5000 
     89 N          -3.8563  -27.6967  -49.7553 N.am      16 UNK        -0.5000 
     90 CA         -5.1107  -28.3543  -49.3813 C.3       16 UNK         0.1400 
     91 CB         -5.0365  -29.8760  -49.6249 C.3       16 UNK        -0.1800 
     92 C          -6.3130  -27.6752  -50.0656 C.2       16 UNK         0.5000 
     93 O          -7.0821  -28.3288  -50.7732 O.2       16 UNK        -0.5000 
     94 N          -6.4128  -26.3547  -49.8563 N.am      17 UNK        -0.5000 
     95 CA         -7.3119  -25.4147  -50.5246 C.3       17 UNK         0.1400 
     96 CB         -8.7999  -25.7487  -50.2727 C.3       17 UNK        -0.1800 
     97 C          -6.9172  -25.2625  -52.0060 C.2       17 UNK         0.5000 
     98 O          -5.7976  -24.8189  -52.2683 O.2       17 UNK        -0.5000 
     99 N          -7.8254  -25.5907  -52.9372 N.am      18 UNK        -0.5000 
    100 CA        -7.7019  -25.4212  -54.3901 C.3       18 UNK         0.1400 
    101 CB        -6.5898  -26.3268  -54.9670 C.3       18 UNK        -0.1800 
    102 C         -7.5531  -23.9298  -54.7530 C.2       18 UNK         0.5000 
    103 O         -8.5523  -23.2095  -54.7368 O.2       18 UNK        -0.5000 
    104 N         -6.3191  -23.4814  -55.0238 N.am      19 UNK        -0.5000 
    105 CA        -5.9624  -22.0675  -55.1829 C.3       19 UNK         0.1400 
    106 CB        -4.5455  -21.9709  -55.7681 C.3       19 UNK        -0.1800 
    107 C         -6.0526  -21.2735  -53.8623 C.2       19 UNK         0.5000 
    108 O         -6.2484  -20.0569  -53.8981 O.2       19 UNK        -0.5000 
    109 N         -5.9246  -21.9821  -52.7303 N.am      20 UNK        -0.5000 
    110 CA        -6.0446  -21.5041  -51.3549 C.3       20 UNK         0.1400 
    111 CB        -7.5235  -21.1987  -51.0299 C.3       20 UNK        -0.1800 
    112 C         -5.0705  -20.3493  -51.0438 C.2       20 UNK         0.5000 
    113 O         -3.9153  -20.3931  -51.4722 O.2       20 UNK        -0.5000 
    114 N         -5.5407  -19.3397  -50.3029 N.am      21 UNK        -0.5000 
    115 CA        -4.7887  -18.1511  -49.9054 C.3       21 UNK         0.1400 
    116 CB        -5.4163  -17.5902  -48.6150 C.3       21 UNK        -0.1800 
    117 C         -4.7251  -17.1158  -51.0484 C.2       21 UNK         0.5000 
    118 O         -5.1182  -15.9636  -50.8595 O.2       21 UNK        -0.5000 
    119 N         -4.2337  -17.5552  -52.2149 N.am      22 UNK        -0.5000 
    120 CA        -4.1141  -16.7806  -53.4615 C.3       22 UNK         0.1400 
    121 C         -5.4934  -16.3209  -54.0247 C.2       22 UNK         0.5000 
    122 N         -6.4811  -17.2050  -54.0924 N.am      22 UNK        -0.7600 
    123 O         -5.6803  -15.1690  -54.4095 O.2       22 UNK        -0.5000 
    124 C124       -3.0723  -15.6293  -53.3575 C.3       23 UNK        -0.0398 
    125 S125       -1.3660  -16.2370  -53.1327 S.3       23 UNK        -0.2404 
    126 C126       -1.1564  -16.1109  -51.3302 C.3       23 UNK        -0.0205 
    127 H127        7.7321  -14.4378  -45.4999 H         1 UNK         0.0600 
    128 H128        9.1725  -14.9306  -46.3802 H         1 UNK         0.0600 
    129 H129        7.5880  -15.4080  -46.9780 H         1 UNK         0.0600 
    130 H130        6.8970  -11.8994  -48.1459 H         1 UNK         0.3000 
    131 H131        5.5618  -14.2529  -47.1243 H         1 UNK         0.0600 
    132 H132        4.0232  -11.7057  -47.6587 H         1 UNK         0.0800 
    133 H133        4.8320  -12.4240  -49.0126 H         1 UNK         0.0800 
    134 H134        3.3115  -13.7139  -50.6064 H         1 UNK         0.0800 
    135 H135        4.4560  -14.8528  -49.9326 H         1 UNK         0.0800 
    136 H136        0.8029  -14.3529  -50.6036 H         1 UNK         0.1150 
    137 H137        0.0674  -18.5365  -51.1879 H         1 UNK         0.1150 
    138 H138        3.9357  -17.1948  -49.9138 H         1 UNK         0.1150 
    139 H139        2.1168  -20.0015  -51.4070 H         1 UNK         0.0800 
    140 H140        3.6431  -19.4521  -50.7765 H         1 UNK         0.0800 
    141 H141        0.3577  -21.1003  -50.2269 H         1 UNK         0.0800 
    142 H142       -0.1094  -19.9470  -48.9979 H         1 UNK         0.0800 
    143 H143        0.9349  -22.7474  -48.3585 H         1 UNK         0.0600 
    144 H144        0.2842  -20.5927  -46.6361 H         1 UNK         0.3000 
    145 H145       -0.4959  -22.5757  -43.7416 H         1 UNK         0.0600 
    146 H146        1.2011  -21.0298  -42.8091 H         1 UNK         0.0600 
    147 H147        1.9713  -22.2682  -43.7896 H         1 UNK         0.0600 
    148 H148        1.7795  -20.6412  -44.4268 H         1 UNK         0.0600 
    149 H149       -0.5673  -19.7590  -44.1882 H         1 UNK         0.3000 
    150 H150       -3.9806  -19.6214  -45.3351 H         1 UNK         0.0600 
    151 H151       -4.0553  -19.7023  -42.8374 H         1 UNK         0.0600 
    152 H152       -4.1275  -18.0518  -43.4350 H         1 UNK         0.0600 
    153 H153       -2.6271  -18.6778  -42.7544 H         1 UNK         0.0600 
    154 H154       -2.0695  -17.5567  -44.9051 H         1 UNK         0.3000 
    155 H155       -0.5780  -17.6609  -48.1778 H         1 UNK         0.0600 
    156 H156       -2.4366  -15.6323  -46.8326 H         1 UNK         0.0600 
    157 H157       -1.2501  -15.2694  -48.0858 H         1 UNK         0.0600 
    158 H158       -2.6220  -16.2960  -48.4552 H         1 UNK         0.0600 
    159 H159       -0.0560  -15.9409  -46.0039 H         1 UNK         0.3000 
    160 H160        2.4024  -18.0385  -44.3854 H         1 UNK         0.0600 
    161 H161        2.4508  -15.3029  -45.7489 H         1 UNK         0.0600 
    162 H162        3.4181  -16.6794  -46.2628 H         1 UNK         0.0600 
    163 H163        3.6724  -15.9732  -44.6733 H         1 UNK         0.0600 
    164 H164        1.2093  -15.5125  -43.6987 H         1 UNK         0.3000 
    165 H165       -1.2958  -16.7988  -41.5205 H         1 UNK         0.0600 
    166 H166       -0.0659  -15.3570  -39.9044 H         1 UNK         0.0600 
    167 H167        0.7841  -16.8730  -40.1582 H         1 UNK         0.0600 
    168 H168        1.3708  -15.4046  -40.9268 H         1 UNK         0.0600 
    169 H169       -0.4292  -14.1437  -42.1346 H         1 UNK         0.3000 
    170 H170       -2.6606  -13.6032  -44.8783 H         1 UNK         0.0600 
    171 H171       -2.4706  -12.5110  -42.0184 H         1 UNK         0.0600 
    172 H172       -3.2728  -11.7337  -43.3820 H         1 UNK         0.0600 
    173 H173       -3.9051  -13.2389  -42.7336 H         1 UNK         0.0600 
    174 H174       -0.7149  -11.8957  -43.6814 H         1 UNK         0.3000 
    175 H175        1.8932  -12.6257  -46.0262 H         1 UNK         0.0600 
    176 H176        1.6919  -10.1698  -46.1589 H         1 UNK         0.0600 
    177 H177        0.1326  -10.2221  -45.3386 H         1 UNK         0.0600 
    178 H178        0.3193  -10.9548  -46.9243 H         1 UNK         0.0600 
    179 H179        2.9382  -12.3767  -44.1639 H         1 UNK         0.3000 
    180 H180        2.8099  -10.2066  -41.5144 H         1 UNK         0.0600 
    181 H181        2.4406  -13.2153  -41.0448 H         1 UNK         0.0600 
    182 H182        1.4523  -11.9485  -40.3269 H         1 UNK         0.0600 
    183 H183        3.1534  -12.0694  -39.9100 H         1 UNK         0.0600 
    184 H184        4.5024  -12.4644  -42.0971 H         1 UNK         0.3000 
    185 H185        6.9387  -10.5888  -43.6415 H         1 UNK         0.0600 
    186 H186        6.8273  -12.2075  -41.7307 H         1 UNK         0.0600 
    187 H187        6.1362  -13.4304  -42.7963 H         1 UNK         0.0600 
    188 H188        7.7643  -12.8317  -43.0746 H         1 UNK         0.0600 
    189 H189        6.8631  -11.4497  -45.6841 H         1 UNK         0.3000 
    190 H190       -2.2530  -21.2289  -47.6579 H         1 UNK         0.3000 
    191 H191       -3.7817  -22.7658  -49.4522 H         1 UNK         0.0600 
    192 H192       -4.5492  -20.7043  -48.1468 H         1 UNK         0.0600 
    193 H193       -5.7019  -22.0330  -48.1240 H         1 UNK         0.0600 
    194 H194       -4.7009  -21.7114  -46.7198 H         1 UNK         0.0600 
    195 H195       -2.8336  -23.4580  -46.0741 H         1 UNK         0.3000 
    196 H196       -4.2084  -25.9461  -45.8245 H         1 UNK         0.0600 
    197 H197       -2.7379  -26.2571  -43.8408 H         1 UNK         0.0600 
    198 H198       -3.4157  -24.6356  -43.8726 H         1 UNK         0.0600 
    199 H199       -1.7387  -24.8990  -44.3407 H         1 UNK         0.0600 
    200 H200       -0.8369  -25.1593  -46.7988 H         1 UNK         0.3000 
    201 H201        0.0518  -27.8215  -47.1992 H         1 UNK         0.0600 
    202 H202        1.5822  -25.8842  -46.9445 H         1 UNK         0.0600 
    203 H203        1.0270  -25.2124  -48.4761 H         1 UNK         0.0600 
    204 H204        1.9133  -26.7315  -48.4482 H         1 UNK         0.0600 
    205 H205       -1.4573  -25.4962  -49.4749 H         1 UNK         0.3000 
    206 H206       -1.3727  -27.2110  -51.7780 H         1 UNK         0.0600 
    207 H207       -1.5463  -24.7345  -51.9284 H         1 UNK         0.0600 
    208 H208       -2.9226  -25.4866  -52.7212 H         1 UNK         0.0600 
    209 H209       -3.1167  -24.7738  -51.1262 H         1 UNK         0.0600 
    210 H210       -3.3938  -27.1996  -49.0060 H         1 UNK         0.3000 
    211 H211       -5.2323  -28.1983  -48.3083 H         1 UNK         0.0600 
    212 H212       -4.9526  -30.1187  -50.6844 H         1 UNK         0.0600 
    213 H213       -5.9308  -30.3726  -49.2472 H         1 UNK         0.0600 
    214 H214       -4.1801  -30.3138  -49.1119 H         1 UNK         0.0600 
    215 H215       -5.6809  -25.9150  -49.3006 H         1 UNK         0.3000 
    216 H216       -7.1205  -24.4445  -50.0641 H         1 UNK         0.0600 
    217 H217       -9.4473  -24.9705  -50.6789 H         1 UNK         0.0600 
    218 H218       -9.0071  -25.8096  -49.2043 H         1 UNK         0.0600 
    219 H219       -9.1020  -26.6956  -50.7200 H         1 UNK         0.0600 
    220 H220       -8.7204  -25.9331  -52.6174 H         1 UNK         0.3000 
    221 H221       -8.6473  -25.7507  -54.8238 H         1 UNK         0.0600 
    222 H222       -5.6069  -26.1121  -54.5473 H         1 UNK         0.0600 
    223 H223       -6.8051  -27.3764  -54.7663 H         1 UNK         0.0600 
    224 H224       -6.5183  -26.2149  -56.0496 H         1 UNK         0.0600 
    225 H225       -5.5547  -24.1403  -54.9864 H         1 UNK         0.3000 
    226 H226       -6.6592  -21.6134  -55.8904 H         1 UNK         0.0600 
    227 H227       -4.4819  -22.4726  -56.7339 H         1 UNK         0.0600 
    228 H228       -4.2579  -20.9302  -55.9235 H         1 UNK         0.0600 
    229 H229       -3.8050  -22.4203  -55.1050 H         1 UNK         0.0600 
    230 H230       -5.7381  -22.9774  -52.8149 H         1 UNK         0.3000 
    231 H231       -5.7368  -22.3376  -50.7240 H         1 UNK         0.0600 
    232 H232       -7.8917  -20.3345  -51.5846 H         1 UNK         0.0600 
    233 H233       -7.6681  -21.0050  -49.9665 H         1 UNK         0.0600 
    234 H234       -8.1599  -22.0465  -51.2850 H         1 UNK         0.0600 
    235 H235       -6.5124  -19.3588  -50.0302 H         1 UNK         0.3000 
    236 H236       -3.7605  -18.4395  -49.6769 H         1 UNK         0.0600 
    237 H237       -4.9014  -16.6911  -48.2772 H         1 UNK         0.0600 
    238 H238       -6.4652  -17.3287  -48.7592 H         1 UNK         0.0600 
    239 H239       -5.3588  -18.3155  -47.8032 H         1 UNK         0.0600 
    240 H240       -3.9633  -18.5316  -52.2686 H         1 UNK         0.3000 
    241 H241       -3.7382  -17.4792  -54.2099 H         1 UNK         0.0600 
    242 H242       -6.3362  -18.1841  -53.8543 H         1 UNK         0.3800 
    243 H243       -7.3752  -16.9145  -54.4539 H         1 UNK         0.3800 
    244 H244       -3.0670  -15.0431  -54.2778 H         1 UNK         0.0800 
    245 H245       -3.3331  -14.9293  -52.5630 H         1 UNK         0.0800 
    246 H246       -1.4455  -15.1140  -50.9937 H         1 UNK         0.0800 
    247 H247       -1.8236  -16.8149  -50.8339 H         1 UNK         0.0800 
@<TRIPOS>BOND
     1    1    2 1    
     2    1  127 1    
     3    1  128 1    
     4    1  129 1    
     5    2    3 2    
     6    2    4 am   BACKBONE|DICT|INTERRES
     7    4    5 1    
     8    4  130 1    
     9    5    6 1    
    10    5   65 1    
    11    5  131 1    
    12    6    7 1    
    13    6  132 1    
    14    6  133 1    
    15    7    8 1    
    16    8    9 1    
    17    8  134 1    
    18    8  135 1    
    19    9   10 ar   
    20    9   14 ar   
    21   10   11 ar   
    22   10  136 1    
    23   11   12 ar   
    24   11  126 1    
    25   12   13 ar   
    26   12  137 1    
    27   13   14 ar   
    28   13   15 1    
    29   14  138 1    
    30   15   16 1    
    31   15  139 1    
    32   15  140 1    
    33   16   17 1    
    34   17   18 1    
    35   17  141 1    
    36   17  142 1    
    37   18   19 1    
    38   18   67 1    
    39   18  143 1    
    40   19   20 am   BACKBONE|DICT|INTERRES
    41   19  144 1    
    42   20   21 2    
    43   20   22 1    
    44   22   23 1    
    45   22   24 1    
    46   22  145 1    
    47   23  146 1    
    48   23  147 1    
    49   23  148 1    
    50   24   25 am   BACKBONE|DICT|INTERRES
    51   24  149 1    
    52   25   26 2    
    53   25   27 1    
    54   27   28 1    
    55   27   29 1    
    56   27  150 1    
    57   28  151 1    
    58   28  152 1    
    59   28  153 1    
    60   29   30 am   BACKBONE|DICT|INTERRES
    61   29  154 1    
    62   30   31 2    
    63   30   32 1    
    64   32   33 1    
    65   32   34 1    
    66   32  155 1    
    67   33  156 1    
    68   33  157 1    
    69   33  158 1    
    70   34   35 am   BACKBONE|DICT|INTERRES
    71   34  159 1    
    72   35   36 2    
    73   35   37 1    
    74   37   38 1    
    75   37   39 1    
    76   37  160 1    
    77   38  161 1    
    78   38  162 1    
    79   38  163 1    
    80   39   40 am   BACKBONE|DICT|INTERRES
    81   39  164 1    
    82   40   41 2    
    83   40   42 1    
    84   42   43 1    
    85   42   44 1    
    86   42  165 1    
    87   43  166 1    
    88   43  167 1    
    89   43  168 1    
    90   44   45 am   BACKBONE|DICT|INTERRES
    91   44  169 1    
    92   45   46 2    
    93   45   47 1    
    94   47   48 1    
    95   47   49 1    
    96   47  170 1    
    97   48  171 1    
    98   48  172 1    
    99   48  173 1    
   100   49   50 am   BACKBONE|DICT|INTERRES
   101   49  174 1    
   102   50   51 2    
   103   50   52 1    
   104   52   53 1    
   105   52   54 1    
   106   52  175 1    
   107   53  176 1    
   108   53  177 1    
   109   53  178 1    
   110   54   55 am   BACKBONE|DICT|INTERRES
   111   54  179 1    
   112   55   56 2    
   113   55   57 1    
   114   57   58 1    
   115   57   59 1    
   116   57  180 1    
   117   58  181 1    
   118   58  182 1    
   119   58  183 1    
   120   59   60 am   BACKBONE|DICT|INTERRES
   121   59  184 1    
   122   60   61 2    
   123   60   62 1    
   124   62   63 1    
   125   62   64 1    
   126   62  185 1    
   127   63  186 1    
   128   63  187 1    
   129   63  188 1    
   130   64   65 am   BACKBONE|DICT|INTERRES
   131   64  189 1    
   132   65   66 2    
   133   67   68 2    
   134   67   69 am   BACKBONE|DICT|INTERRES
   135   69   70 1    
   136   69  190 1    
   137   70   71 1    
   138   70   72 1    
   139   70  191 1    
   140   71  192 1    
   141   71  193 1    
   142   71  194 1    
   143   72   73 2    
   144   72   74 am   BACKBONE|DICT|INTERRES
   145   74   75 1    
   146   74  195 1    
   147   75   76 1    
   148   75   77 1    
   149   75  196 1    
   150   76  197 1    
   151   76  198 1    
   152   76  199 1    
   153   77   78 2    
   154   77   79 am   BACKBONE|DICT|INTERRES
   155   79   80 1    
   156   79  200 1    
   157   80   81 1    
   158   80   82 1    
   159   80  201 1    
   160   81  202 1    
   161   81  203 1    
   162   81  204 1    
   163   82   83 2    
   164   82   84 am   BACKBONE|DICT|INTERRES
   165   84   85 1    
   166   84  205 1    
   167   85   86 1    
   168   85   87 1    
   169   85  206 1    
   170   86  207 1    
   171   86  208 1    
   172   86  209 1    
   173   87   88 2    
   174   87   89 am   BACKBONE|DICT|INTERRES
   175   89   90 1    
   176   89  210 1    
   177   90   91 1    
   178   90   92 1    
   179   90  211 1    
   180   91  212 1    
   181   91  213 1    
   182   91  214 1    
   183   92   93 2    
   184   92   94 am   BACKBONE|DICT|INTERRES
   185   94   95 1    
   186   94  215 1    
   187   95   96 1    
   188   95   97 1    
   189   95  216 1    
   190   96  217 1    
   191   96  218 1    
   192   96  219 1    
   193   97   98 2    
   194   97   99 am   BACKBONE|DICT|INTERRES
   195   99  100 1    
   196   99  220 1    
   197  100  101 1    
   198  100  102 1    
   199  100  221 1    
   200  101  222 1    
   201  101  223 1    
   202  101  224 1    
   203  102  103 2    
   204  102  104 am   BACKBONE|DICT|INTERRES
   205  104  105 1    
   206  104  225 1    
   207  105  106 1    
   208  105  107 1    
   209  105  226 1    
   210  106  227 1    
   211  106  228 1    
   212  106  229 1    
   213  107  108 2    
   214  107  109 am   BACKBONE|DICT|INTERRES
   215  109  110 1    
   216  109  230 1    
   217  110  111 1    
   218  110  112 1    
   219  110  231 1    
   220  111  232 1    
   221  111  233 1    
   222  111  234 1    
   223  112  113 2    
   224  112  114 am   BACKBONE|DICT|INTERRES
   225  114  115 1    
   226  114  235 1    
   227  115  116 1    
   228  115  117 1    
   229  115  236 1    
   230  116  237 1    
   231  116  238 1    
   232  116  239 1    
   233  117  118 2    
   234  117  119 am   BACKBONE|DICT|INTERRES
   235  119  120 1    
   236  119  240 1    
   237  120  121 1    
   238  120  124 1    
   239  120  241 1    
   240  121  122 am   BACKBONE|DICT|INTERRES
   241  121  123 2    
   242  122  242 1    
   243  122  243 1    
   244  124  125 1    
   245  124  244 1    
   246  124  245 1    
   247  125  126 1    
   248  126  246 1    
   249  126  247 1    
@<TRIPOS>SUBSTRUCTURE
     1 UNK         1 GROUP             0       ****    0 ROOT    
