@<TRIPOS>MOLECULE
3R540
247   249    1
SMALL
USER_CHARGES


@<TRIPOS>ATOM
      1 CA          4.0596  -20.5500  -45.0701 C.3       0 UNK        -0.1800 
      2 C           3.5473  -19.1391  -44.8203 C.2       0 UNK         0.5000 
      3 O           3.0239  -18.8653  -43.7407 O.2       0 UNK        -0.5000 
      4 N           3.6979  -18.2480  -45.8090 N.am      1 UNK        -0.5000 
      5 CA          3.3669  -16.8228  -45.7075 C.3       1 UNK         0.1400 
      6 C6          3.3028  -16.1337  -47.0951 C.3       23 UNK        -0.0398 
      7 S7          4.8272  -16.2939  -48.0901 S.3       23 UNK        -0.2404 
      8 C8          4.2018  -15.9834  -49.7779 C.3       23 UNK        -0.0205 
      9 C9          3.2443  -17.0504  -50.3052 C.ar      23 UNK        -0.0193 
     10 C10         2.1493  -16.6699  -51.0875 C.ar      23 UNK        -0.1150 
     11 C11         1.2662  -17.6229  -51.6066 C.ar      23 UNK        -0.0193 
     12 C12         1.4866  -18.9764  -51.3205 C.ar      23 UNK        -0.1150 
     13 C13         2.5715  -19.3746  -50.5347 C.ar      23 UNK        -0.0193 
     14 C14         3.4578  -18.4089  -50.0509 C.ar      23 UNK        -0.1150 
     15 C15         2.7826  -20.8492  -50.2116 C.3       23 UNK        -0.0205 
     16 S16         2.9311  -21.1694  -48.4210 S.3       23 UNK        -0.2404 
     17 C17         1.3361  -20.5471  -47.7890 C.3       23 UNK        -0.0398 
     18 CA          0.3703  -21.6729  -47.3553 C.3       11 UNK         0.1400 
     19 N          -0.6749  -21.1656  -46.4624 N.am      11 UNK        -0.5000 
     20 C          -1.6012  -21.9148  -45.8475 C.2       10 UNK         0.5000 
     21 O          -1.6287  -23.1442  -45.8883 O.2       10 UNK        -0.5000 
     22 CA         -2.7233  -21.1563  -45.1177 C.3       10 UNK         0.1400 
     23 CB         -2.2850  -20.7371  -43.7061 C.3       10 UNK        -0.1800 
     24 N          -3.1607  -19.9831  -45.8770 N.am      10 UNK        -0.5000 
     25 C          -3.8586  -20.0473  -47.0208 C.2       9 UNK         0.5000 
     26 O          -4.2655  -21.0996  -47.5120 O.2       9 UNK        -0.5000 
     27 CA         -4.1030  -18.7214  -47.7665 C.3       9 UNK         0.1400 
     28 CB         -5.3832  -18.0385  -47.2659 C.3       9 UNK        -0.1800 
     29 N          -2.9752  -17.7946  -47.6571 N.am      9 UNK        -0.5000 
     30 C          -1.7786  -18.0070  -48.2236 C.2       8 UNK         0.5000 
     31 O          -1.5250  -18.9888  -48.9174 O.2       8 UNK        -0.5000 
     32 CA         -0.6595  -17.0015  -47.8975 C.3       8 UNK         0.1400 
     33 CB         -0.6584  -15.8268  -48.8818 C.3       8 UNK        -0.1800 
     34 N          -0.7425  -16.4777  -46.5345 N.am      8 UNK        -0.5000 
     35 C          -0.5862  -17.2022  -45.4195 C.2       7 UNK         0.5000 
     36 O          -0.3657  -18.4134  -45.4408 O.2       7 UNK        -0.5000 
     37 CA         -0.7597  -16.4741  -44.0653 C.3       7 UNK         0.1400 
     38 CB          0.2960  -16.8950  -43.0234 C.3       7 UNK        -0.1800 
     39 N          -0.8549  -15.0071  -44.1434 N.am      7 UNK        -0.5000 
     40 C           0.0701  -14.1469  -44.5984 C.2       6 UNK         0.5000 
     41 O           1.1578  -14.4834  -45.0626 O.2       6 UNK        -0.5000 
     42 CA         -0.2774  -12.6611  -44.4818 C.3       6 UNK         0.1400 
     43 CB         -1.6063  -12.3036  -45.1747 C.3       6 UNK        -0.1800 
     44 N          -0.3145  -12.3221  -43.0655 N.am      6 UNK        -0.5000 
     45 C          -0.0395  -11.1165  -42.5607 C.2       5 UNK         0.5000 
     46 O           0.1275  -10.1060  -43.2460 O.2       5 UNK        -0.5000 
     47 CA          0.1254  -11.0231  -41.0371 C.3       5 UNK         0.1400 
     48 CB         -0.4281  -12.2317  -40.2520 C.3       5 UNK        -0.1800 
     49 N           1.5503  -10.8776  -40.7719 N.am      5 UNK        -0.5000 
     50 C           2.0883  -10.1489  -39.7872 C.2       4 UNK         0.5000 
     51 O           1.4228   -9.5444  -38.9450 O.2       4 UNK        -0.5000 
     52 CA          3.6291  -10.0820  -39.7190 C.3       4 UNK         0.1400 
     53 CB          4.1540  -10.9795  -38.5872 C.3       4 UNK        -0.1800 
     54 N           4.2901  -10.4704  -40.9671 N.am      4 UNK        -0.5000 
     55 C           4.2862   -9.7560  -42.1015 C.2       3 UNK         0.5000 
     56 O           3.7740   -8.6408  -42.2017 O.2       3 UNK        -0.5000 
     57 CA          4.9571  -10.3962  -43.3348 C.3       3 UNK         0.1400 
     58 CB          6.3259   -9.7491  -43.5980 C.3       3 UNK        -0.1800 
     59 N           5.1328  -11.8501  -43.2343 N.am      3 UNK        -0.5000 
     60 C           4.1375  -12.7460  -43.2460 C.2       2 UNK         0.5000 
     61 O           2.9450  -12.4438  -43.2994 O.2       2 UNK        -0.5000 
     62 CA          4.5409  -14.2185  -43.1194 C.3       2 UNK         0.1400 
     63 CB          4.2357  -14.7463  -41.7072 C.3       2 UNK        -0.1800 
     64 N           3.8148  -15.0136  -44.1048 N.am      2 UNK        -0.5000 
     65 C           4.3119  -16.0875  -44.7276 C.2       1 UNK         0.5000 
     66 O           5.4637  -16.4986  -44.5561 O.2       1 UNK        -0.5000 
     67 C          -0.2313  -22.4084  -48.5716 C.2       11 UNK         0.5000 
     68 O           0.1863  -23.5260  -48.8740 O.2       11 UNK        -0.5000 
     69 N          -1.2381  -21.7930  -49.2093 N.am      12 UNK        -0.5000 
     70 CA         -2.0127  -22.3767  -50.3020 C.3       12 UNK         0.1400 
     71 CB         -3.0128  -21.3481  -50.8439 C.3       12 UNK        -0.1800 
     72 C          -2.7390  -23.6618  -49.8788 C.2       12 UNK         0.5000 
     73 O          -2.6330  -24.6648  -50.5795 O.2       12 UNK        -0.5000 
     74 N          -3.4222  -23.6343  -48.7260 N.am      13 UNK        -0.5000 
     75 CA         -4.1108  -24.7928  -48.1549 C.3       13 UNK         0.1400 
     76 CB         -4.9076  -24.3695  -46.9133 C.3       13 UNK        -0.1800 
     77 C          -3.1645  -25.9667  -47.8395 C.2       13 UNK         0.5000 
     78 O          -3.4928  -27.1077  -48.1655 O.2       13 UNK        -0.5000 
     79 N          -1.9850  -25.6659  -47.2775 N.am      14 UNK        -0.5000 
     80 CA         -0.9104  -26.6309  -47.0248 C.3       14 UNK         0.1400 
     81 CB          0.1913  -25.9615  -46.1894 C.3       14 UNK        -0.1800 
     82 C          -0.3241  -27.2400  -48.3152 C.2       14 UNK         0.5000 
     83 O           0.0502  -28.4130  -48.3182 O.2       14 UNK        -0.5000 
     84 N          -0.2937  -26.4484  -49.3949 N.am      15 UNK        -0.5000 
     85 CA          0.1072  -26.8575  -50.7429 C.3       15 UNK         0.1400 
     86 CB          0.6121  -25.6180  -51.5016 C.3       15 UNK        -0.1800 
     87 C          -1.0143  -27.5713  -51.5326 C.2       15 UNK         0.5000 
     88 O          -0.7905  -27.9284  -52.6900 O.2       15 UNK        -0.5000 
     89 N          -2.1901  -27.7612  -50.9126 N.am      16 UNK        -0.5000 
     90 CA         -3.4108  -28.3637  -51.4619 C.3       16 UNK         0.1400 
     91 CB         -3.1782  -29.8300  -51.8831 C.3       16 UNK        -0.1800 
     92 C          -4.0794  -27.5123  -52.5640 C.2       16 UNK         0.5000 
     93 O          -4.7879  -28.0501  -53.4162 O.2       16 UNK        -0.5000 
     94 N          -3.8809  -26.1912  -52.4988 N.am      17 UNK        -0.5000 
     95 CA         -4.4860  -25.1704  -53.3509 C.3       17 UNK         0.1400 
     96 CB         -3.3687  -24.3165  -53.9767 C.3       17 UNK        -0.1800 
     97 C          -5.4783  -24.3249  -52.5277 C.2       17 UNK         0.5000 
     98 O          -5.5625  -23.1077  -52.7052 O.2       17 UNK        -0.5000 
     99 N          -6.2343  -24.9855  -51.6382 N.am      18 UNK        -0.5000 
    100 CA        -7.2367  -24.3778  -50.7548 C.3       18 UNK         0.1400 
    101 CB        -7.7886  -25.4565  -49.8094 C.3       18 UNK        -0.1800 
    102 C         -8.3930  -23.6834  -51.5040 C.2       18 UNK         0.5000 
    103 O         -9.0146  -22.7764  -50.9523 O.2       18 UNK        -0.5000 
    104 N         -8.6470  -24.1080  -52.7494 N.am      19 UNK        -0.5000 
    105 CA        -9.6021  -23.4862  -53.6652 C.3       19 UNK         0.1400 
    106 CB        -9.9134  -24.4720  -54.8019 C.3       19 UNK        -0.1800 
    107 C         -9.1050  -22.1435  -54.2389 C.2       19 UNK         0.5000 
    108 O         -9.9342  -21.3158  -54.6192 O.2       19 UNK        -0.5000 
    109 N         -7.7787  -21.9479  -54.3027 N.am      20 UNK        -0.5000 
    110 CA        -7.1551  -20.7052  -54.7552 C.3       20 UNK         0.1400 
    111 CB        -5.7586  -20.9901  -55.3338 C.3       20 UNK        -0.1800 
    112 C         -7.0873  -19.6889  -53.6058 C.2       20 UNK         0.5000 
    113 O         -7.5653  -18.5663  -53.7708 O.2       20 UNK        -0.5000 
    114 N         -6.5229  -20.1212  -52.4641 N.am      21 UNK        -0.5000 
    115 CA        -6.4037  -19.3813  -51.1993 C.3       21 UNK         0.1400 
    116 CB        -7.7692  -19.3338  -50.4851 C.3       21 UNK        -0.1800 
    117 C         -5.7722  -17.9805  -51.3678 C.2       21 UNK         0.5000 
    118 O         -6.3743  -16.9796  -50.9770 O.2       21 UNK        -0.5000 
    119 N         -4.5787  -17.9444  -51.9735 N.am      22 UNK        -0.5000 
    120 CA        -3.8185  -16.7571  -52.4216 C.3       22 UNK         0.1400 
    121 C         -3.4406  -15.6671  -51.3638 C.2       22 UNK         0.5000 
    122 N         -4.0381  -15.6393  -50.1823 N.am      22 UNK        -0.7600 
    123 O         -2.6071  -14.8059  -51.6311 O.2       22 UNK        -0.5000 
    124 C124       -2.6087  -17.1848  -53.2979 C.3       23 UNK        -0.0398 
    125 S125       -1.3838  -18.1955  -52.3956 S.3       23 UNK        -0.2404 
    126 C126        0.1136  -17.1584  -52.4991 C.3       23 UNK        -0.0205 
    127 H127        4.6716  -20.8821  -44.2315 H         1 UNK         0.0600 
    128 H128        4.6686  -20.6041  -45.9725 H         1 UNK         0.0600 
    129 H129        3.2225  -21.2400  -45.1774 H         1 UNK         0.0600 
    130 H130        4.1708  -18.5194  -46.6588 H         1 UNK         0.3000 
    131 H131        2.3645  -16.7737  -45.2847 H         1 UNK         0.0600 
    132 H132        3.0634  -15.0742  -46.9896 H         1 UNK         0.0800 
    133 H133        2.4748  -16.5633  -47.6586 H         1 UNK         0.0800 
    134 H134        3.7253  -15.0019  -49.7926 H         1 UNK         0.0800 
    135 H135        5.0530  -15.9228  -50.4569 H         1 UNK         0.0800 
    136 H136        1.9896  -15.6232  -51.3059 H         1 UNK         0.1150 
    137 H137        0.8147  -19.7271  -51.7109 H         1 UNK         0.1150 
    138 H138        4.3083  -18.7205  -49.4618 H         1 UNK         0.1150 
    139 H139        1.9676  -21.4561  -50.6097 H         1 UNK         0.0800 
    140 H140        3.6919  -21.1910  -50.7073 H         1 UNK         0.0800 
    141 H141        1.5638  -19.9116  -46.9334 H         1 UNK         0.0800 
    142 H142        0.8687  -19.8882  -48.5194 H         1 UNK         0.0800 
    143 H143        0.9385  -22.4052  -46.7776 H         1 UNK         0.0600 
    144 H144       -0.6989  -20.1615  -46.3159 H         1 UNK         0.3000 
    145 H145       -3.5740  -21.8336  -45.0166 H         1 UNK         0.0600 
    146 H146       -3.0895  -20.2238  -43.1794 H         1 UNK         0.0600 
    147 H147       -2.0132  -21.6101  -43.1114 H         1 UNK         0.0600 
    148 H148       -1.4196  -20.0752  -43.7241 H         1 UNK         0.0600 
    149 H149       -2.8244  -19.0861  -45.5618 H         1 UNK         0.3000 
    150 H150       -4.2375  -18.9600  -48.8229 H         1 UNK         0.0600 
    151 H151       -6.2398  -18.7090  -47.3471 H         1 UNK         0.0600 
    152 H152       -5.6120  -17.1495  -47.8539 H         1 UNK         0.0600 
    153 H153       -5.2988  -17.7387  -46.2207 H         1 UNK         0.0600 
    154 H154       -3.1090  -16.9665  -47.0966 H         1 UNK         0.3000 
    155 H155        0.2895  -17.5307  -48.0022 H         1 UNK         0.0600 
    156 H156        0.2377  -15.2168  -48.7665 H         1 UNK         0.0600 
    157 H157       -1.5257  -15.1813  -48.7437 H         1 UNK         0.0600 
    158 H158       -0.6789  -16.1832  -49.9105 H         1 UNK         0.0600 
    159 H159       -0.9116  -15.4882  -46.4364 H         1 UNK         0.3000 
    160 H160       -1.7264  -16.8127  -43.6901 H         1 UNK         0.0600 
    161 H161        1.2935  -16.5406  -43.2777 H         1 UNK         0.0600 
    162 H162        0.3508  -17.9802  -42.9281 H         1 UNK         0.0600 
    163 H163        0.0495  -16.4994  -42.0382 H         1 UNK         0.0600 
    164 H164       -1.7250  -14.6206  -43.8040 H         1 UNK         0.3000 
    165 H165        0.5288  -12.1038  -44.9646 H         1 UNK         0.0600 
    166 H166       -2.4645  -12.7579  -44.6789 H         1 UNK         0.0600 
    167 H167       -1.7640  -11.2250  -45.1814 H         1 UNK         0.0600 
    168 H168       -1.6076  -12.6358  -46.2136 H         1 UNK         0.0600 
    169 H169       -0.3846  -13.1043  -42.4297 H         1 UNK         0.3000 
    170 H170       -0.4084  -10.1253  -40.7183 H         1 UNK         0.0600 
    171 H171       -1.4807  -12.4028  -40.4810 H         1 UNK         0.0600 
    172 H172        0.1204  -13.1492  -40.4695 H         1 UNK         0.0600 
    173 H173       -0.3596  -12.0585  -39.1779 H         1 UNK         0.0600 
    174 H174        2.1638  -11.2998  -41.4591 H         1 UNK         0.3000 
    175 H175        3.9025   -9.0492  -39.4934 H         1 UNK         0.0600 
    176 H176        3.9194  -12.0298  -38.7653 H         1 UNK         0.0600 
    177 H177        5.2351  -10.8892  -38.4803 H         1 UNK         0.0600 
    178 H178        3.7105  -10.7020  -37.6300 H         1 UNK         0.0600 
    179 H179        4.7499  -11.3683  -40.9742 H         1 UNK         0.3000 
    180 H180        4.3128  -10.1937  -44.1930 H         1 UNK         0.0600 
    181 H181        6.2326   -8.6683  -43.7131 H         1 UNK         0.0600 
    182 H182        6.7748  -10.1332  -44.5142 H         1 UNK         0.0600 
    183 H183        7.0219   -9.9328  -42.7786 H         1 UNK         0.0600 
    184 H184        6.0860  -12.1784  -43.1706 H         1 UNK         0.3000 
    185 H185        5.6154  -14.2949  -43.2994 H         1 UNK         0.0600 
    186 H186        4.7579  -14.1629  -40.9479 H         1 UNK         0.0600 
    187 H187        3.1689  -14.7002  -41.4836 H         1 UNK         0.0600 
    188 H188        4.5545  -15.7830  -41.5971 H         1 UNK         0.0600 
    189 H189        2.8762  -14.6871  -44.3322 H         1 UNK         0.3000 
    190 H190       -1.4753  -20.8390  -48.9464 H         1 UNK         0.3000 
    191 H191       -1.3141  -22.6284  -51.1023 H         1 UNK         0.0600 
    192 H192       -3.5067  -21.7180  -51.7421 H         1 UNK         0.0600 
    193 H193       -2.5141  -20.4187  -51.1058 H         1 UNK         0.0600 
    194 H194       -3.7843  -21.1156  -50.1126 H         1 UNK         0.0600 
    195 H195       -3.5008  -22.7583  -48.2179 H         1 UNK         0.3000 
    196 H196       -4.8188  -25.1441  -48.9063 H         1 UNK         0.0600 
    197 H197       -5.4566  -25.2141  -46.4951 H         1 UNK         0.0600 
    198 H198       -5.6367  -23.5969  -47.1584 H         1 UNK         0.0600 
    199 H199       -4.2567  -23.9799  -46.1307 H         1 UNK         0.0600 
    200 H200       -1.8066  -24.7042  -46.9989 H         1 UNK         0.3000 
    201 H201       -1.3312  -27.4493  -46.4371 H         1 UNK         0.0600 
    202 H202       -0.2012  -25.5965  -45.2401 H         1 UNK         0.0600 
    203 H203        0.6364  -25.1155  -46.7135 H         1 UNK         0.0600 
    204 H204        0.9922  -26.6659  -45.9617 H         1 UNK         0.0600 
    205 H205       -0.5770  -25.4801  -49.2902 H         1 UNK         0.3000 
    206 H206        0.9380  -27.5611  -50.6611 H         1 UNK         0.0600 
    207 H207        1.4206  -25.1263  -50.9602 H         1 UNK         0.0600 
    208 H208        0.9987  -25.8880  -52.4849 H         1 UNK         0.0600 
    209 H209       -0.1817  -24.8865  -51.6517 H         1 UNK         0.0600 
    210 H210       -2.2802  -27.4073  -49.9679 H         1 UNK         0.3000 
    211 H211       -4.1225  -28.3787  -50.6356 H         1 UNK         0.0600 
    212 H212       -2.5473  -29.9050  -52.7689 H         1 UNK         0.0600 
    213 H213       -4.1225  -30.3235  -52.1155 H         1 UNK         0.0600 
    214 H214       -2.7050  -30.3997  -51.0833 H         1 UNK         0.0600 
    215 H215       -3.3090  -25.8200  -51.7399 H         1 UNK         0.3000 
    216 H216       -5.0539  -25.6332  -54.1599 H         1 UNK         0.0600 
    217 H217       -3.7772  -23.5807  -54.6701 H         1 UNK         0.0600 
    218 H218       -2.6692  -24.9365  -54.5375 H         1 UNK         0.0600 
    219 H219       -2.8008  -23.7765  -53.2186 H         1 UNK         0.0600 
    220 H220       -6.1100  -25.9838  -51.5596 H         1 UNK         0.3000 
    221 H221       -6.7315  -23.6173  -50.1553 H         1 UNK         0.0600 
    222 H222       -8.3068  -26.2436  -50.3587 H         1 UNK         0.0600 
    223 H223       -6.9971  -25.9240  -49.2249 H         1 UNK         0.0600 
    224 H224       -8.5003  -25.0276  -49.1025 H         1 UNK         0.0600 
    225 H225       -8.1031  -24.8763  -53.1127 H         1 UNK         0.3000 
    226 H226      -10.5280  -23.2908  -53.1200 H         1 UNK         0.0600 
    227 H227      -10.3285  -25.4028  -54.4147 H         1 UNK         0.0600 
    228 H228      -10.6470  -24.0532  -55.4921 H         1 UNK         0.0600 
    229 H229       -9.0210  -24.7157  -55.3798 H         1 UNK         0.0600 
    230 H230       -7.1575  -22.6416  -53.9050 H         1 UNK         0.3000 
    231 H231       -7.7590  -20.2731  -55.5563 H         1 UNK         0.0600 
    232 H232       -5.3177  -20.0798  -55.7416 H         1 UNK         0.0600 
    233 H233       -5.8091  -21.7175  -56.1441 H         1 UNK         0.0600 
    234 H234       -5.0686  -21.3740  -54.5830 H         1 UNK         0.0600 
    235 H235       -6.1606  -21.0688  -52.4557 H         1 UNK         0.3000 
    236 H236       -5.7285  -19.9532  -50.5640 H         1 UNK         0.0600 
    237 H237       -8.1512  -20.3369  -50.3011 H         1 UNK         0.0600 
    238 H238       -7.6900  -18.8378  -49.5171 H         1 UNK         0.0600 
    239 H239       -8.5139  -18.7945  -51.0714 H         1 UNK         0.0600 
    240 H240       -4.1565  -18.8256  -52.2252 H         1 UNK         0.3000 
    241 H241       -4.4998  -16.2290  -53.0905 H         1 UNK         0.0600 
    242 H242       -4.8550  -16.2219  -50.0465 H         1 UNK         0.3800 
    243 H243       -3.8151  -14.9075  -49.5290 H         1 UNK         0.3800 
    244 H244       -2.9635  -17.7740  -54.1445 H         1 UNK         0.0800 
    245 H245       -2.1229  -16.3143  -53.7418 H         1 UNK         0.0800 
    246 H246       -0.1583  -16.1329  -52.2447 H         1 UNK         0.0800 
    247 H247        0.4592  -17.1410  -53.5333 H         1 UNK         0.0800 
@<TRIPOS>BOND
     1    1    2 1    
     2    1  127 1    
     3    1  128 1    
     4    1  129 1    
     5    2    3 2    
     6    2    4 am   BACKBONE|DICT|INTERRES
     7    4    5 1    
     8    4  130 1    
     9    5    6 1    
    10    5   65 1    
    11    5  131 1    
    12    6    7 1    
    13    6  132 1    
    14    6  133 1    
    15    7    8 1    
    16    8    9 1    
    17    8  134 1    
    18    8  135 1    
    19    9   10 ar   
    20    9   14 ar   
    21   10   11 ar   
    22   10  136 1    
    23   11   12 ar   
    24   11  126 1    
    25   12   13 ar   
    26   12  137 1    
    27   13   14 ar   
    28   13   15 1    
    29   14  138 1    
    30   15   16 1    
    31   15  139 1    
    32   15  140 1    
    33   16   17 1    
    34   17   18 1    
    35   17  141 1    
    36   17  142 1    
    37   18   19 1    
    38   18   67 1    
    39   18  143 1    
    40   19   20 am   BACKBONE|DICT|INTERRES
    41   19  144 1    
    42   20   21 2    
    43   20   22 1    
    44   22   23 1    
    45   22   24 1    
    46   22  145 1    
    47   23  146 1    
    48   23  147 1    
    49   23  148 1    
    50   24   25 am   BACKBONE|DICT|INTERRES
    51   24  149 1    
    52   25   26 2    
    53   25   27 1    
    54   27   28 1    
    55   27   29 1    
    56   27  150 1    
    57   28  151 1    
    58   28  152 1    
    59   28  153 1    
    60   29   30 am   BACKBONE|DICT|INTERRES
    61   29  154 1    
    62   30   31 2    
    63   30   32 1    
    64   32   33 1    
    65   32   34 1    
    66   32  155 1    
    67   33  156 1    
    68   33  157 1    
    69   33  158 1    
    70   34   35 am   BACKBONE|DICT|INTERRES
    71   34  159 1    
    72   35   36 2    
    73   35   37 1    
    74   37   38 1    
    75   37   39 1    
    76   37  160 1    
    77   38  161 1    
    78   38  162 1    
    79   38  163 1    
    80   39   40 am   BACKBONE|DICT|INTERRES
    81   39  164 1    
    82   40   41 2    
    83   40   42 1    
    84   42   43 1    
    85   42   44 1    
    86   42  165 1    
    87   43  166 1    
    88   43  167 1    
    89   43  168 1    
    90   44   45 am   BACKBONE|DICT|INTERRES
    91   44  169 1    
    92   45   46 2    
    93   45   47 1    
    94   47   48 1    
    95   47   49 1    
    96   47  170 1    
    97   48  171 1    
    98   48  172 1    
    99   48  173 1    
   100   49   50 am   BACKBONE|DICT|INTERRES
   101   49  174 1    
   102   50   51 2    
   103   50   52 1    
   104   52   53 1    
   105   52   54 1    
   106   52  175 1    
   107   53  176 1    
   108   53  177 1    
   109   53  178 1    
   110   54   55 am   BACKBONE|DICT|INTERRES
   111   54  179 1    
   112   55   56 2    
   113   55   57 1    
   114   57   58 1    
   115   57   59 1    
   116   57  180 1    
   117   58  181 1    
   118   58  182 1    
   119   58  183 1    
   120   59   60 am   BACKBONE|DICT|INTERRES
   121   59  184 1    
   122   60   61 2    
   123   60   62 1    
   124   62   63 1    
   125   62   64 1    
   126   62  185 1    
   127   63  186 1    
   128   63  187 1    
   129   63  188 1    
   130   64   65 am   BACKBONE|DICT|INTERRES
   131   64  189 1    
   132   65   66 2    
   133   67   68 2    
   134   67   69 am   BACKBONE|DICT|INTERRES
   135   69   70 1    
   136   69  190 1    
   137   70   71 1    
   138   70   72 1    
   139   70  191 1    
   140   71  192 1    
   141   71  193 1    
   142   71  194 1    
   143   72   73 2    
   144   72   74 am   BACKBONE|DICT|INTERRES
   145   74   75 1    
   146   74  195 1    
   147   75   76 1    
   148   75   77 1    
   149   75  196 1    
   150   76  197 1    
   151   76  198 1    
   152   76  199 1    
   153   77   78 2    
   154   77   79 am   BACKBONE|DICT|INTERRES
   155   79   80 1    
   156   79  200 1    
   157   80   81 1    
   158   80   82 1    
   159   80  201 1    
   160   81  202 1    
   161   81  203 1    
   162   81  204 1    
   163   82   83 2    
   164   82   84 am   BACKBONE|DICT|INTERRES
   165   84   85 1    
   166   84  205 1    
   167   85   86 1    
   168   85   87 1    
   169   85  206 1    
   170   86  207 1    
   171   86  208 1    
   172   86  209 1    
   173   87   88 2    
   174   87   89 am   BACKBONE|DICT|INTERRES
   175   89   90 1    
   176   89  210 1    
   177   90   91 1    
   178   90   92 1    
   179   90  211 1    
   180   91  212 1    
   181   91  213 1    
   182   91  214 1    
   183   92   93 2    
   184   92   94 am   BACKBONE|DICT|INTERRES
   185   94   95 1    
   186   94  215 1    
   187   95   96 1    
   188   95   97 1    
   189   95  216 1    
   190   96  217 1    
   191   96  218 1    
   192   96  219 1    
   193   97   98 2    
   194   97   99 am   BACKBONE|DICT|INTERRES
   195   99  100 1    
   196   99  220 1    
   197  100  101 1    
   198  100  102 1    
   199  100  221 1    
   200  101  222 1    
   201  101  223 1    
   202  101  224 1    
   203  102  103 2    
   204  102  104 am   BACKBONE|DICT|INTERRES
   205  104  105 1    
   206  104  225 1    
   207  105  106 1    
   208  105  107 1    
   209  105  226 1    
   210  106  227 1    
   211  106  228 1    
   212  106  229 1    
   213  107  108 2    
   214  107  109 am   BACKBONE|DICT|INTERRES
   215  109  110 1    
   216  109  230 1    
   217  110  111 1    
   218  110  112 1    
   219  110  231 1    
   220  111  232 1    
   221  111  233 1    
   222  111  234 1    
   223  112  113 2    
   224  112  114 am   BACKBONE|DICT|INTERRES
   225  114  115 1    
   226  114  235 1    
   227  115  116 1    
   228  115  117 1    
   229  115  236 1    
   230  116  237 1    
   231  116  238 1    
   232  116  239 1    
   233  117  118 2    
   234  117  119 am   BACKBONE|DICT|INTERRES
   235  119  120 1    
   236  119  240 1    
   237  120  121 1    
   238  120  124 1    
   239  120  241 1    
   240  121  122 am   BACKBONE|DICT|INTERRES
   241  121  123 2    
   242  122  242 1    
   243  122  243 1    
   244  124  125 1    
   245  124  244 1    
   246  124  245 1    
   247  125  126 1    
   248  126  246 1    
   249  126  247 1    
@<TRIPOS>SUBSTRUCTURE
     1 UNK         1 GROUP             0       ****    0 ROOT    
