@<TRIPOS>MOLECULE
3R540
247   249    1
SMALL
USER_CHARGES


@<TRIPOS>ATOM
      1 CA         -6.7133  -14.0802  -47.6613 C.3       0 UNK        -0.1800 
      2 C          -5.2075  -14.0334  -47.4468 C.2       0 UNK         0.5000 
      3 O          -4.7417  -13.3981  -46.5009 O.2       0 UNK        -0.5000 
      4 N          -4.4471  -14.7246  -48.3098 N.am      1 UNK        -0.5000 
      5 CA         -2.9740  -14.7828  -48.3094 C.3       1 UNK         0.1400 
      6 C6         -2.4168  -15.5707  -49.5319 C.3       23 UNK        -0.0398 
      7 S7         -1.1201  -14.6503  -50.4261 S.3       23 UNK        -0.2404 
      8 C8          0.4119  -15.3183  -49.7052 C.3       23 UNK        -0.0205 
      9 C9          0.8312  -16.6369  -50.3386 C.ar      23 UNK        -0.0193 
     10 C10         1.5463  -16.6269  -51.5402 C.ar      23 UNK        -0.1150 
     11 C11         1.9719  -17.8223  -52.1246 C.ar      23 UNK        -0.0193 
     12 C12         1.6778  -19.0356  -51.4977 C.ar      23 UNK        -0.1150 
     13 C13         0.9548  -19.0618  -50.3025 C.ar      23 UNK        -0.0193 
     14 C14         0.5369  -17.8591  -49.7222 C.ar      23 UNK        -0.1150 
     15 C15         0.6166  -20.3962  -49.6592 C.3       23 UNK        -0.0205 
     16 S16         1.9076  -20.9095  -48.4841 S.3       23 UNK        -0.2404 
     17 C17         1.7016  -22.7214  -48.4492 C.3       23 UNK        -0.0398 
     18 CA          0.7681  -23.2925  -47.3527 C.3       11 UNK         0.1400 
     19 N           1.0960  -22.8723  -45.9857 N.am      11 UNK        -0.5000 
     20 C           0.8001  -23.6176  -44.9085 C.2       10 UNK         0.5000 
     21 O           0.2972  -24.7397  -44.9769 O.2       10 UNK        -0.5000 
     22 CA          1.0757  -23.0151  -43.5185 C.3       10 UNK         0.1400 
     23 CB          2.5530  -23.1763  -43.1304 C.3       10 UNK        -0.1800 
     24 N           0.6799  -21.6128  -43.4016 N.am      10 UNK        -0.5000 
     25 C          -0.5727  -21.1573  -43.5472 C.2       9 UNK         0.5000 
     26 O          -1.5395  -21.8751  -43.7997 O.2       9 UNK        -0.5000 
     27 CA         -0.7740  -19.6361  -43.4303 C.3       9 UNK         0.1400 
     28 CB         -0.9175  -19.2181  -41.9599 C.3       9 UNK        -0.1800 
     29 N           0.3033  -18.8743  -44.0637 N.am      9 UNK        -0.5000 
     30 C           0.6089  -18.9363  -45.3680 C.2       8 UNK         0.5000 
     31 O          -0.0374  -19.5875  -46.1859 O.2       8 UNK        -0.5000 
     32 CA          1.8725  -18.1891  -45.8229 C.3       8 UNK         0.1400 
     33 CB          1.5757  -16.7060  -46.0706 C.3       8 UNK        -0.1800 
     34 N           2.9595  -18.3313  -44.8565 N.am      8 UNK        -0.5000 
     35 C           3.6486  -19.4655  -44.6628 C.2       7 UNK         0.5000 
     36 O           3.4824  -20.4898  -45.3240 O.2       7 UNK        -0.5000 
     37 CA          4.6705  -19.4652  -43.5100 C.3       7 UNK         0.1400 
     38 CB          6.0300  -18.9388  -43.9934 C.3       7 UNK        -0.1800 
     39 N           4.2250  -18.6698  -42.3645 N.am      7 UNK        -0.5000 
     40 C           3.1846  -18.9858  -41.5797 C.2       6 UNK         0.5000 
     41 O           2.5321  -20.0218  -41.7000 O.2       6 UNK        -0.5000 
     42 CA          2.7722  -17.9398  -40.5239 C.3       6 UNK         0.1400 
     43 CB          3.5394  -18.1638  -39.2126 C.3       6 UNK        -0.1800 
     44 N           2.9767  -16.5602  -40.9802 N.am      6 UNK        -0.5000 
     45 C           2.3348  -16.0101  -42.0191 C.2       5 UNK         0.5000 
     46 O           1.4635  -16.5946  -42.6658 O.2       5 UNK        -0.5000 
     47 CA          2.8092  -14.6206  -42.4627 C.3       5 UNK         0.1400 
     48 CB          4.1525  -14.7532  -43.2136 C.3       5 UNK        -0.1800 
     49 N           1.7964  -14.0200  -43.3293 N.am      5 UNK        -0.5000 
     50 C           1.8112  -12.7652  -43.7958 C.2       4 UNK         0.5000 
     51 O           2.6694  -11.9338  -43.4958 O.2       4 UNK        -0.5000 
     52 CA          0.6839  -12.3597  -44.7637 C.3       4 UNK         0.1400 
     53 CB          1.0552  -12.7338  -46.2072 C.3       4 UNK        -0.1800 
     54 N          -0.6222  -12.9312  -44.4283 N.am      4 UNK        -0.5000 
     55 C          -1.3455  -12.5742  -43.3546 C.2       3 UNK         0.5000 
     56 O          -0.9471  -11.7717  -42.5090 O.2       3 UNK        -0.5000 
     57 CA         -2.7602  -13.1714  -43.1966 C.3       3 UNK         0.1400 
     58 CB         -3.8274  -12.1016  -43.4767 C.3       3 UNK        -0.1800 
     59 N          -3.0152  -14.3238  -44.0598 N.am      3 UNK        -0.5000 
     60 C          -2.5085  -15.5473  -43.8542 C.2       2 UNK         0.5000 
     61 O          -1.8144  -15.8333  -42.8807 O.2       2 UNK        -0.5000 
     62 CA         -2.8123  -16.6316  -44.9102 C.3       2 UNK         0.1400 
     63 CB         -3.9688  -17.5207  -44.4264 C.3       2 UNK        -0.1800 
     64 N          -3.1457  -16.1129  -46.2395 N.am      2 UNK        -0.5000 
     65 C          -2.3734  -15.3072  -46.9840 C.2       1 UNK         0.5000 
     66 O          -1.2563  -14.9329  -46.6332 O.2       1 UNK        -0.5000 
     67 C          -0.7245  -23.0877  -47.6725 C.2       11 UNK         0.5000 
     68 O          -1.3284  -23.9705  -48.2826 O.2       11 UNK        -0.5000 
     69 N          -1.3173  -21.9692  -47.2262 N.am      12 UNK        -0.5000 
     70 CA         -2.7292  -21.6367  -47.4455 C.3       12 UNK         0.1400 
     71 CB         -3.0091  -20.2048  -46.9740 C.3       12 UNK        -0.1800 
     72 C          -3.7110  -22.6242  -46.7888 C.2       12 UNK         0.5000 
     73 O          -4.8194  -22.7888  -47.2925 O.2       12 UNK        -0.5000 
     74 N          -3.2838  -23.3060  -45.7184 N.am      13 UNK        -0.5000 
     75 CA         -4.0202  -24.3996  -45.0817 C.3       13 UNK         0.1400 
     76 CB         -3.2858  -24.8194  -43.7994 C.3       13 UNK        -0.1800 
     77 C          -4.2397  -25.6211  -46.0011 C.2       13 UNK         0.5000 
     78 O          -5.2077  -26.3549  -45.7970 O.2       13 UNK        -0.5000 
     79 N          -3.3544  -25.8146  -46.9891 N.am      14 UNK        -0.5000 
     80 CA         -3.4309  -26.8858  -47.9812 C.3       14 UNK         0.1400 
     81 CB         -2.0501  -27.5496  -48.1075 C.3       14 UNK        -0.1800 
     82 C          -3.8996  -26.3552  -49.3468 C.2       14 UNK         0.5000 
     83 O          -4.7543  -26.9763  -49.9790 O.2       14 UNK        -0.5000 
     84 N          -3.3275  -25.2258  -49.7845 N.am      15 UNK        -0.5000 
     85 CA         -3.5382  -24.6393  -51.1104 C.3       15 UNK         0.1400 
     86 CB         -2.3155  -23.7772  -51.4559 C.3       15 UNK        -0.1800 
     87 C          -4.8258  -23.8029  -51.2403 C.2       15 UNK         0.5000 
     88 O          -5.1973  -23.4654  -52.3644 O.2       15 UNK        -0.5000 
     89 N          -5.4566  -23.4820  -50.1018 N.am      16 UNK        -0.5000 
     90 CA         -6.5639  -22.5462  -49.8863 C.3       16 UNK         0.1400 
     91 CB         -7.7652  -22.8043  -50.8162 C.3       16 UNK        -0.1800 
     92 C          -6.0881  -21.0822  -49.9382 C.2       16 UNK         0.5000 
     93 O          -5.3110  -20.6969  -50.8170 O.2       16 UNK        -0.5000 
     94 N          -6.5679  -20.2792  -48.9804 N.am      17 UNK        -0.5000 
     95 CA         -6.2818  -18.8494  -48.8818 C.3       17 UNK         0.1400 
     96 CB         -6.8171  -18.3090  -47.5473 C.3       17 UNK        -0.1800 
     97 C          -6.8784  -18.0747  -50.0695 C.2       17 UNK         0.5000 
     98 O          -7.9972  -18.3691  -50.4927 O.2       17 UNK        -0.5000 
     99 N          -6.0929  -17.1270  -50.5961 N.am      18 UNK        -0.5000 
    100 CA        -6.3378  -16.2824  -51.7764 C.3       18 UNK         0.1400 
    101 CB        -7.6824  -15.5323  -51.6981 C.3       18 UNK        -0.1800 
    102 C         -6.1728  -17.0197  -53.1207 C.2       18 UNK         0.5000 
    103 O         -5.8215  -16.3744  -54.1088 O.2       18 UNK        -0.5000 
    104 N         -6.3684  -18.3459  -53.1397 N.am      19 UNK        -0.5000 
    105 CA        -5.9825  -19.2163  -54.2505 C.3       19 UNK         0.1400 
    106 CB        -6.6900  -20.5730  -54.1281 C.3       19 UNK        -0.1800 
    107 C         -4.4533  -19.3815  -54.2899 C.2       19 UNK         0.5000 
    108 O         -3.8510  -19.1858  -55.3458 O.2       19 UNK        -0.5000 
    109 N         -3.8613  -19.6842  -53.1225 N.am      20 UNK        -0.5000 
    110 CA        -2.4340  -19.6902  -52.7703 C.3       20 UNK         0.1400 
    111 CB        -1.8449  -18.2750  -52.9113 C.3       20 UNK        -0.1800 
    112 C         -1.5517  -20.7308  -53.4922 C.2       20 UNK         0.5000 
    113 O         -0.6311  -21.2623  -52.8708 O.2       20 UNK        -0.5000 
    114 N         -1.8398  -21.0108  -54.7694 N.am      21 UNK        -0.5000 
    115 CA        -1.1843  -21.9339  -55.7043 C.3       21 UNK         0.1400 
    116 CB        -1.2507  -23.3894  -55.2034 C.3       21 UNK        -0.1800 
    117 C          0.2550  -21.5337  -56.0834 C.2       21 UNK         0.5000 
    118 O          0.5580  -21.4283  -57.2725 O.2       21 UNK        -0.5000 
    119 N          1.1030  -21.3117  -55.0732 N.am      22 UNK        -0.5000 
    120 CA         2.5028  -20.8598  -55.1675 C.3       22 UNK         0.1400 
    121 C          3.4821  -21.8722  -55.8387 C.2       22 UNK         0.5000 
    122 N          3.1328  -23.1469  -55.9622 N.am      22 UNK        -0.7600 
    123 O          4.5906  -21.5105  -56.2247 O.2       22 UNK        -0.5000 
    124 C124        2.6412  -19.4205  -55.7438 C.3       23 UNK        -0.0398 
    125 S125        1.6426  -18.1898  -54.8358 S.3       23 UNK        -0.2404 
    126 C126        2.7414  -17.8101  -53.4347 C.3       23 UNK        -0.0205 
    127 H127       -7.0829  -13.0935  -47.9397 H         1 UNK         0.0600 
    128 H128       -6.9903  -14.7840  -48.4460 H         1 UNK         0.0600 
    129 H129       -7.2132  -14.3860  -46.7422 H         1 UNK         0.0600 
    130 H130       -4.9068  -15.1784  -49.0821 H         1 UNK         0.3000 
    131 H131       -2.6518  -13.7419  -48.3859 H         1 UNK         0.0600 
    132 H132       -3.2039  -15.7466  -50.2651 H         1 UNK         0.0800 
    133 H133       -2.0557  -16.5653  -49.2642 H         1 UNK         0.0800 
    134 H134        1.2072  -14.5851  -49.8468 H         1 UNK         0.0800 
    135 H135        0.2984  -15.4217  -48.6292 H         1 UNK         0.0800 
    136 H136        1.7701  -15.6850  -52.0213 H         1 UNK         0.1150 
    137 H137        1.9957  -19.9640  -51.9502 H         1 UNK         0.1150 
    138 H138       -0.0121  -17.8791  -48.7912 H         1 UNK         0.1150 
    139 H139       -0.3405  -20.3218  -49.1436 H         1 UNK         0.0800 
    140 H140        0.4913  -21.1541  -50.4334 H         1 UNK         0.0800 
    141 H141        2.6981  -23.1393  -48.3005 H         1 UNK         0.0800 
    142 H142        1.3950  -23.0740  -49.4356 H         1 UNK         0.0800 
    143 H143        0.9214  -24.3735  -47.3985 H         1 UNK         0.0600 
    144 H144        1.5132  -21.9570  -45.8706 H         1 UNK         0.3000 
    145 H145        0.4794  -23.5773  -42.7968 H         1 UNK         0.0600 
    146 H146        2.7370  -22.8164  -42.1179 H         1 UNK         0.0600 
    147 H147        3.2113  -22.6299  -43.8049 H         1 UNK         0.0600 
    148 H148        2.8512  -24.2250  -43.1614 H         1 UNK         0.0600 
    149 H149        1.4038  -20.9562  -43.1303 H         1 UNK         0.3000 
    150 H150       -1.7024  -19.3864  -43.9433 H         1 UNK         0.0600 
    151 H151       -1.7883  -19.6925  -41.5061 H         1 UNK         0.0600 
    152 H152       -1.0459  -18.1408  -41.8625 H         1 UNK         0.0600 
    153 H153       -0.0472  -19.5034  -41.3702 H         1 UNK         0.0600 
    154 H154        0.8389  -18.2510  -43.4668 H         1 UNK         0.3000 
    155 H155        2.1991  -18.6200  -46.7700 H         1 UNK         0.0600 
    156 H156        0.7990  -16.6067  -46.8249 H         1 UNK         0.0600 
    157 H157        2.4564  -16.1758  -46.4328 H         1 UNK         0.0600 
    158 H158        1.2151  -16.1990  -45.1777 H         1 UNK         0.0600 
    159 H159        3.1178  -17.5535  -44.2349 H         1 UNK         0.3000 
    160 H160        4.8000  -20.4980  -43.1791 H         1 UNK         0.0600 
    161 H161        5.9688  -17.8988  -44.3169 H         1 UNK         0.0600 
    162 H162        6.3967  -19.5243  -44.8375 H         1 UNK         0.0600 
    163 H163        6.7804  -19.0021  -43.2051 H         1 UNK         0.0600 
    164 H164        4.7171  -17.8070  -42.1883 H         1 UNK         0.3000 
    165 H165        1.7071  -18.0734  -40.3236 H         1 UNK         0.0600 
    166 H166        3.1995  -17.4794  -38.4351 H         1 UNK         0.0600 
    167 H167        3.3870  -19.1778  -38.8403 H         1 UNK         0.0600 
    168 H168        4.6126  -18.0194  -39.3426 H         1 UNK         0.0600 
    169 H169        3.6839  -16.0250  -40.4970 H         1 UNK         0.3000 
    170 H170        2.9345  -13.9952  -41.5768 H         1 UNK         0.0600 
    171 H171        4.0411  -15.3242  -44.1363 H         1 UNK         0.0600 
    172 H172        4.5672  -13.7802  -43.4753 H         1 UNK         0.0600 
    173 H173        4.9029  -15.2570  -42.6035 H         1 UNK         0.0600 
    174 H174        1.0347  -14.6414  -43.5739 H         1 UNK         0.3000 
    175 H175        0.5897  -11.2726  -44.7181 H         1 UNK         0.0600 
    176 H176        1.1828  -13.8098  -46.3246 H         1 UNK         0.0600 
    177 H177        0.2881  -12.4099  -46.9109 H         1 UNK         0.0600 
    178 H178        1.9914  -12.2599  -46.5048 H         1 UNK         0.0600 
    179 H179       -1.0010  -13.6088  -45.0816 H         1 UNK         0.3000 
    180 H180       -2.8652  -13.4889  -42.1571 H         1 UNK         0.0600 
    181 H181       -4.8325  -12.4978  -43.3311 H         1 UNK         0.0600 
    182 H182       -3.7599  -11.7263  -44.4986 H         1 UNK         0.0600 
    183 H183       -3.7141  -11.2491  -42.8059 H         1 UNK         0.0600 
    184 H184       -3.5732  -14.1517  -44.8892 H         1 UNK         0.3000 
    185 H185       -1.9160  -17.2434  -45.0174 H         1 UNK         0.0600 
    186 H186       -4.8879  -16.9469  -44.3004 H         1 UNK         0.0600 
    187 H187       -4.1762  -18.3274  -45.1273 H         1 UNK         0.0600 
    188 H188       -3.7351  -17.9781  -43.4640 H         1 UNK         0.0600 
    189 H189       -4.0655  -16.3360  -46.5869 H         1 UNK         0.3000 
    190 H190       -0.7598  -21.2651  -46.7477 H         1 UNK         0.3000 
    191 H191       -2.9122  -21.6751  -48.5216 H         1 UNK         0.0600 
    192 H192       -2.4228  -19.4785  -47.5371 H         1 UNK         0.0600 
    193 H193       -2.7701  -20.0867  -45.9181 H         1 UNK         0.0600 
    194 H194       -4.0601  -19.9479  -47.1038 H         1 UNK         0.0600 
    195 H195       -2.3967  -23.0476  -45.3002 H         1 UNK         0.3000 
    196 H196       -5.0049  -24.0194  -44.8027 H         1 UNK         0.0600 
    197 H197       -3.2094  -23.9882  -43.0984 H         1 UNK         0.0600 
    198 H198       -2.2762  -25.1718  -44.0128 H         1 UNK         0.0600 
    199 H199       -3.8153  -25.6253  -43.2897 H         1 UNK         0.0600 
    200 H200       -2.6017  -25.1465  -47.1047 H         1 UNK         0.3000 
    201 H201       -4.1398  -27.6528  -47.6625 H         1 UNK         0.0600 
    202 H202       -1.7376  -27.9867  -47.1590 H         1 UNK         0.0600 
    203 H203       -1.2832  -26.8373  -48.4145 H         1 UNK         0.0600 
    204 H204       -2.0683  -28.3526  -48.8455 H         1 UNK         0.0600 
    205 H205       -2.6106  -24.7826  -49.2126 H         1 UNK         0.3000 
    206 H206       -3.5993  -25.4466  -51.8433 H         1 UNK         0.0600 
    207 H207       -2.2125  -22.9291  -50.7778 H         1 UNK         0.0600 
    208 H208       -1.3927  -24.3559  -51.4134 H         1 UNK         0.0600 
    209 H209       -2.4019  -23.3791  -52.4661 H         1 UNK         0.0600 
    210 H210       -5.0245  -23.7961  -49.2421 H         1 UNK         0.3000 
    211 H211       -6.9091  -22.7457  -48.8710 H         1 UNK         0.0600 
    212 H212       -7.5465  -22.5664  -51.8558 H         1 UNK         0.0600 
    213 H213       -8.6174  -22.1908  -50.5219 H         1 UNK         0.0600 
    214 H214       -8.0824  -23.8460  -50.7700 H         1 UNK         0.0600 
    215 H215       -7.2167  -20.6546  -48.3045 H         1 UNK         0.3000 
    216 H216       -5.1967  -18.7268  -48.8906 H         1 UNK         0.0600 
    217 H217       -6.5857  -17.2497  -47.4316 H         1 UNK         0.0600 
    218 H218       -6.3716  -18.8320  -46.7008 H         1 UNK         0.0600 
    219 H219       -7.9001  -18.4173  -47.4758 H         1 UNK         0.0600 
    220 H220       -5.1562  -17.0651  -50.2294 H         1 UNK         0.3000 
    221 H221       -5.5519  -15.5256  -51.7539 H         1 UNK         0.0600 
    222 H222       -8.5349  -16.2031  -51.8049 H         1 UNK         0.0600 
    223 H223       -7.7876  -15.0003  -50.7533 H         1 UNK         0.0600 
    224 H224       -7.7568  -14.7926  -52.4960 H         1 UNK         0.0600 
    225 H225       -6.6890  -18.7941  -52.2919 H         1 UNK         0.3000 
    226 H226       -6.3014  -18.7528  -55.1866 H         1 UNK         0.0600 
    227 H227       -7.7732  -20.4545  -54.0998 H         1 UNK         0.0600 
    228 H228       -6.4526  -21.2130  -54.9786 H         1 UNK         0.0600 
    229 H229       -6.3864  -21.1049  -53.2280 H         1 UNK         0.0600 
    230 H230       -4.4727  -19.9274  -52.3459 H         1 UNK         0.3000 
    231 H231       -2.4009  -19.9514  -51.7111 H         1 UNK         0.0600 
    232 H232       -0.8108  -18.2493  -52.5733 H         1 UNK         0.0600 
    233 H233       -2.3980  -17.5526  -52.3112 H         1 UNK         0.0600 
    234 H234       -1.8521  -17.9309  -53.9458 H         1 UNK         0.0600 
    235 H235       -2.5859  -20.4495  -55.1756 H         1 UNK         0.3000 
    236 H236       -1.7741  -21.8813  -56.6208 H         1 UNK         0.0600 
    237 H237       -0.8550  -24.0754  -55.9532 H         1 UNK         0.0600 
    238 H238       -0.6722  -23.5373  -54.2913 H         1 UNK         0.0600 
    239 H239       -2.2792  -23.6886  -55.0007 H         1 UNK         0.0600 
    240 H240        0.7207  -21.3917  -54.1339 H         1 UNK         0.3000 
    241 H241        2.8474  -20.8179  -54.1345 H         1 UNK         0.0600 
    242 H242        3.7732  -23.7995  -56.3868 H         1 UNK         0.3800 
    243 H243        2.2319  -23.4629  -55.6411 H         1 UNK         0.3800 
    244 H244        2.3353  -19.4022  -56.7905 H         1 UNK         0.0800 
    245 H245        3.6819  -19.0924  -55.7324 H         1 UNK         0.0800 
    246 H246        3.5571  -18.5318  -53.3750 H         1 UNK         0.0800 
    247 H247        3.2073  -16.8375  -53.6001 H         1 UNK         0.0800 
@<TRIPOS>BOND
     1    1    2 1    
     2    1  127 1    
     3    1  128 1    
     4    1  129 1    
     5    2    3 2    
     6    2    4 am   BACKBONE|DICT|INTERRES
     7    4    5 1    
     8    4  130 1    
     9    5    6 1    
    10    5   65 1    
    11    5  131 1    
    12    6    7 1    
    13    6  132 1    
    14    6  133 1    
    15    7    8 1    
    16    8    9 1    
    17    8  134 1    
    18    8  135 1    
    19    9   10 ar   
    20    9   14 ar   
    21   10   11 ar   
    22   10  136 1    
    23   11   12 ar   
    24   11  126 1    
    25   12   13 ar   
    26   12  137 1    
    27   13   14 ar   
    28   13   15 1    
    29   14  138 1    
    30   15   16 1    
    31   15  139 1    
    32   15  140 1    
    33   16   17 1    
    34   17   18 1    
    35   17  141 1    
    36   17  142 1    
    37   18   19 1    
    38   18   67 1    
    39   18  143 1    
    40   19   20 am   BACKBONE|DICT|INTERRES
    41   19  144 1    
    42   20   21 2    
    43   20   22 1    
    44   22   23 1    
    45   22   24 1    
    46   22  145 1    
    47   23  146 1    
    48   23  147 1    
    49   23  148 1    
    50   24   25 am   BACKBONE|DICT|INTERRES
    51   24  149 1    
    52   25   26 2    
    53   25   27 1    
    54   27   28 1    
    55   27   29 1    
    56   27  150 1    
    57   28  151 1    
    58   28  152 1    
    59   28  153 1    
    60   29   30 am   BACKBONE|DICT|INTERRES
    61   29  154 1    
    62   30   31 2    
    63   30   32 1    
    64   32   33 1    
    65   32   34 1    
    66   32  155 1    
    67   33  156 1    
    68   33  157 1    
    69   33  158 1    
    70   34   35 am   BACKBONE|DICT|INTERRES
    71   34  159 1    
    72   35   36 2    
    73   35   37 1    
    74   37   38 1    
    75   37   39 1    
    76   37  160 1    
    77   38  161 1    
    78   38  162 1    
    79   38  163 1    
    80   39   40 am   BACKBONE|DICT|INTERRES
    81   39  164 1    
    82   40   41 2    
    83   40   42 1    
    84   42   43 1    
    85   42   44 1    
    86   42  165 1    
    87   43  166 1    
    88   43  167 1    
    89   43  168 1    
    90   44   45 am   BACKBONE|DICT|INTERRES
    91   44  169 1    
    92   45   46 2    
    93   45   47 1    
    94   47   48 1    
    95   47   49 1    
    96   47  170 1    
    97   48  171 1    
    98   48  172 1    
    99   48  173 1    
   100   49   50 am   BACKBONE|DICT|INTERRES
   101   49  174 1    
   102   50   51 2    
   103   50   52 1    
   104   52   53 1    
   105   52   54 1    
   106   52  175 1    
   107   53  176 1    
   108   53  177 1    
   109   53  178 1    
   110   54   55 am   BACKBONE|DICT|INTERRES
   111   54  179 1    
   112   55   56 2    
   113   55   57 1    
   114   57   58 1    
   115   57   59 1    
   116   57  180 1    
   117   58  181 1    
   118   58  182 1    
   119   58  183 1    
   120   59   60 am   BACKBONE|DICT|INTERRES
   121   59  184 1    
   122   60   61 2    
   123   60   62 1    
   124   62   63 1    
   125   62   64 1    
   126   62  185 1    
   127   63  186 1    
   128   63  187 1    
   129   63  188 1    
   130   64   65 am   BACKBONE|DICT|INTERRES
   131   64  189 1    
   132   65   66 2    
   133   67   68 2    
   134   67   69 am   BACKBONE|DICT|INTERRES
   135   69   70 1    
   136   69  190 1    
   137   70   71 1    
   138   70   72 1    
   139   70  191 1    
   140   71  192 1    
   141   71  193 1    
   142   71  194 1    
   143   72   73 2    
   144   72   74 am   BACKBONE|DICT|INTERRES
   145   74   75 1    
   146   74  195 1    
   147   75   76 1    
   148   75   77 1    
   149   75  196 1    
   150   76  197 1    
   151   76  198 1    
   152   76  199 1    
   153   77   78 2    
   154   77   79 am   BACKBONE|DICT|INTERRES
   155   79   80 1    
   156   79  200 1    
   157   80   81 1    
   158   80   82 1    
   159   80  201 1    
   160   81  202 1    
   161   81  203 1    
   162   81  204 1    
   163   82   83 2    
   164   82   84 am   BACKBONE|DICT|INTERRES
   165   84   85 1    
   166   84  205 1    
   167   85   86 1    
   168   85   87 1    
   169   85  206 1    
   170   86  207 1    
   171   86  208 1    
   172   86  209 1    
   173   87   88 2    
   174   87   89 am   BACKBONE|DICT|INTERRES
   175   89   90 1    
   176   89  210 1    
   177   90   91 1    
   178   90   92 1    
   179   90  211 1    
   180   91  212 1    
   181   91  213 1    
   182   91  214 1    
   183   92   93 2    
   184   92   94 am   BACKBONE|DICT|INTERRES
   185   94   95 1    
   186   94  215 1    
   187   95   96 1    
   188   95   97 1    
   189   95  216 1    
   190   96  217 1    
   191   96  218 1    
   192   96  219 1    
   193   97   98 2    
   194   97   99 am   BACKBONE|DICT|INTERRES
   195   99  100 1    
   196   99  220 1    
   197  100  101 1    
   198  100  102 1    
   199  100  221 1    
   200  101  222 1    
   201  101  223 1    
   202  101  224 1    
   203  102  103 2    
   204  102  104 am   BACKBONE|DICT|INTERRES
   205  104  105 1    
   206  104  225 1    
   207  105  106 1    
   208  105  107 1    
   209  105  226 1    
   210  106  227 1    
   211  106  228 1    
   212  106  229 1    
   213  107  108 2    
   214  107  109 am   BACKBONE|DICT|INTERRES
   215  109  110 1    
   216  109  230 1    
   217  110  111 1    
   218  110  112 1    
   219  110  231 1    
   220  111  232 1    
   221  111  233 1    
   222  111  234 1    
   223  112  113 2    
   224  112  114 am   BACKBONE|DICT|INTERRES
   225  114  115 1    
   226  114  235 1    
   227  115  116 1    
   228  115  117 1    
   229  115  236 1    
   230  116  237 1    
   231  116  238 1    
   232  116  239 1    
   233  117  118 2    
   234  117  119 am   BACKBONE|DICT|INTERRES
   235  119  120 1    
   236  119  240 1    
   237  120  121 1    
   238  120  124 1    
   239  120  241 1    
   240  121  122 am   BACKBONE|DICT|INTERRES
   241  121  123 2    
   242  122  242 1    
   243  122  243 1    
   244  124  125 1    
   245  124  244 1    
   246  124  245 1    
   247  125  126 1    
   248  126  246 1    
   249  126  247 1    
@<TRIPOS>SUBSTRUCTURE
     1 UNK         1 GROUP             0       ****    0 ROOT    
