@<TRIPOS>MOLECULE
3R540
247   249    1
SMALL
USER_CHARGES


@<TRIPOS>ATOM
      1 CA          5.7345  -10.5502  -46.7808 C.3       0 UNK        -0.1800 
      2 C           4.5343  -11.3214  -46.2538 C.2       0 UNK         0.5000 
      3 O           3.8714  -10.8637  -45.3235 O.2       0 UNK        -0.5000 
      4 N           4.2320  -12.4786  -46.8563 N.am      1 UNK        -0.5000 
      5 CA          3.1388  -13.3850  -46.4729 C.3       1 UNK         0.1400 
      6 C6          3.2712  -14.7663  -47.1579 C.3       23 UNK        -0.0398 
      7 S7          3.2599  -14.6985  -48.9850 S.3       23 UNK        -0.2404 
      8 C8          1.6724  -15.4937  -49.3870 C.3       23 UNK        -0.0205 
      9 C9          1.8666  -16.5889  -50.4199 C.ar      23 UNK        -0.0193 
     10 C10         1.6139  -16.3352  -51.7706 C.ar      23 UNK        -0.1150 
     11 C11         1.7973  -17.3359  -52.7294 C.ar      23 UNK        -0.0193 
     12 C12         2.2577  -18.5924  -52.3252 C.ar      23 UNK        -0.1150 
     13 C13         2.4910  -18.8653  -50.9744 C.ar      23 UNK        -0.0193 
     14 C14         2.2971  -17.8589  -50.0244 C.ar      23 UNK        -0.1150 
     15 C15         2.9427  -20.2530  -50.5509 C.3       23 UNK        -0.0205 
     16 S16         1.5189  -21.3650  -50.3281 S.3       23 UNK        -0.2404 
     17 C17         0.9413  -20.9139  -48.6543 C.3       23 UNK        -0.0398 
     18 CA          0.4364  -22.1362  -47.8510 C.3       11 UNK         0.1400 
     19 N           0.3489  -21.8487  -46.4165 N.am      11 UNK        -0.5000 
     20 C           0.0956  -22.7638  -45.4694 C.2       10 UNK         0.5000 
     21 O          -0.0402  -23.9651  -45.6980 O.2       10 UNK        -0.5000 
     22 CA         -0.0870  -22.2471  -44.0314 C.3       10 UNK         0.1400 
     23 CB          1.2734  -21.9899  -43.3671 C.3       10 UNK        -0.1800 
     24 N          -0.9103  -21.0385  -43.9687 N.am      10 UNK        -0.5000 
     25 C          -2.1981  -20.9803  -44.3389 C.2       9 UNK         0.5000 
     26 O          -2.8431  -21.9562  -44.7195 O.2       9 UNK        -0.5000 
     27 CA         -2.8652  -19.5932  -44.3389 C.3       9 UNK         0.1400 
     28 CB         -3.3051  -19.1948  -42.9227 C.3       9 UNK        -0.1800 
     29 N          -2.0034  -18.5530  -44.9002 N.am      9 UNK        -0.5000 
     30 C          -1.5403  -18.5432  -46.1582 C.2       8 UNK         0.5000 
     31 O          -1.8214  -19.3959  -46.9987 O.2       8 UNK        -0.5000 
     32 CA         -0.5461  -17.4277  -46.5199 C.3       8 UNK         0.1400 
     33 CB         -1.2813  -16.1108  -46.8117 C.3       8 UNK        -0.1800 
     34 N           0.4541  -17.2334  -45.4682 N.am      8 UNK        -0.5000 
     35 C           1.3856  -18.1453  -45.1497 C.2       7 UNK         0.5000 
     36 O           1.5461  -19.1969  -45.7694 O.2       7 UNK        -0.5000 
     37 CA          2.2450  -17.8650  -43.9044 C.3       7 UNK         0.1400 
     38 CB          3.4720  -17.0117  -44.2550 C.3       7 UNK        -0.1800 
     39 N           1.4792  -17.2161  -42.8401 N.am      7 UNK        -0.5000 
     40 C           0.5627  -17.8460  -42.0895 C.2       6 UNK         0.5000 
     41 O           0.3008  -19.0426  -42.2030 O.2       6 UNK        -0.5000 
     42 CA         -0.2277  -16.9965  -41.0733 C.3       6 UNK         0.1400 
     43 CB          0.5128  -16.9394  -39.7293 C.3       6 UNK        -0.1800 
     44 N          -0.4854  -15.6337  -41.5386 N.am      6 UNK        -0.5000 
     45 C          -1.1695  -15.3207  -42.6470 C.2       5 UNK         0.5000 
     46 O          -1.7531  -16.1548  -43.3385 O.2       5 UNK        -0.5000 
     47 CA         -1.1649  -13.8459  -43.0931 C.3       5 UNK         0.1400 
     48 CB         -2.4927  -13.1698  -42.7227 C.3       5 UNK        -0.1800 
     49 N          -0.0588  -13.0290  -42.5806 N.am      5 UNK        -0.5000 
     50 C           1.2522  -13.2744  -42.7136 C.2       4 UNK         0.5000 
     51 O           1.7132  -14.3181  -43.1791 O.2       4 UNK        -0.5000 
     52 CA          2.1929  -12.1380  -42.2713 C.3       4 UNK         0.1400 
     53 CB          3.6720  -12.5633  -42.2548 C.3       4 UNK        -0.1800 
     54 N           2.0409  -10.9872  -43.1592 N.am      4 UNK        -0.5000 
     55 C           1.0638  -10.0730  -43.0905 C.2       3 UNK         0.5000 
     56 O           0.1990  -10.0643  -42.2130 O.2       3 UNK        -0.5000 
     57 CA          1.0198   -9.0322  -44.2193 C.3       3 UNK         0.1400 
     58 CB          2.1579   -8.0094  -44.0736 C.3       3 UNK        -0.1800 
     59 N           1.1198   -9.6954  -45.5183 N.am      3 UNK        -0.5000 
     60 C           0.0717  -10.1026  -46.2491 C.2       2 UNK         0.5000 
     61 O          -1.1012   -9.8816  -45.9464 O.2       2 UNK        -0.5000 
     62 CA          0.3817  -10.8998  -47.5331 C.3       2 UNK         0.1400 
     63 CB          0.5117   -9.9561  -48.7380 C.3       2 UNK        -0.1800 
     64 N           1.6025  -11.6970  -47.4170 N.am      2 UNK        -0.5000 
     65 C           1.7234  -12.7867  -46.6461 C.2       1 UNK         0.5000 
     66 O           0.7745  -13.3064  -46.0621 O.2       1 UNK        -0.5000 
     67 C          -0.8994  -22.6777  -48.4048 C.2       11 UNK         0.5000 
     68 O          -0.9010  -23.6974  -49.0950 O.2       11 UNK        -0.5000 
     69 N          -2.0131  -22.0192  -48.0516 N.am      12 UNK        -0.5000 
     70 CA         -3.3696  -22.4277  -48.4156 C.3       12 UNK         0.1400 
     71 CB         -4.3754  -21.3621  -47.9529 C.3       12 UNK        -0.1800 
     72 C          -3.7456  -23.8110  -47.8565 C.2       12 UNK         0.5000 
     73 O          -4.3159  -24.6206  -48.5849 O.2       12 UNK        -0.5000 
     74 N          -3.3880  -24.0744  -46.5921 N.am      13 UNK        -0.5000 
     75 CA         -3.5829  -25.3632  -45.9275 C.3       13 UNK         0.1400 
     76 CB         -3.2713  -25.2238  -44.4298 C.3       13 UNK        -0.1800 
     77 C          -2.7481  -26.4941  -46.5559 C.2       13 UNK         0.5000 
     78 O          -3.2597  -27.6028  -46.7144 O.2       13 UNK        -0.5000 
     79 N          -1.4924  -26.1928  -46.9163 N.am      14 UNK        -0.5000 
     80 CA         -0.5747  -27.1184  -47.5811 C.3       14 UNK         0.1400 
     81 CB          0.8458  -26.5327  -47.5748 C.3       14 UNK        -0.1800 
     82 C          -1.0162  -27.4663  -49.0139 C.2       14 UNK         0.5000 
     83 O          -0.9672  -28.6367  -49.3949 O.2       14 UNK        -0.5000 
     84 N          -1.4488  -26.4520  -49.7758 N.am      15 UNK        -0.5000 
     85 CA         -1.9677  -26.6063  -51.1358 C.3       15 UNK         0.1400 
     86 CB         -1.9991  -25.2344  -51.8218 C.3       15 UNK        -0.1800 
     87 C          -3.3620  -27.2600  -51.1745 C.2       15 UNK         0.5000 
     88 O          -3.6735  -27.9669  -52.1340 O.2       15 UNK        -0.5000 
     89 N          -4.1703  -27.0025  -50.1373 N.am      16 UNK        -0.5000 
     90 CA         -5.5263  -27.4834  -49.8580 C.3       16 UNK         0.1400 
     91 CB         -5.5742  -29.0197  -49.7563 C.3       16 UNK        -0.1800 
     92 C          -6.5965  -26.9426  -50.8236 C.2       16 UNK         0.5000 
     93 O          -7.5916  -26.3767  -50.3696 O.2       16 UNK        -0.5000 
     94 N          -6.3829  -27.1264  -52.1311 N.am      17 UNK        -0.5000 
     95 CA         -7.2888  -26.6915  -53.1937 C.3       17 UNK         0.1400 
     96 CB         -6.9988  -27.5081  -54.4621 C.3       17 UNK        -0.1800 
     97 C          -7.1811  -25.1846  -53.4877 C.2       17 UNK         0.5000 
     98 O          -8.1815  -24.5637  -53.8503 O.2       17 UNK        -0.5000 
     99 N          -5.9740  -24.6245  -53.3376 N.am      18 UNK        -0.5000 
    100 CA        -5.6774  -23.2175  -53.5889 C.3       18 UNK         0.1400 
    101 CB        -4.2274  -23.0826  -54.0771 C.3       18 UNK        -0.1800 
    102 C         -5.9462  -22.3857  -52.3252 C.2       18 UNK         0.5000 
    103 O         -5.0350  -22.1453  -51.5301 O.2       18 UNK        -0.5000 
    104 N         -7.2079  -21.9738  -52.1549 N.am      19 UNK        -0.5000 
    105 CA        -7.6296  -21.0185  -51.1322 C.3       19 UNK         0.1400 
    106 CB        -9.1626  -20.9231  -51.1321 C.3       19 UNK        -0.1800 
    107 C         -6.9941  -19.6360  -51.3779 C.2       19 UNK         0.5000 
    108 O         -6.8873  -19.2140  -52.5318 O.2       19 UNK        -0.5000 
    109 N         -6.5904  -18.9691  -50.2881 N.am      20 UNK        -0.5000 
    110 CA        -5.8571  -17.6959  -50.2649 C.3       20 UNK         0.1400 
    111 CB        -6.6987  -16.5466  -50.8610 C.3       20 UNK        -0.1800 
    112 C         -4.4368  -17.7956  -50.8697 C.2       20 UNK         0.5000 
    113 O         -3.9426  -16.8208  -51.4388 O.2       20 UNK        -0.5000 
    114 N         -3.8027  -18.9633  -50.6808 N.am      21 UNK        -0.5000 
    115 CA        -2.4278  -19.3181  -51.0482 C.3       21 UNK         0.1400 
    116 CB        -1.4189  -18.3388  -50.4064 C.3       21 UNK        -0.1800 
    117 C         -2.2099  -19.4760  -52.5678 C.2       21 UNK         0.5000 
    118 O         -3.1675  -19.4922  -53.3440 O.2       21 UNK        -0.5000 
    119 N         -0.9346  -19.6204  -52.9512 N.am      22 UNK        -0.5000 
    120 CA        -0.4462  -19.7622  -54.3340 C.3       22 UNK         0.1400 
    121 C         -0.8154  -21.1141  -55.0143 C.2       22 UNK         0.5000 
    122 N         -1.0172  -22.1857  -54.2579 N.am      22 UNK        -0.7600 
    123 O         -0.8855  -21.2098  -56.2368 O.2       22 UNK        -0.5000 
    124 C124       -0.7325  -18.5238  -55.2314 C.3       23 UNK        -0.0398 
    125 S125       -0.2886  -16.9025  -54.5065 S.3       23 UNK        -0.2404 
    126 C126        1.5035  -17.0444  -54.1954 C.3       23 UNK        -0.0205 
    127 H127        6.2123  -11.0642  -47.6152 H         1 UNK         0.0600 
    128 H128        6.4735  -10.4237  -45.9898 H         1 UNK         0.0600 
    129 H129        5.4247   -9.5621  -47.1207 H         1 UNK         0.0600 
    130 H130        4.7946  -12.7917  -47.6353 H         1 UNK         0.3000 
    131 H131        3.2477  -13.5579  -45.4009 H         1 UNK         0.0600 
    132 H132        4.2148  -15.2236  -46.8577 H         1 UNK         0.0800 
    133 H133        2.5005  -15.4456  -46.7929 H         1 UNK         0.0800 
    134 H134        0.9767  -14.7367  -49.7524 H         1 UNK         0.0800 
    135 H135        1.2102  -15.9252  -48.5015 H         1 UNK         0.0800 
    136 H136        1.2701  -15.3578  -52.0791 H         1 UNK         0.1150 
    137 H137        2.4301  -19.3678  -53.0569 H         1 UNK         0.1150 
    138 H138        2.4832  -18.0608  -48.9787 H         1 UNK         0.1150 
    139 H139        3.5966  -20.6725  -51.3171 H         1 UNK         0.0800 
    140 H140        3.5399  -20.2078  -49.6390 H         1 UNK         0.0800 
    141 H141        0.1741  -20.1433  -48.7235 H         1 UNK         0.0800 
    142 H142        1.7744  -20.4557  -48.1210 H         1 UNK         0.0800 
    143 H143        1.1760  -22.9328  -47.9577 H         1 UNK         0.0600 
    144 H144        0.4870  -20.8827  -46.1378 H         1 UNK         0.3000 
    145 H145       -0.5984  -23.0262  -43.4623 H         1 UNK         0.0600 
    146 H146        1.8243  -21.1950  -43.8697 H         1 UNK         0.0600 
    147 H147        1.1536  -21.7052  -42.3218 H         1 UNK         0.0600 
    148 H148        1.8947  -22.8859  -43.3905 H         1 UNK         0.0600 
    149 H149       -0.4655  -20.2034  -43.6006 H         1 UNK         0.3000 
    150 H150       -3.7569  -19.6543  -44.9659 H         1 UNK         0.0600 
    151 H151       -3.9926  -19.9322  -42.5067 H         1 UNK         0.0600 
    152 H152       -3.8195  -18.2337  -42.9250 H         1 UNK         0.0600 
    153 H153       -2.4564  -19.1183  -42.2436 H         1 UNK         0.0600 
    154 H154       -1.7645  -17.7779  -44.2867 H         1 UNK         0.3000 
    155 H155       -0.0243  -17.7330  -47.4293 H         1 UNK         0.0600 
    156 H156       -1.8369  -15.7515  -45.9460 H         1 UNK         0.0600 
    157 H157       -0.5892  -15.3251  -47.1096 H         1 UNK         0.0600 
    158 H158       -1.9950  -16.2378  -47.6267 H         1 UNK         0.0600 
    159 H159        0.3622  -16.4086  -44.8927 H         1 UNK         0.3000 
    160 H160        2.6058  -18.8261  -43.5322 H         1 UNK         0.0600 
    161 H161        4.0415  -17.4580  -45.0714 H         1 UNK         0.0600 
    162 H162        3.1893  -16.0054  -44.5590 H         1 UNK         0.0600 
    163 H163        4.1427  -16.9220  -43.4006 H         1 UNK         0.0600 
    164 H164        1.6031  -16.2122  -42.7390 H         1 UNK         0.3000 
    165 H165       -1.1923  -17.4818  -40.9130 H         1 UNK         0.0600 
    166 H166       -0.0730  -16.4097  -38.9779 H         1 UNK         0.0600 
    167 H167        0.7014  -17.9428  -39.3450 H         1 UNK         0.0600 
    168 H168        1.4763  -16.4363  -39.8216 H         1 UNK         0.0600 
    169 H169       -0.0307  -14.8864  -41.0358 H         1 UNK         0.3000 
    170 H170       -1.0806  -13.8490  -44.1812 H         1 UNK         0.0600 
    171 H171       -3.3420  -13.7310  -43.1152 H         1 UNK         0.0600 
    172 H172       -2.6175  -13.0964  -41.6417 H         1 UNK         0.0600 
    173 H173       -2.5513  -12.1632  -43.1377 H         1 UNK         0.0600 
    174 H174       -0.3149  -12.1189  -42.2150 H         1 UNK         0.3000 
    175 H175        1.9166  -11.8515  -41.2545 H         1 UNK         0.0600 
    176 H176        4.0255  -12.8457  -43.2465 H         1 UNK         0.0600 
    177 H177        4.3084  -11.7555  -41.8935 H         1 UNK         0.0600 
    178 H178        3.8255  -13.4184  -41.5952 H         1 UNK         0.0600 
    179 H179        2.7047  -10.9304  -43.9290 H         1 UNK         0.3000 
    180 H180        0.0733   -8.4920  -44.1471 H         1 UNK         0.0600 
    181 H181        3.1404   -8.4779  -44.1407 H         1 UNK         0.0600 
    182 H182        2.1023   -7.5000  -43.1108 H         1 UNK         0.0600 
    183 H183        2.0996   -7.2456  -44.8491 H         1 UNK         0.0600 
    184 H184        2.0509   -9.9712  -45.8059 H         1 UNK         0.3000 
    185 H185       -0.4559  -11.5762  -47.7168 H         1 UNK         0.0600 
    186 H186        0.6680  -10.5146  -49.6611 H         1 UNK         0.0600 
    187 H187       -0.3942   -9.3624  -48.8676 H         1 UNK         0.0600 
    188 H188        1.3448   -9.2622  -48.6189 H         1 UNK         0.0600 
    189 H189        2.4270  -11.3459  -47.8815 H         1 UNK         0.3000 
    190 H190       -1.9279  -21.1658  -47.5032 H         1 UNK         0.3000 
    191 H191       -3.4070  -22.4879  -49.5043 H         1 UNK         0.0600 
    192 H192       -4.4258  -21.3012  -46.8657 H         1 UNK         0.0600 
    193 H193       -5.3772  -21.5925  -48.3168 H         1 UNK         0.0600 
    194 H194       -4.1084  -20.3738  -48.3235 H         1 UNK         0.0600 
    195 H195       -2.9726  -23.3326  -46.0344 H         1 UNK         0.3000 
    196 H196       -4.6359  -25.6339  -46.0294 H         1 UNK         0.0600 
    197 H197       -3.4237  -26.1697  -43.9086 H         1 UNK         0.0600 
    198 H198       -3.9206  -24.4850  -43.9599 H         1 UNK         0.0600 
    199 H199       -2.2390  -24.9169  -44.2601 H         1 UNK         0.0600 
    200 H200       -1.1271  -25.2705  -46.6978 H         1 UNK         0.3000 
    201 H201       -0.5583  -28.0458  -47.0048 H         1 UNK         0.0600 
    202 H202        1.1990  -26.3691  -46.5566 H         1 UNK         0.0600 
    203 H203        0.8915  -25.5787  -48.1009 H         1 UNK         0.0600 
    204 H204        1.5505  -27.2098  -48.0588 H         1 UNK         0.0600 
    205 H205       -1.3996  -25.5040  -49.4094 H         1 UNK         0.3000 
    206 H206       -1.2829  -27.2488  -51.6933 H         1 UNK         0.0600 
    207 H207       -1.0108  -24.7743  -51.8310 H         1 UNK         0.0600 
    208 H208       -2.3220  -25.3312  -52.8586 H         1 UNK         0.0600 
    209 H209       -2.6819  -24.5484  -51.3175 H         1 UNK         0.0600 
    210 H210       -3.8460  -26.3133  -49.4656 H         1 UNK         0.3000 
    211 H211       -5.7708  -27.0890  -48.8703 H         1 UNK         0.0600 
    212 H212       -5.3453  -29.5032  -50.7062 H         1 UNK         0.0600 
    213 H213       -6.5651  -29.3571  -49.4504 H         1 UNK         0.0600 
    214 H214       -4.8629  -29.3843  -49.0148 H         1 UNK         0.0600 
    215 H215       -5.5176  -27.5841  -52.4057 H         1 UNK         0.3000 
    216 H216       -8.3160  -26.8979  -52.8854 H         1 UNK         0.0600 
    217 H217       -7.6684  -27.2207  -55.2739 H         1 UNK         0.0600 
    218 H218       -7.1422  -28.5742  -54.2853 H         1 UNK         0.0600 
    219 H219       -5.9759  -27.3608  -54.8112 H         1 UNK         0.0600 
    220 H220       -5.2178  -25.1943  -52.9904 H         1 UNK         0.3000 
    221 H221       -6.3204  -22.8438  -54.3891 H         1 UNK         0.0600 
    222 H222       -3.5125  -23.3757  -53.3110 H         1 UNK         0.0600 
    223 H223       -4.0458  -23.6922  -54.9622 H         1 UNK         0.0600 
    224 H224       -4.0073  -22.0480  -54.3433 H         1 UNK         0.0600 
    225 H225       -7.8998  -22.2394  -52.8418 H         1 UNK         0.3000 
    226 H226       -7.3034  -21.3964  -50.1609 H         1 UNK         0.0600 
    227 H227       -9.6185  -21.8929  -50.9317 H         1 UNK         0.0600 
    228 H228       -9.5108  -20.2347  -50.3610 H         1 UNK         0.0600 
    229 H229       -9.5435  -20.5637  -52.0891 H         1 UNK         0.0600 
    230 H230       -6.7519  -19.3884  -49.3830 H         1 UNK         0.3000 
    231 H231       -5.7063  -17.4633  -49.2097 H         1 UNK         0.0600 
    232 H232       -6.2254  -15.5817  -50.6763 H         1 UNK         0.0600 
    233 H233       -7.6916  -16.5102  -50.4131 H         1 UNK         0.0600 
    234 H234       -6.8193  -16.6459  -51.9399 H         1 UNK         0.0600 
    235 H235       -4.3431  -19.7200  -50.2887 H         1 UNK         0.3000 
    236 H236       -2.2549  -20.3031  -50.6121 H         1 UNK         0.0600 
    237 H237       -0.4037  -18.7266  -50.4564 H         1 UNK         0.0600 
    238 H238       -1.6465  -18.1681  -49.3559 H         1 UNK         0.0600 
    239 H239       -1.4144  -17.3706  -50.9081 H         1 UNK         0.0600 
    240 H240       -0.2143  -19.5898  -52.2443 H         1 UNK         0.3000 
    241 H241        0.6350  -19.8309  -54.2497 H         1 UNK         0.0600 
    242 H242       -1.2364  -23.0635  -54.6996 H         1 UNK         0.3800 
    243 H243       -0.9465  -22.1279  -53.2555 H         1 UNK         0.3800 
    244 H244       -0.2012  -18.6162  -56.1799 H         1 UNK         0.0800 
    245 H245       -1.7924  -18.4896  -55.4874 H         1 UNK         0.0800 
    246 H246        1.9429  -17.8019  -54.8457 H         1 UNK         0.0800 
    247 H247        1.9790  -16.1012  -54.4681 H         1 UNK         0.0800 
@<TRIPOS>BOND
     1    1    2 1    
     2    1  127 1    
     3    1  128 1    
     4    1  129 1    
     5    2    3 2    
     6    2    4 am   BACKBONE|DICT|INTERRES
     7    4    5 1    
     8    4  130 1    
     9    5    6 1    
    10    5   65 1    
    11    5  131 1    
    12    6    7 1    
    13    6  132 1    
    14    6  133 1    
    15    7    8 1    
    16    8    9 1    
    17    8  134 1    
    18    8  135 1    
    19    9   10 ar   
    20    9   14 ar   
    21   10   11 ar   
    22   10  136 1    
    23   11   12 ar   
    24   11  126 1    
    25   12   13 ar   
    26   12  137 1    
    27   13   14 ar   
    28   13   15 1    
    29   14  138 1    
    30   15   16 1    
    31   15  139 1    
    32   15  140 1    
    33   16   17 1    
    34   17   18 1    
    35   17  141 1    
    36   17  142 1    
    37   18   19 1    
    38   18   67 1    
    39   18  143 1    
    40   19   20 am   BACKBONE|DICT|INTERRES
    41   19  144 1    
    42   20   21 2    
    43   20   22 1    
    44   22   23 1    
    45   22   24 1    
    46   22  145 1    
    47   23  146 1    
    48   23  147 1    
    49   23  148 1    
    50   24   25 am   BACKBONE|DICT|INTERRES
    51   24  149 1    
    52   25   26 2    
    53   25   27 1    
    54   27   28 1    
    55   27   29 1    
    56   27  150 1    
    57   28  151 1    
    58   28  152 1    
    59   28  153 1    
    60   29   30 am   BACKBONE|DICT|INTERRES
    61   29  154 1    
    62   30   31 2    
    63   30   32 1    
    64   32   33 1    
    65   32   34 1    
    66   32  155 1    
    67   33  156 1    
    68   33  157 1    
    69   33  158 1    
    70   34   35 am   BACKBONE|DICT|INTERRES
    71   34  159 1    
    72   35   36 2    
    73   35   37 1    
    74   37   38 1    
    75   37   39 1    
    76   37  160 1    
    77   38  161 1    
    78   38  162 1    
    79   38  163 1    
    80   39   40 am   BACKBONE|DICT|INTERRES
    81   39  164 1    
    82   40   41 2    
    83   40   42 1    
    84   42   43 1    
    85   42   44 1    
    86   42  165 1    
    87   43  166 1    
    88   43  167 1    
    89   43  168 1    
    90   44   45 am   BACKBONE|DICT|INTERRES
    91   44  169 1    
    92   45   46 2    
    93   45   47 1    
    94   47   48 1    
    95   47   49 1    
    96   47  170 1    
    97   48  171 1    
    98   48  172 1    
    99   48  173 1    
   100   49   50 am   BACKBONE|DICT|INTERRES
   101   49  174 1    
   102   50   51 2    
   103   50   52 1    
   104   52   53 1    
   105   52   54 1    
   106   52  175 1    
   107   53  176 1    
   108   53  177 1    
   109   53  178 1    
   110   54   55 am   BACKBONE|DICT|INTERRES
   111   54  179 1    
   112   55   56 2    
   113   55   57 1    
   114   57   58 1    
   115   57   59 1    
   116   57  180 1    
   117   58  181 1    
   118   58  182 1    
   119   58  183 1    
   120   59   60 am   BACKBONE|DICT|INTERRES
   121   59  184 1    
   122   60   61 2    
   123   60   62 1    
   124   62   63 1    
   125   62   64 1    
   126   62  185 1    
   127   63  186 1    
   128   63  187 1    
   129   63  188 1    
   130   64   65 am   BACKBONE|DICT|INTERRES
   131   64  189 1    
   132   65   66 2    
   133   67   68 2    
   134   67   69 am   BACKBONE|DICT|INTERRES
   135   69   70 1    
   136   69  190 1    
   137   70   71 1    
   138   70   72 1    
   139   70  191 1    
   140   71  192 1    
   141   71  193 1    
   142   71  194 1    
   143   72   73 2    
   144   72   74 am   BACKBONE|DICT|INTERRES
   145   74   75 1    
   146   74  195 1    
   147   75   76 1    
   148   75   77 1    
   149   75  196 1    
   150   76  197 1    
   151   76  198 1    
   152   76  199 1    
   153   77   78 2    
   154   77   79 am   BACKBONE|DICT|INTERRES
   155   79   80 1    
   156   79  200 1    
   157   80   81 1    
   158   80   82 1    
   159   80  201 1    
   160   81  202 1    
   161   81  203 1    
   162   81  204 1    
   163   82   83 2    
   164   82   84 am   BACKBONE|DICT|INTERRES
   165   84   85 1    
   166   84  205 1    
   167   85   86 1    
   168   85   87 1    
   169   85  206 1    
   170   86  207 1    
   171   86  208 1    
   172   86  209 1    
   173   87   88 2    
   174   87   89 am   BACKBONE|DICT|INTERRES
   175   89   90 1    
   176   89  210 1    
   177   90   91 1    
   178   90   92 1    
   179   90  211 1    
   180   91  212 1    
   181   91  213 1    
   182   91  214 1    
   183   92   93 2    
   184   92   94 am   BACKBONE|DICT|INTERRES
   185   94   95 1    
   186   94  215 1    
   187   95   96 1    
   188   95   97 1    
   189   95  216 1    
   190   96  217 1    
   191   96  218 1    
   192   96  219 1    
   193   97   98 2    
   194   97   99 am   BACKBONE|DICT|INTERRES
   195   99  100 1    
   196   99  220 1    
   197  100  101 1    
   198  100  102 1    
   199  100  221 1    
   200  101  222 1    
   201  101  223 1    
   202  101  224 1    
   203  102  103 2    
   204  102  104 am   BACKBONE|DICT|INTERRES
   205  104  105 1    
   206  104  225 1    
   207  105  106 1    
   208  105  107 1    
   209  105  226 1    
   210  106  227 1    
   211  106  228 1    
   212  106  229 1    
   213  107  108 2    
   214  107  109 am   BACKBONE|DICT|INTERRES
   215  109  110 1    
   216  109  230 1    
   217  110  111 1    
   218  110  112 1    
   219  110  231 1    
   220  111  232 1    
   221  111  233 1    
   222  111  234 1    
   223  112  113 2    
   224  112  114 am   BACKBONE|DICT|INTERRES
   225  114  115 1    
   226  114  235 1    
   227  115  116 1    
   228  115  117 1    
   229  115  236 1    
   230  116  237 1    
   231  116  238 1    
   232  116  239 1    
   233  117  118 2    
   234  117  119 am   BACKBONE|DICT|INTERRES
   235  119  120 1    
   236  119  240 1    
   237  120  121 1    
   238  120  124 1    
   239  120  241 1    
   240  121  122 am   BACKBONE|DICT|INTERRES
   241  121  123 2    
   242  122  242 1    
   243  122  243 1    
   244  124  125 1    
   245  124  244 1    
   246  124  245 1    
   247  125  126 1    
   248  126  246 1    
   249  126  247 1    
@<TRIPOS>SUBSTRUCTURE
     1 UNK         1 GROUP             0       ****    0 ROOT    
