@<TRIPOS>MOLECULE
3R540
247   249    1
SMALL
USER_CHARGES


@<TRIPOS>ATOM
      1 CA          0.4843  -14.4872  -49.0571 C.3       0 UNK        -0.1800 
      2 C          -0.8238  -13.8254  -49.4869 C.2       0 UNK         0.5000 
      3 O          -0.7888  -12.7297  -50.0404 O.2       0 UNK        -0.5000 
      4 N          -1.9986  -14.4191  -49.2330 N.am      1 UNK        -0.5000 
      5 CA         -2.2351  -15.6879  -48.5256 C.3       1 UNK         0.1400 
      6 C6         -3.5569  -16.3612  -48.9693 C.3       23 UNK        -0.0398 
      7 S7         -3.6304  -16.6992  -50.7624 S.3       23 UNK        -0.2404 
      8 C8         -2.9758  -18.4045  -50.8672 C.3       23 UNK        -0.0205 
      9 C9         -1.4529  -18.5440  -50.9531 C.ar      23 UNK        -0.0193 
     10 C10        -0.6087  -17.4886  -51.3293 C.ar      23 UNK        -0.1150 
     11 C11         0.7707  -17.6863  -51.4914 C.ar      23 UNK        -0.0193 
     12 C12         1.2999  -18.9570  -51.2542 C.ar      23 UNK        -0.1150 
     13 C13         0.4759  -20.0235  -50.8885 C.ar      23 UNK        -0.0193 
     14 C14        -0.8950  -19.8065  -50.7310 C.ar      23 UNK        -0.1150 
     15 C15         1.0529  -21.4245  -50.7318 C.3       23 UNK        -0.0205 
     16 S16         2.3504  -21.5489  -49.4557 S.3       23 UNK        -0.2404 
     17 C17         1.4947  -20.9968  -47.9434 C.3       23 UNK        -0.0398 
     18 CA          0.7249  -22.1363  -47.2253 C.3       11 UNK         0.1400 
     19 N           0.7881  -22.0129  -45.7663 N.am      11 UNK        -0.5000 
     20 C           0.3695  -22.9440  -44.8975 C.2       10 UNK         0.5000 
     21 O          -0.0516  -24.0513  -45.2319 O.2       10 UNK        -0.5000 
     22 CA          0.3739  -22.5520  -43.4074 C.3       10 UNK         0.1400 
     23 CB          1.7593  -22.7873  -42.7882 C.3       10 UNK        -0.1800 
     24 N          -0.0319  -21.1617  -43.1908 N.am      10 UNK        -0.5000 
     25 C          -1.2475  -20.6745  -43.4807 C.2       9 UNK         0.5000 
     26 O          -2.1809  -21.3712  -43.8744 O.2       9 UNK        -0.5000 
     27 CA         -1.4392  -19.1503  -43.3753 C.3       9 UNK         0.1400 
     28 CB         -1.7914  -18.7431  -41.9384 C.3       9 UNK        -0.1800 
     29 N          -0.2694  -18.3988  -43.8318 N.am      9 UNK        -0.5000 
     30 C           0.2172  -18.4384  -45.0804 C.2       8 UNK         0.5000 
     31 O          -0.2783  -19.1059  -45.9864 O.2       8 UNK        -0.5000 
     32 CA          1.5102  -17.6542  -45.3509 C.3       8 UNK         0.1400 
     33 CB          1.2170  -16.1778  -45.6329 C.3       8 UNK        -0.1800 
     34 N           2.4540  -17.7714  -44.2429 N.am      8 UNK        -0.5000 
     35 C           3.1838  -18.8682  -44.0017 C.2       7 UNK         0.5000 
     36 O           3.1733  -19.8685  -44.7200 O.2       7 UNK        -0.5000 
     37 CA          4.0360  -18.8548  -42.7206 C.3       7 UNK         0.1400 
     38 CB          5.3812  -18.1567  -42.9689 C.3       7 UNK        -0.1800 
     39 N           3.3486  -18.2096  -41.5998 N.am      7 UNK        -0.5000 
     40 C           2.2718  -18.7246  -40.9885 C.2       6 UNK         0.5000 
     41 O           1.7560  -19.7955  -41.3068 O.2       6 UNK        -0.5000 
     42 CA          1.6392  -17.8943  -39.8557 C.3       6 UNK         0.1400 
     43 CB          2.3006  -18.2320  -38.5115 C.3       6 UNK        -0.1800 
     44 N           1.6934  -16.4466  -40.0675 N.am      6 UNK        -0.5000 
     45 C           1.1801  -15.7892  -41.1161 C.2       5 UNK         0.5000 
     46 O           0.6279  -16.3453  -42.0670 O.2       5 UNK        -0.5000 
     47 CA          1.3228  -14.2544  -41.1328 C.3       5 UNK         0.1400 
     48 CB          1.9851  -13.6578  -39.8701 C.3       5 UNK        -0.1800 
     49 N           2.0162  -13.7967  -42.3382 N.am      5 UNK        -0.5000 
     50 C           3.2464  -14.1446  -42.7479 C.2       4 UNK         0.5000 
     51 O           3.9667  -14.9367  -42.1376 O.2       4 UNK        -0.5000 
     52 CA          3.7513  -13.5225  -44.0664 C.3       4 UNK         0.1400 
     53 CB          4.6192  -14.5077  -44.8713 C.3       4 UNK        -0.1800 
     54 N           2.6464  -13.0446  -44.9053 N.am      4 UNK        -0.5000 
     55 C           2.2469  -11.7689  -44.9924 C.2       3 UNK         0.5000 
     56 O           2.7917  -10.8376  -44.3995 O.2       3 UNK        -0.5000 
     57 CA          1.0139  -11.4843  -45.8726 C.3       3 UNK         0.1400 
     58 CB          1.4477  -11.1955  -47.3180 C.3       3 UNK        -0.1800 
     59 N           0.0022  -12.5482  -45.8824 N.am      3 UNK        -0.5000 
     60 C          -0.6902  -12.9792  -44.8160 C.2       2 UNK         0.5000 
     61 O          -0.4544  -12.6060  -43.6668 O.2       2 UNK        -0.5000 
     62 CA         -1.8313  -13.9893  -45.0617 C.3       2 UNK         0.1400 
     63 CB         -3.1629  -13.4821  -44.4826 C.3       2 UNK        -0.1800 
     64 N          -2.0138  -14.2978  -46.4855 N.am      2 UNK        -0.5000 
     65 C          -2.1893  -15.5293  -46.9870 C.2       1 UNK         0.5000 
     66 O          -2.2909  -16.5316  -46.2826 O.2       1 UNK        -0.5000 
     67 C          -0.7364  -22.2214  -47.7102 C.2       11 UNK         0.5000 
     68 O          -1.0737  -23.1185  -48.4811 O.2       11 UNK        -0.5000 
     69 N          -1.5874  -21.3144  -47.2111 N.am      12 UNK        -0.5000 
     70 CA         -3.0226  -21.2740  -47.4878 C.3       12 UNK         0.1400 
     71 CB         -3.6317  -20.0151  -46.8567 C.3       12 UNK        -0.1800 
     72 C          -3.7573  -22.5407  -47.0132 C.2       12 UNK         0.5000 
     73 O          -4.6130  -23.0464  -47.7375 O.2       12 UNK        -0.5000 
     74 N          -3.3858  -23.0572  -45.8337 N.am      13 UNK        -0.5000 
     75 CA         -3.8832  -24.3184  -45.2847 C.3       13 UNK         0.1400 
     76 CB         -3.3998  -24.4857  -43.8366 C.3       13 UNK        -0.1800 
     77 C          -3.4841  -25.5318  -46.1435 C.2       13 UNK         0.5000 
     78 O          -4.3374  -26.3717  -46.4301 O.2       13 UNK        -0.5000 
     79 N          -2.2184  -25.5786  -46.5861 N.am      14 UNK        -0.5000 
     80 CA         -1.6963  -26.5964  -47.5043 C.3       14 UNK         0.1400 
     81 CB         -0.1719  -26.4498  -47.6242 C.3       14 UNK        -0.1800 
     82 C          -2.3643  -26.5520  -48.8935 C.2       14 UNK         0.5000 
     83 O          -2.5987  -27.6024  -49.4917 O.2       14 UNK        -0.5000 
     84 N          -2.7020  -25.3413  -49.3556 N.am      15 UNK        -0.5000 
     85 CA         -3.4703  -25.0758  -50.5727 C.3       15 UNK         0.1400 
     86 CB         -3.2265  -23.6191  -51.0012 C.3       15 UNK        -0.1800 
     87 C          -4.9836  -25.3468  -50.4272 C.2       15 UNK         0.5000 
     88 O          -5.7067  -25.2044  -51.4123 O.2       15 UNK        -0.5000 
     89 N          -5.4504  -25.6988  -49.2187 N.am      16 UNK        -0.5000 
     90 CA         -6.8493  -25.9373  -48.8434 C.3       16 UNK         0.1400 
     91 CB         -7.3950  -27.2021  -49.5383 C.3       16 UNK        -0.1800 
     92 C          -7.7429  -24.6948  -49.0506 C.2       16 UNK         0.5000 
     93 O          -8.8877  -24.8164  -49.4894 O.2       16 UNK        -0.5000 
     94 N          -7.1798  -23.5183  -48.7399 N.am      17 UNK        -0.5000 
     95 CA         -7.7502  -22.1732  -48.8577 C.3       17 UNK         0.1400 
     96 CB         -9.0178  -22.0245  -47.9907 C.3       17 UNK        -0.1800 
     97 C          -7.9619  -21.6877  -50.3081 C.2       17 UNK         0.5000 
     98 O          -8.5959  -20.6491  -50.5047 O.2       17 UNK        -0.5000 
     99 N          -7.4158  -22.4063  -51.2993 N.am      18 UNK        -0.5000 
    100 CA        -7.3890  -21.9805  -52.6975 C.3       18 UNK         0.1400 
    101 CB        -7.1227  -23.1989  -53.5944 C.3       18 UNK        -0.1800 
    102 C         -6.3070  -20.9106  -52.9237 C.2       18 UNK         0.5000 
    103 O         -5.2962  -20.8908  -52.2157 O.2       18 UNK        -0.5000 
    104 N         -6.5050  -20.0758  -53.9504 N.am      19 UNK        -0.5000 
    105 CA        -5.5689  -19.0380  -54.3913 C.3       19 UNK         0.1400 
    106 CB        -6.3544  -17.9475  -55.1417 C.3       19 UNK        -0.1800 
    107 C         -4.4078  -19.6214  -55.2276 C.2       19 UNK         0.5000 
    108 O         -4.1585  -19.1746  -56.3490 O.2       19 UNK        -0.5000 
    109 N         -3.7273  -20.6287  -54.6706 N.am      20 UNK        -0.5000 
    110 CA        -2.5203  -21.2367  -55.2233 C.3       20 UNK         0.1400 
    111 CB        -2.2958  -22.5921  -54.5368 C.3       20 UNK        -0.1800 
    112 C         -1.3036  -20.3235  -55.0001 C.2       20 UNK         0.5000 
    113 O         -1.3061  -19.5369  -54.0503 O.2       20 UNK        -0.5000 
    114 N         -0.2869  -20.4695  -55.8619 N.am      21 UNK        -0.5000 
    115 CA         1.0243  -19.8022  -55.8657 C.3       21 UNK         0.1400 
    116 CB         1.8640  -20.2272  -54.6482 C.3       21 UNK        -0.1800 
    117 C          0.9718  -18.2676  -56.0158 C.2       21 UNK         0.5000 
    118 O          1.5106  -17.7381  -56.9890 O.2       21 UNK        -0.5000 
    119 N          0.3132  -17.5894  -55.0735 N.am      22 UNK        -0.5000 
    120 CA         0.0103  -16.1544  -55.0997 C.3       22 UNK         0.1400 
    121 C         -1.4427  -15.8120  -54.6557 C.2       22 UNK         0.5000 
    122 N         -2.2580  -16.7661  -54.2193 N.am      22 UNK        -0.7600 
    123 O         -1.8517  -14.6571  -54.7400 O.2       22 UNK        -0.5000 
    124 C124        1.1203  -15.3127  -54.4080 C.3       23 UNK        -0.0398 
    125 S125        0.9731  -15.0666  -52.6005 S.3       23 UNK        -0.2404 
    126 C126        1.7375  -16.5717  -51.9032 C.3       23 UNK        -0.0205 
    127 H127        0.5184  -15.5398  -49.3320 H         1 UNK         0.0600 
    128 H128        1.3287  -14.0012  -49.5464 H         1 UNK         0.0600 
    129 H129        0.6296  -14.3977  -47.9834 H         1 UNK         0.0600 
    130 H130       -2.8372  -13.9623  -49.5627 H         1 UNK         0.3000 
    131 H131       -1.4370  -16.3874  -48.7741 H         1 UNK         0.0600 
    132 H132       -3.7195  -17.2965  -48.4336 H         1 UNK         0.0800 
    133 H133       -4.4063  -15.7245  -48.7165 H         1 UNK         0.0800 
    134 H134       -3.3892  -18.8623  -51.7663 H         1 UNK         0.0800 
    135 H135       -3.3583  -18.9909  -50.0308 H         1 UNK         0.0800 
    136 H136       -1.0327  -16.5153  -51.5195 H         1 UNK         0.1150 
    137 H137        2.3598  -19.1279  -51.3810 H         1 UNK         0.1150 
    138 H138       -1.5394  -20.6354  -50.4737 H         1 UNK         0.1150 
    139 H139        0.2667  -22.1492  -50.5208 H         1 UNK         0.0800 
    140 H140        1.4822  -21.7264  -51.6880 H         1 UNK         0.0800 
    141 H141        0.8621  -20.1345  -48.1605 H         1 UNK         0.0800 
    142 H142        2.2779  -20.6126  -47.2885 H         1 UNK         0.0800 
    143 H143        1.2040  -23.0873  -47.4687 H         1 UNK         0.0600 
    144 H144        1.1061  -21.1251  -45.4024 H         1 UNK         0.3000 
    145 H145       -0.3425  -23.1948  -42.8921 H         1 UNK         0.0600 
    146 H146        1.7472  -22.5987  -41.7146 H         1 UNK         0.0600 
    147 H147        2.0828  -23.8187  -42.9335 H         1 UNK         0.0600 
    148 H148        2.5150  -22.1388  -43.2325 H         1 UNK         0.0600 
    149 H149        0.6651  -20.5395  -42.7934 H         1 UNK         0.3000 
    150 H150       -2.2750  -18.8733  -44.0211 H         1 UNK         0.0600 
    151 H151       -2.7130  -19.2269  -41.6127 H         1 UNK         0.0600 
    152 H152       -1.9410  -17.6663  -41.8565 H         1 UNK         0.0600 
    153 H153       -1.0074  -19.0296  -41.2388 H         1 UNK         0.0600 
    154 H154        0.1674  -17.7784  -43.1545 H         1 UNK         0.3000 
    155 H155        1.9678  -18.0770  -46.2483 H         1 UNK         0.0600 
    156 H156        0.8609  -15.6567  -44.7443 H         1 UNK         0.0600 
    157 H157        0.4559  -16.0902  -46.4034 H         1 UNK         0.0600 
    158 H158        2.0998  -15.6666  -46.0103 H         1 UNK         0.0600 
    159 H159        2.4631  -17.0262  -43.5612 H         1 UNK         0.3000 
    160 H160        4.2375  -19.8923  -42.4452 H         1 UNK         0.0600 
    161 H161        6.0169  -18.1998  -42.0844 H         1 UNK         0.0600 
    162 H162        5.2495  -17.1080  -43.2357 H         1 UNK         0.0600 
    163 H163        5.9250  -18.6365  -43.7837 H         1 UNK         0.0600 
    164 H164        3.6894  -17.3020  -41.3111 H         1 UNK         0.3000 
    165 H165        0.5867  -18.1732  -39.7910 H         1 UNK         0.0600 
    166 H166        1.7972  -17.7289  -37.6857 H         1 UNK         0.0600 
    167 H167        2.2559  -19.3037  -38.3123 H         1 UNK         0.0600 
    168 H168        3.3510  -17.9384  -38.4946 H         1 UNK         0.0600 
    169 H169        2.1540  -15.9069  -39.3494 H         1 UNK         0.3000 
    170 H170        0.3080  -13.8586  -41.1921 H         1 UNK         0.0600 
    171 H171        1.4228  -13.9118  -38.9706 H         1 UNK         0.0600 
    172 H172        3.0100  -14.0055  -39.7357 H         1 UNK         0.0600 
    173 H173        2.0145  -12.5696  -39.9276 H         1 UNK         0.0600 
    174 H174        1.4707  -13.1802  -42.9289 H         1 UNK         0.3000 
    175 H175        4.3921  -12.6840  -43.7870 H         1 UNK         0.0600 
    176 H176        4.1179  -15.4598  -45.0374 H         1 UNK         0.0600 
    177 H177        4.8926  -14.0946  -45.8423 H         1 UNK         0.0600 
    178 H178        5.5480  -14.7242  -44.3422 H         1 UNK         0.0600 
    179 H179        2.1286  -13.7434  -45.4155 H         1 UNK         0.3000 
    180 H180        0.5354  -10.5858  -45.4772 H         1 UNK         0.0600 
    181 H181        2.1621  -10.3720  -47.3541 H         1 UNK         0.0600 
    182 H182        0.5974  -10.9120  -47.9388 H         1 UNK         0.0600 
    183 H183        1.9249  -12.0620  -47.7772 H         1 UNK         0.0600 
    184 H184       -0.2353  -12.9173  -46.7876 H         1 UNK         0.3000 
    185 H185       -1.5469  -14.8925  -44.5174 H         1 UNK         0.0600 
    186 H186       -3.0756  -13.2715  -43.4159 H         1 UNK         0.0600 
    187 H187       -3.4911  -12.5659  -44.9746 H         1 UNK         0.0600 
    188 H188       -3.9505  -14.2267  -44.6003 H         1 UNK         0.0600 
    189 H189       -2.0294  -13.5148  -47.1233 H         1 UNK         0.3000 
    190 H190       -1.2146  -20.5792  -46.6139 H         1 UNK         0.3000 
    191 H191       -3.1441  -21.2023  -48.5700 H         1 UNK         0.0600 
    192 H192       -3.6236  -20.0634  -45.7680 H         1 UNK         0.0600 
    193 H193       -4.6670  -19.8822  -47.1727 H         1 UNK         0.0600 
    194 H194       -3.0788  -19.1235  -47.1501 H         1 UNK         0.0600 
    195 H195       -2.7309  -22.5349  -45.2573 H         1 UNK         0.3000 
    196 H196       -4.9738  -24.2660  -45.2718 H         1 UNK         0.0600 
    197 H197       -3.7851  -25.4082  -43.4007 H         1 UNK         0.0600 
    198 H198       -3.7421  -23.6620  -43.2098 H         1 UNK         0.0600 
    199 H199       -2.3124  -24.5227  -43.7750 H         1 UNK         0.0600 
    200 H200       -1.5631  -24.8664  -46.2783 H         1 UNK         0.3000 
    201 H201       -1.9083  -27.5750  -47.0689 H         1 UNK         0.0600 
    202 H202        0.1104  -25.4806  -48.0353 H         1 UNK         0.0600 
    203 H203        0.3112  -26.5531  -46.6524 H         1 UNK         0.0600 
    204 H204        0.2440  -27.2174  -48.2779 H         1 UNK         0.0600 
    205 H205       -2.3921  -24.5264  -48.8338 H         1 UNK         0.3000 
    206 H206       -3.0996  -25.7292  -51.3649 H         1 UNK         0.0600 
    207 H207       -3.5952  -22.9131  -50.2577 H         1 UNK         0.0600 
    208 H208       -2.1649  -23.4223  -51.1516 H         1 UNK         0.0600 
    209 H209       -3.7373  -23.3947  -51.9382 H         1 UNK         0.0600 
    210 H210       -4.7857  -25.7703  -48.4580 H         1 UNK         0.3000 
    211 H211       -6.8458  -26.1293  -47.7696 H         1 UNK         0.0600 
    212 H212       -7.4861  -27.0666  -50.6164 H         1 UNK         0.0600 
    213 H213       -8.3834  -27.4612  -49.1573 H         1 UNK         0.0600 
    214 H214       -6.7451  -28.0592  -49.3615 H         1 UNK         0.0600 
    215 H215       -6.2164  -23.5290  -48.4050 H         1 UNK         0.3000 
    216 H216       -6.9953  -21.5064  -48.4386 H         1 UNK         0.0600 
    217 H217       -9.8544  -22.5969  -48.3917 H         1 UNK         0.0600 
    218 H218       -9.3348  -20.9825  -47.9368 H         1 UNK         0.0600 
    219 H219       -8.8387  -22.3598  -46.9691 H         1 UNK         0.0600 
    220 H220       -6.8873  -23.2382  -51.0709 H         1 UNK         0.3000 
    221 H221       -8.3644  -21.5640  -52.9582 H         1 UNK         0.0600 
    222 H222       -6.1137  -23.5886  -53.4551 H         1 UNK         0.0600 
    223 H223       -7.8262  -24.0059  -53.3885 H         1 UNK         0.0600 
    224 H224       -7.2256  -22.9374  -54.6481 H         1 UNK         0.0600 
    225 H225       -7.3377  -20.1848  -54.5113 H         1 UNK         0.3000 
    226 H226       -5.1231  -18.5706  -53.5110 H         1 UNK         0.0600 
    227 H227       -7.1327  -17.5179  -54.5108 H         1 UNK         0.0600 
    228 H228       -5.6980  -17.1304  -55.4443 H         1 UNK         0.0600 
    229 H229       -6.8293  -18.3396  -56.0418 H         1 UNK         0.0600 
    230 H230       -3.9848  -20.9002  -53.7277 H         1 UNK         0.3000 
    231 H231       -2.6616  -21.3970  -56.2941 H         1 UNK         0.0600 
    232 H232       -3.1721  -23.2346  -54.6269 H         1 UNK         0.0600 
    233 H233       -2.0753  -22.4676  -53.4763 H         1 UNK         0.0600 
    234 H234       -1.4546  -23.1229  -54.9841 H         1 UNK         0.0600 
    235 H235       -0.4153  -21.1280  -56.6174 H         1 UNK         0.3000 
    236 H236        1.5403  -20.1760  -56.7515 H         1 UNK         0.0600 
    237 H237        2.8313  -19.7234  -54.6391 H         1 UNK         0.0600 
    238 H238        1.3608  -19.9896  -53.7143 H         1 UNK         0.0600 
    239 H239        2.0538  -21.3003  -54.6574 H         1 UNK         0.0600 
    240 H240       -0.1339  -18.1303  -54.3384 H         1 UNK         0.3000 
    241 H241        0.0152  -15.8573  -56.1502 H         1 UNK         0.0600 
    242 H242       -3.1835  -16.5041  -53.9251 H         1 UNK         0.3800 
    243 H243       -1.9541  -17.7299  -54.1305 H         1 UNK         0.3800 
    244 H244        1.1150  -14.3144  -54.8475 H         1 UNK         0.0800 
    245 H245        2.1072  -15.7149  -54.6397 H         1 UNK         0.0800 
    246 H246        2.4654  -16.9638  -52.6150 H         1 UNK         0.0800 
    247 H247        2.3052  -16.2796  -51.0192 H         1 UNK         0.0800 
@<TRIPOS>BOND
     1    1    2 1    
     2    1  127 1    
     3    1  128 1    
     4    1  129 1    
     5    2    3 2    
     6    2    4 am   BACKBONE|DICT|INTERRES
     7    4    5 1    
     8    4  130 1    
     9    5    6 1    
    10    5   65 1    
    11    5  131 1    
    12    6    7 1    
    13    6  132 1    
    14    6  133 1    
    15    7    8 1    
    16    8    9 1    
    17    8  134 1    
    18    8  135 1    
    19    9   10 ar   
    20    9   14 ar   
    21   10   11 ar   
    22   10  136 1    
    23   11   12 ar   
    24   11  126 1    
    25   12   13 ar   
    26   12  137 1    
    27   13   14 ar   
    28   13   15 1    
    29   14  138 1    
    30   15   16 1    
    31   15  139 1    
    32   15  140 1    
    33   16   17 1    
    34   17   18 1    
    35   17  141 1    
    36   17  142 1    
    37   18   19 1    
    38   18   67 1    
    39   18  143 1    
    40   19   20 am   BACKBONE|DICT|INTERRES
    41   19  144 1    
    42   20   21 2    
    43   20   22 1    
    44   22   23 1    
    45   22   24 1    
    46   22  145 1    
    47   23  146 1    
    48   23  147 1    
    49   23  148 1    
    50   24   25 am   BACKBONE|DICT|INTERRES
    51   24  149 1    
    52   25   26 2    
    53   25   27 1    
    54   27   28 1    
    55   27   29 1    
    56   27  150 1    
    57   28  151 1    
    58   28  152 1    
    59   28  153 1    
    60   29   30 am   BACKBONE|DICT|INTERRES
    61   29  154 1    
    62   30   31 2    
    63   30   32 1    
    64   32   33 1    
    65   32   34 1    
    66   32  155 1    
    67   33  156 1    
    68   33  157 1    
    69   33  158 1    
    70   34   35 am   BACKBONE|DICT|INTERRES
    71   34  159 1    
    72   35   36 2    
    73   35   37 1    
    74   37   38 1    
    75   37   39 1    
    76   37  160 1    
    77   38  161 1    
    78   38  162 1    
    79   38  163 1    
    80   39   40 am   BACKBONE|DICT|INTERRES
    81   39  164 1    
    82   40   41 2    
    83   40   42 1    
    84   42   43 1    
    85   42   44 1    
    86   42  165 1    
    87   43  166 1    
    88   43  167 1    
    89   43  168 1    
    90   44   45 am   BACKBONE|DICT|INTERRES
    91   44  169 1    
    92   45   46 2    
    93   45   47 1    
    94   47   48 1    
    95   47   49 1    
    96   47  170 1    
    97   48  171 1    
    98   48  172 1    
    99   48  173 1    
   100   49   50 am   BACKBONE|DICT|INTERRES
   101   49  174 1    
   102   50   51 2    
   103   50   52 1    
   104   52   53 1    
   105   52   54 1    
   106   52  175 1    
   107   53  176 1    
   108   53  177 1    
   109   53  178 1    
   110   54   55 am   BACKBONE|DICT|INTERRES
   111   54  179 1    
   112   55   56 2    
   113   55   57 1    
   114   57   58 1    
   115   57   59 1    
   116   57  180 1    
   117   58  181 1    
   118   58  182 1    
   119   58  183 1    
   120   59   60 am   BACKBONE|DICT|INTERRES
   121   59  184 1    
   122   60   61 2    
   123   60   62 1    
   124   62   63 1    
   125   62   64 1    
   126   62  185 1    
   127   63  186 1    
   128   63  187 1    
   129   63  188 1    
   130   64   65 am   BACKBONE|DICT|INTERRES
   131   64  189 1    
   132   65   66 2    
   133   67   68 2    
   134   67   69 am   BACKBONE|DICT|INTERRES
   135   69   70 1    
   136   69  190 1    
   137   70   71 1    
   138   70   72 1    
   139   70  191 1    
   140   71  192 1    
   141   71  193 1    
   142   71  194 1    
   143   72   73 2    
   144   72   74 am   BACKBONE|DICT|INTERRES
   145   74   75 1    
   146   74  195 1    
   147   75   76 1    
   148   75   77 1    
   149   75  196 1    
   150   76  197 1    
   151   76  198 1    
   152   76  199 1    
   153   77   78 2    
   154   77   79 am   BACKBONE|DICT|INTERRES
   155   79   80 1    
   156   79  200 1    
   157   80   81 1    
   158   80   82 1    
   159   80  201 1    
   160   81  202 1    
   161   81  203 1    
   162   81  204 1    
   163   82   83 2    
   164   82   84 am   BACKBONE|DICT|INTERRES
   165   84   85 1    
   166   84  205 1    
   167   85   86 1    
   168   85   87 1    
   169   85  206 1    
   170   86  207 1    
   171   86  208 1    
   172   86  209 1    
   173   87   88 2    
   174   87   89 am   BACKBONE|DICT|INTERRES
   175   89   90 1    
   176   89  210 1    
   177   90   91 1    
   178   90   92 1    
   179   90  211 1    
   180   91  212 1    
   181   91  213 1    
   182   91  214 1    
   183   92   93 2    
   184   92   94 am   BACKBONE|DICT|INTERRES
   185   94   95 1    
   186   94  215 1    
   187   95   96 1    
   188   95   97 1    
   189   95  216 1    
   190   96  217 1    
   191   96  218 1    
   192   96  219 1    
   193   97   98 2    
   194   97   99 am   BACKBONE|DICT|INTERRES
   195   99  100 1    
   196   99  220 1    
   197  100  101 1    
   198  100  102 1    
   199  100  221 1    
   200  101  222 1    
   201  101  223 1    
   202  101  224 1    
   203  102  103 2    
   204  102  104 am   BACKBONE|DICT|INTERRES
   205  104  105 1    
   206  104  225 1    
   207  105  106 1    
   208  105  107 1    
   209  105  226 1    
   210  106  227 1    
   211  106  228 1    
   212  106  229 1    
   213  107  108 2    
   214  107  109 am   BACKBONE|DICT|INTERRES
   215  109  110 1    
   216  109  230 1    
   217  110  111 1    
   218  110  112 1    
   219  110  231 1    
   220  111  232 1    
   221  111  233 1    
   222  111  234 1    
   223  112  113 2    
   224  112  114 am   BACKBONE|DICT|INTERRES
   225  114  115 1    
   226  114  235 1    
   227  115  116 1    
   228  115  117 1    
   229  115  236 1    
   230  116  237 1    
   231  116  238 1    
   232  116  239 1    
   233  117  118 2    
   234  117  119 am   BACKBONE|DICT|INTERRES
   235  119  120 1    
   236  119  240 1    
   237  120  121 1    
   238  120  124 1    
   239  120  241 1    
   240  121  122 am   BACKBONE|DICT|INTERRES
   241  121  123 2    
   242  122  242 1    
   243  122  243 1    
   244  124  125 1    
   245  124  244 1    
   246  124  245 1    
   247  125  126 1    
   248  126  246 1    
   249  126  247 1    
@<TRIPOS>SUBSTRUCTURE
     1 UNK         1 GROUP             0       ****    0 ROOT    
