@<TRIPOS>MOLECULE
3R540
247   249    1
SMALL
USER_CHARGES


@<TRIPOS>ATOM
      1 CA          4.2717  -13.4321  -55.3367 C.3       0 UNK        -0.1800 
      2 C           3.5849  -13.8436  -54.0420 C.2       0 UNK         0.5000 
      3 O           3.3148  -15.0275  -53.8397 O.2       0 UNK        -0.5000 
      4 N           3.3022  -12.8749  -53.1668 N.am      1 UNK        -0.5000 
      5 CA          2.6832  -13.0630  -51.8572 C.3       1 UNK         0.1400 
      6 C6          1.1564  -13.3279  -51.9578 C.3       23 UNK        -0.0398 
      7 S7          0.5275  -14.2681  -50.5293 S.3       23 UNK        -0.2404 
      8 C8          0.7537  -15.9720  -51.1224 C.3       23 UNK        -0.0205 
      9 C9          0.5278  -16.9661  -49.9968 C.ar      23 UNK        -0.0193 
     10 C10        -0.7571  -17.4360  -49.7205 C.ar      23 UNK        -0.1150 
     11 C11        -0.9759  -18.3287  -48.6691 C.ar      23 UNK        -0.0193 
     12 C12         0.1010  -18.7425  -47.8802 C.ar      23 UNK        -0.1150 
     13 C13         1.3961  -18.2877  -48.1534 C.ar      23 UNK        -0.0193 
     14 C14         1.6018  -17.4039  -49.2175 C.ar      23 UNK        -0.1150 
     15 C15         2.5752  -18.7215  -47.2938 C.3       23 UNK        -0.0205 
     16 S16         2.9405  -20.4985  -47.4650 S.3       23 UNK        -0.2404 
     17 C17         2.1255  -21.1523  -45.9729 C.3       23 UNK        -0.0398 
     18 CA          1.6092  -22.6014  -46.1203 C.3       11 UNK         0.1400 
     19 N           1.4077  -23.2096  -44.8047 N.am      11 UNK        -0.5000 
     20 C           1.3201  -24.5231  -44.5630 C.2       10 UNK         0.5000 
     21 O           1.4450  -25.3881  -45.4284 O.2       10 UNK        -0.5000 
     22 CA          1.0162  -24.9327  -43.1087 C.3       10 UNK         0.1400 
     23 CB          2.3186  -25.0903  -42.3102 C.3       10 UNK        -0.1800 
     24 N           0.1399  -23.9800  -42.4206 N.am      10 UNK        -0.5000 
     25 C          -1.1527  -23.7982  -42.7238 C.2       9 UNK         0.5000 
     26 O          -1.7403  -24.4313  -43.5996 O.2       9 UNK        -0.5000 
     27 CA         -1.9040  -22.6934  -41.9573 C.3       9 UNK         0.1400 
     28 CB         -2.4257  -23.2267  -40.6151 C.3       9 UNK        -0.1800 
     29 N          -1.1242  -21.4739  -41.7225 N.am      9 UNK        -0.5000 
     30 C          -0.5299  -20.7297  -42.6642 C.2       8 UNK         0.5000 
     31 O          -0.4956  -21.0413  -43.8551 O.2       8 UNK        -0.5000 
     32 CA          0.0997  -19.4061  -42.1906 C.3       8 UNK         0.1400 
     33 CB          1.0185  -18.7769  -43.2519 C.3       8 UNK        -0.1800 
     34 N          -0.9436  -18.4457  -41.8311 N.am      8 UNK        -0.5000 
     35 C          -1.6018  -18.4334  -40.6625 C.2       7 UNK         0.5000 
     36 O          -1.3695  -19.2387  -39.7579 O.2       7 UNK        -0.5000 
     37 CA         -2.7237  -17.3860  -40.4786 C.3       7 UNK         0.1400 
     38 CB         -2.8561  -16.9099  -39.0165 C.3       7 UNK        -0.1800 
     39 N          -2.6433  -16.2444  -41.3980 N.am      7 UNK        -0.5000 
     40 C          -1.6783  -15.3163  -41.4652 C.2       6 UNK         0.5000 
     41 O          -0.6950  -15.2751  -40.7233 O.2       6 UNK        -0.5000 
     42 CA         -1.8372  -14.2681  -42.5829 C.3       6 UNK         0.1400 
     43 CB         -1.8370  -12.8424  -42.0099 C.3       6 UNK        -0.1800 
     44 N          -0.7901  -14.3879  -43.5978 N.am      6 UNK        -0.5000 
     45 C          -0.5681  -15.4777  -44.3507 C.2       5 UNK         0.5000 
     46 O          -1.2432  -16.5052  -44.2683 O.2       5 UNK        -0.5000 
     47 CA          0.5844  -15.4192  -45.3754 C.3       5 UNK         0.1400 
     48 CB          0.0220  -15.1426  -46.7761 C.3       5 UNK        -0.1800 
     49 N           1.5974  -14.4067  -45.0744 N.am      5 UNK        -0.5000 
     50 C           2.4270  -14.4296  -44.0202 C.2       4 UNK         0.5000 
     51 O           2.4983  -15.3731  -43.2337 O.2       4 UNK        -0.5000 
     52 CA          3.3168  -13.1886  -43.7839 C.3       4 UNK         0.1400 
     53 CB          4.7685  -13.4847  -44.1917 C.3       4 UNK        -0.1800 
     54 N           2.8726  -11.9812  -44.4858 N.am      4 UNK        -0.5000 
     55 C           1.6912  -11.3663  -44.3309 C.2       3 UNK         0.5000 
     56 O           0.8480  -11.7143  -43.5048 O.2       3 UNK        -0.5000 
     57 CA          1.3720  -10.2048  -45.2955 C.3       3 UNK         0.1400 
     58 CB          1.5541   -8.8548  -44.5853 C.3       3 UNK        -0.1800 
     59 N           2.1605  -10.2009  -46.5353 N.am      3 UNK        -0.5000 
     60 C           2.1854  -11.1794  -47.4509 C.2       2 UNK         0.5000 
     61 O           1.5649  -12.2404  -47.3384 O.2       2 UNK        -0.5000 
     62 CA          3.0959  -10.9468  -48.6649 C.3       2 UNK         0.1400 
     63 CB          4.5818  -11.0090  -48.2628 C.3       2 UNK        -0.1800 
     64 N           2.8201  -11.9654  -49.6717 N.am      2 UNK        -0.5000 
     65 C           3.0282  -11.8403  -50.9849 C.2       1 UNK         0.5000 
     66 O           3.4814  -10.8184  -51.5110 O.2       1 UNK        -0.5000 
     67 C           0.3170  -22.6877  -46.9591 C.2       11 UNK         0.5000 
     68 O           0.3749  -23.0395  -48.1362 O.2       11 UNK        -0.5000 
     69 N          -0.8319  -22.4306  -46.3157 N.am      12 UNK        -0.5000 
     70 CA         -2.1721  -22.6000  -46.8762 C.3       12 UNK         0.1400 
     71 CB         -3.2130  -22.0795  -45.8739 C.3       12 UNK        -0.1800 
     72 C          -2.4561  -24.0539  -47.2936 C.2       12 UNK         0.5000 
     73 O          -2.9221  -24.2831  -48.4112 O.2       12 UNK        -0.5000 
     74 N          -2.1139  -25.0050  -46.4124 N.am      13 UNK        -0.5000 
     75 CA         -2.2148  -26.4463  -46.6483 C.3       13 UNK         0.1400 
     76 CB         -1.8988  -27.2002  -45.3483 C.3       13 UNK        -0.1800 
     77 C          -1.3166  -26.9511  -47.7936 C.2       13 UNK         0.5000 
     78 O          -1.6890  -27.9095  -48.4717 O.2       13 UNK        -0.5000 
     79 N          -0.1798  -26.2816  -48.0314 N.am      14 UNK        -0.5000 
     80 CA          0.7502  -26.5364  -49.1351 C.3       14 UNK         0.1400 
     81 CB          2.1462  -26.0129  -48.7523 C.3       14 UNK        -0.1800 
     82 C           0.2377  -25.9644  -50.4773 C.2       14 UNK         0.5000 
     83 O           0.9590  -25.2416  -51.1656 O.2       14 UNK        -0.5000 
     84 N          -1.0114  -26.3088  -50.8167 N.am      15 UNK        -0.5000 
     85 CA         -1.7579  -26.0229  -52.0460 C.3       15 UNK         0.1400 
     86 CB         -1.0439  -26.6207  -53.2745 C.3       15 UNK        -0.1800 
     87 C          -2.1439  -24.5491  -52.2852 C.2       15 UNK         0.5000 
     88 O          -2.8800  -24.2878  -53.2364 O.2       15 UNK        -0.5000 
     89 N          -1.7063  -23.6064  -51.4398 N.am      16 UNK        -0.5000 
     90 CA         -2.0156  -22.1821  -51.5987 C.3       16 UNK         0.1400 
     91 CB         -1.0777  -21.3398  -50.7264 C.3       16 UNK        -0.1800 
     92 C          -3.4994  -21.8534  -51.3361 C.2       16 UNK         0.5000 
     93 O          -4.0438  -20.9602  -51.9862 O.2       16 UNK        -0.5000 
     94 N          -4.1516  -22.6082  -50.4394 N.am      17 UNK        -0.5000 
     95 CA         -5.5996  -22.5451  -50.2254 C.3       17 UNK         0.1400 
     96 CB         -5.9657  -23.2533  -48.9143 C.3       17 UNK        -0.1800 
     97 C          -6.3919  -23.1499  -51.3995 C.2       17 UNK         0.5000 
     98 O          -7.4465  -22.6234  -51.7510 O.2       17 UNK        -0.5000 
     99 N          -5.8592  -24.2185  -52.0118 N.am      18 UNK        -0.5000 
    100 CA        -6.4352  -24.8690  -53.1943 C.3       18 UNK         0.1400 
    101 CB        -5.7686  -26.2360  -53.4134 C.3       18 UNK        -0.1800 
    102 C         -6.3249  -23.9886  -54.4538 C.2       18 UNK         0.5000 
    103 O         -7.2482  -23.9655  -55.2678 O.2       18 UNK        -0.5000 
    104 N         -5.2207  -23.2366  -54.5561 N.am      19 UNK        -0.5000 
    105 CA        -4.9872  -22.1926  -55.5562 C.3       19 UNK         0.1400 
    106 CB        -3.4851  -21.8677  -55.5803 C.3       19 UNK        -0.1800 
    107 C         -5.8108  -20.9086  -55.3113 C.2       19 UNK         0.5000 
    108 O         -5.8165  -20.0292  -56.1735 O.2       19 UNK        -0.5000 
    109 N         -6.4759  -20.8195  -54.1490 N.am      20 UNK        -0.5000 
    110 CA        -7.3038  -19.7121  -53.6644 C.3       20 UNK         0.1400 
    111 CB        -8.5343  -19.4995  -54.5709 C.3       20 UNK        -0.1800 
    112 C         -6.5057  -18.4177  -53.4072 C.2       20 UNK         0.5000 
    113 O         -7.0568  -17.3216  -53.5261 O.2       20 UNK        -0.5000 
    114 N         -5.2267  -18.5610  -53.0305 N.am      21 UNK        -0.5000 
    115 CA        -4.3696  -17.4565  -52.5955 C.3       21 UNK         0.1400 
    116 CB        -2.8979  -17.8724  -52.7347 C.3       21 UNK        -0.1800 
    117 C         -4.6960  -17.0200  -51.1527 C.2       21 UNK         0.5000 
    118 O         -4.4966  -15.8537  -50.8128 O.2       21 UNK        -0.5000 
    119 N         -5.2298  -17.9547  -50.3573 N.am      22 UNK        -0.5000 
    120 CA        -5.8629  -17.7268  -49.0527 C.3       22 UNK         0.1400 
    121 C         -7.3092  -18.2857  -49.0869 C.2       22 UNK         0.5000 
    122 N         -8.2276  -17.6936  -48.3366 N.am      22 UNK        -0.7600 
    123 O         -7.6014  -19.2698  -49.7641 O.2       22 UNK        -0.5000 
    124 C124       -5.0684  -18.3721  -47.8879 C.3       23 UNK        -0.0398 
    125 S125       -3.4360  -17.5990  -47.6405 S.3       23 UNK        -0.2404 
    126 C126       -2.3752  -18.8551  -48.4077 C.3       23 UNK        -0.0205 
    127 H127        4.4463  -12.3566  -55.3787 H         1 UNK         0.0600 
    128 H128        3.6566  -13.7103  -56.1925 H         1 UNK         0.0600 
    129 H129        5.2335  -13.9367  -55.4282 H         1 UNK         0.0600 
    130 H130        3.5791  -11.9163  -53.3452 H         1 UNK         0.3000 
    131 H131        3.1712  -13.9252  -51.3967 H         1 UNK         0.0600 
    132 H132        0.5973  -12.3949  -52.0483 H         1 UNK         0.0800 
    133 H133        0.9195  -13.8956  -52.8586 H         1 UNK         0.0800 
    134 H134        1.7597  -16.0907  -51.5286 H         1 UNK         0.0800 
    135 H135        0.0636  -16.1680  -51.9441 H         1 UNK         0.0800 
    136 H136       -1.5939  -17.0926  -50.3101 H         1 UNK         0.1150 
    137 H137       -0.0732  -19.4223  -47.0600 H         1 UNK         0.1150 
    138 H138        2.5963  -17.0373  -49.4293 H         1 UNK         0.1150 
    139 H139        2.3842  -18.4642  -46.2512 H         1 UNK         0.0800 
    140 H140        3.4712  -18.1660  -47.5749 H         1 UNK         0.0800 
    141 H141        1.3207  -20.4883  -45.6611 H         1 UNK         0.0800 
    142 H142        2.8696  -21.1072  -45.1763 H         1 UNK         0.0800 
    143 H143        2.3766  -23.1842  -46.6349 H         1 UNK         0.0600 
    144 H144        1.2127  -22.5724  -44.0458 H         1 UNK         0.3000 
    145 H145        0.5138  -25.9020  -43.1353 H         1 UNK         0.0600 
    146 H146        2.9842  -25.8104  -42.7880 H         1 UNK         0.0600 
    147 H147        2.1210  -25.4523  -41.3011 H         1 UNK         0.0600 
    148 H148        2.8595  -24.1466  -42.2292 H         1 UNK         0.0600 
    149 H149        0.5500  -23.4196  -41.6879 H         1 UNK         0.3000 
    150 H150       -2.7660  -22.4089  -42.5634 H         1 UNK         0.0600 
    151 H151       -1.6091  -23.4857  -39.9400 H         1 UNK         0.0600 
    152 H152       -3.0311  -24.1228  -40.7585 H         1 UNK         0.0600 
    153 H153       -3.0532  -22.4888  -40.1147 H         1 UNK         0.0600 
    154 H154       -1.1390  -21.1020  -40.7796 H         1 UNK         0.3000 
    155 H155        0.7117  -19.6199  -41.3118 H         1 UNK         0.0600 
    156 H156        1.4283  -17.8297  -42.9026 H         1 UNK         0.0600 
    157 H157        0.4909  -18.5881  -44.1873 H         1 UNK         0.0600 
    158 H158        1.8620  -19.4309  -43.4724 H         1 UNK         0.0600 
    159 H159       -1.2017  -17.7757  -42.5476 H         1 UNK         0.3000 
    160 H160       -3.6489  -17.9046  -40.7334 H         1 UNK         0.0600 
    161 H161       -1.9360  -16.4513  -38.6536 H         1 UNK         0.0600 
    162 H162       -3.0872  -17.7433  -38.3522 H         1 UNK         0.0600 
    163 H163       -3.6597  -16.1813  -38.9096 H         1 UNK         0.0600 
    164 H164       -3.3830  -16.2011  -42.0856 H         1 UNK         0.3000 
    165 H165       -2.7955  -14.4247  -43.0824 H         1 UNK         0.0600 
    166 H166       -2.0014  -12.1016  -42.7927 H         1 UNK         0.0600 
    167 H167       -2.6300  -12.7184  -41.2715 H         1 UNK         0.0600 
    168 H168       -0.8918  -12.6059  -41.5195 H         1 UNK         0.0600 
    169 H169       -0.1694  -13.5928  -43.6949 H         1 UNK         0.3000 
    170 H170        1.0707  -16.3963  -45.3853 H         1 UNK         0.0600 
    171 H171        0.8110  -15.1588  -47.5273 H         1 UNK         0.0600 
    172 H172       -0.4683  -14.1700  -46.8296 H         1 UNK         0.0600 
    173 H173       -0.7137  -15.8957  -47.0595 H         1 UNK         0.0600 
    174 H174        1.6191  -13.6034  -45.6928 H         1 UNK         0.3000 
    175 H175        3.2951  -12.9754  -42.7134 H         1 UNK         0.0600 
    176 H176        5.1521  -14.3605  -43.6666 H         1 UNK         0.0600 
    177 H177        4.8526  -13.6802  -45.2615 H         1 UNK         0.0600 
    178 H178        5.4258  -12.6495  -43.9491 H         1 UNK         0.0600 
    179 H179        3.4947  -11.6232  -45.1945 H         1 UNK         0.3000 
    180 H180        0.3216  -10.3042  -45.5765 H         1 UNK         0.0600 
    181 H181        2.5947   -8.6846  -44.3065 H         1 UNK         0.0600 
    182 H182        0.9580   -8.8088  -43.6727 H         1 UNK         0.0600 
    183 H183        1.2355   -8.0278  -45.2202 H         1 UNK         0.0600 
    184 H184        2.7124   -9.3715  -46.7018 H         1 UNK         0.3000 
    185 H185        2.8652   -9.9603  -49.0725 H         1 UNK         0.0600 
    186 H186        4.8255  -10.2493  -47.5195 H         1 UNK         0.0600 
    187 H187        4.8416  -11.9802  -47.8393 H         1 UNK         0.0600 
    188 H188        5.2313  -10.8357  -49.1210 H         1 UNK         0.0600 
    189 H189        2.3591  -12.7919  -49.3076 H         1 UNK         0.3000 
    190 H190       -0.7808  -22.0990  -45.3553 H         1 UNK         0.3000 
    191 H191       -2.2418  -21.9887  -47.7731 H         1 UNK         0.0600 
    192 H192       -3.0100  -21.0447  -45.5962 H         1 UNK         0.0600 
    193 H193       -4.2167  -22.1094  -46.2949 H         1 UNK         0.0600 
    194 H194       -3.2268  -22.6721  -44.9602 H         1 UNK         0.0600 
    195 H195       -1.7891  -24.7229  -45.4912 H         1 UNK         0.3000 
    196 H196       -3.2485  -26.6628  -46.9251 H         1 UNK         0.0600 
    197 H197       -1.9847  -28.2784  -45.4892 H         1 UNK         0.0600 
    198 H198       -2.5899  -26.9213  -44.5526 H         1 UNK         0.0600 
    199 H199       -0.8862  -26.9932  -45.0010 H         1 UNK         0.0600 
    200 H200        0.0461  -25.4968  -47.4351 H         1 UNK         0.3000 
    201 H201        0.8373  -27.6167  -49.2683 H         1 UNK         0.0600 
    202 H202        2.8793  -26.2535  -49.5231 H         1 UNK         0.0600 
    203 H203        2.4950  -26.4639  -47.8232 H         1 UNK         0.0600 
    204 H204        2.1518  -24.9312  -48.6213 H         1 UNK         0.0600 
    205 H205       -1.5024  -26.8923  -50.1458 H         1 UNK         0.3000 
    206 H206       -2.7038  -26.5544  -51.9338 H         1 UNK         0.0600 
    207 H207       -0.8285  -27.6794  -53.1300 H         1 UNK         0.0600 
    208 H208       -1.6648  -26.5370  -54.1674 H         1 UNK         0.0600 
    209 H209       -0.1034  -26.1112  -53.4854 H         1 UNK         0.0600 
    210 H210       -1.1075  -23.8730  -50.6704 H         1 UNK         0.3000 
    211 H211       -1.8094  -21.9158  -52.6373 H         1 UNK         0.0600 
    212 H212       -1.2464  -21.5083  -49.6664 H         1 UNK         0.0600 
    213 H213       -1.2170  -20.2765  -50.9191 H         1 UNK         0.0600 
    214 H214       -0.0323  -21.5688  -50.9343 H         1 UNK         0.0600 
    215 H215       -3.6390  -23.3076  -49.9080 H         1 UNK         0.3000 
    216 H216       -5.8892  -21.4961  -50.1337 H         1 UNK         0.0600 
    217 H217       -7.0410  -23.2129  -48.7355 H         1 UNK         0.0600 
    218 H218       -5.4801  -22.7776  -48.0649 H         1 UNK         0.0600 
    219 H219       -5.6724  -24.3037  -48.9257 H         1 UNK         0.0600 
    220 H220       -4.9720  -24.5696  -51.6851 H         1 UNK         0.3000 
    221 H221       -7.4965  -25.0399  -53.0015 H         1 UNK         0.0600 
    222 H222       -4.7082  -26.1416  -53.6457 H         1 UNK         0.0600 
    223 H223       -5.8650  -26.8691  -52.5312 H         1 UNK         0.0600 
    224 H224       -6.2364  -26.7649  -54.2446 H         1 UNK         0.0600 
    225 H225       -4.4689  -23.3980  -53.8920 H         1 UNK         0.3000 
    226 H226       -5.2710  -22.5837  -56.5352 H         1 UNK         0.0600 
    227 H227       -3.2517  -21.1478  -56.3656 H         1 UNK         0.0600 
    228 H228       -3.1537  -21.4389  -54.6344 H         1 UNK         0.0600 
    229 H229       -2.8896  -22.7608  -55.7706 H         1 UNK         0.0600 
    230 H230       -6.3985  -21.5999  -53.5109 H         1 UNK         0.3000 
    231 H231       -7.6741  -20.0244  -52.6870 H         1 UNK         0.0600 
    232 H232       -8.2563  -19.1057  -55.5488 H         1 UNK         0.0600 
    233 H233       -9.2327  -18.7925  -54.1217 H         1 UNK         0.0600 
    234 H234       -9.0751  -20.4332  -54.7253 H         1 UNK         0.0600 
    235 H235       -4.8481  -19.4976  -52.9134 H         1 UNK         0.3000 
    236 H236       -4.5408  -16.6017  -53.2532 H         1 UNK         0.0600 
    237 H237       -2.6299  -18.6539  -52.0243 H         1 UNK         0.0600 
    238 H238       -2.6841  -18.2432  -53.7373 H         1 UNK         0.0600 
    239 H239       -2.2395  -17.0221  -52.5578 H         1 UNK         0.0600 
    240 H240       -5.3998  -18.8683  -50.7539 H         1 UNK         0.3000 
    241 H241       -5.9364  -16.6532  -48.8675 H         1 UNK         0.0600 
    242 H242       -9.1686  -18.0558  -48.3430 H         1 UNK         0.3800 
    243 H243       -8.0135  -16.8884  -47.7683 H         1 UNK         0.3800 
    244 H244       -4.9547  -19.4466  -48.0434 H         1 UNK         0.0800 
    245 H245       -5.6155  -18.2618  -46.9500 H         1 UNK         0.0800 
    246 H246       -2.3404  -19.7254  -47.7546 H         1 UNK         0.0800 
    247 H247       -2.8157  -19.1838  -49.3498 H         1 UNK         0.0800 
@<TRIPOS>BOND
     1    1    2 1    
     2    1  127 1    
     3    1  128 1    
     4    1  129 1    
     5    2    3 2    
     6    2    4 am   BACKBONE|DICT|INTERRES
     7    4    5 1    
     8    4  130 1    
     9    5    6 1    
    10    5   65 1    
    11    5  131 1    
    12    6    7 1    
    13    6  132 1    
    14    6  133 1    
    15    7    8 1    
    16    8    9 1    
    17    8  134 1    
    18    8  135 1    
    19    9   10 ar   
    20    9   14 ar   
    21   10   11 ar   
    22   10  136 1    
    23   11   12 ar   
    24   11  126 1    
    25   12   13 ar   
    26   12  137 1    
    27   13   14 ar   
    28   13   15 1    
    29   14  138 1    
    30   15   16 1    
    31   15  139 1    
    32   15  140 1    
    33   16   17 1    
    34   17   18 1    
    35   17  141 1    
    36   17  142 1    
    37   18   19 1    
    38   18   67 1    
    39   18  143 1    
    40   19   20 am   BACKBONE|DICT|INTERRES
    41   19  144 1    
    42   20   21 2    
    43   20   22 1    
    44   22   23 1    
    45   22   24 1    
    46   22  145 1    
    47   23  146 1    
    48   23  147 1    
    49   23  148 1    
    50   24   25 am   BACKBONE|DICT|INTERRES
    51   24  149 1    
    52   25   26 2    
    53   25   27 1    
    54   27   28 1    
    55   27   29 1    
    56   27  150 1    
    57   28  151 1    
    58   28  152 1    
    59   28  153 1    
    60   29   30 am   BACKBONE|DICT|INTERRES
    61   29  154 1    
    62   30   31 2    
    63   30   32 1    
    64   32   33 1    
    65   32   34 1    
    66   32  155 1    
    67   33  156 1    
    68   33  157 1    
    69   33  158 1    
    70   34   35 am   BACKBONE|DICT|INTERRES
    71   34  159 1    
    72   35   36 2    
    73   35   37 1    
    74   37   38 1    
    75   37   39 1    
    76   37  160 1    
    77   38  161 1    
    78   38  162 1    
    79   38  163 1    
    80   39   40 am   BACKBONE|DICT|INTERRES
    81   39  164 1    
    82   40   41 2    
    83   40   42 1    
    84   42   43 1    
    85   42   44 1    
    86   42  165 1    
    87   43  166 1    
    88   43  167 1    
    89   43  168 1    
    90   44   45 am   BACKBONE|DICT|INTERRES
    91   44  169 1    
    92   45   46 2    
    93   45   47 1    
    94   47   48 1    
    95   47   49 1    
    96   47  170 1    
    97   48  171 1    
    98   48  172 1    
    99   48  173 1    
   100   49   50 am   BACKBONE|DICT|INTERRES
   101   49  174 1    
   102   50   51 2    
   103   50   52 1    
   104   52   53 1    
   105   52   54 1    
   106   52  175 1    
   107   53  176 1    
   108   53  177 1    
   109   53  178 1    
   110   54   55 am   BACKBONE|DICT|INTERRES
   111   54  179 1    
   112   55   56 2    
   113   55   57 1    
   114   57   58 1    
   115   57   59 1    
   116   57  180 1    
   117   58  181 1    
   118   58  182 1    
   119   58  183 1    
   120   59   60 am   BACKBONE|DICT|INTERRES
   121   59  184 1    
   122   60   61 2    
   123   60   62 1    
   124   62   63 1    
   125   62   64 1    
   126   62  185 1    
   127   63  186 1    
   128   63  187 1    
   129   63  188 1    
   130   64   65 am   BACKBONE|DICT|INTERRES
   131   64  189 1    
   132   65   66 2    
   133   67   68 2    
   134   67   69 am   BACKBONE|DICT|INTERRES
   135   69   70 1    
   136   69  190 1    
   137   70   71 1    
   138   70   72 1    
   139   70  191 1    
   140   71  192 1    
   141   71  193 1    
   142   71  194 1    
   143   72   73 2    
   144   72   74 am   BACKBONE|DICT|INTERRES
   145   74   75 1    
   146   74  195 1    
   147   75   76 1    
   148   75   77 1    
   149   75  196 1    
   150   76  197 1    
   151   76  198 1    
   152   76  199 1    
   153   77   78 2    
   154   77   79 am   BACKBONE|DICT|INTERRES
   155   79   80 1    
   156   79  200 1    
   157   80   81 1    
   158   80   82 1    
   159   80  201 1    
   160   81  202 1    
   161   81  203 1    
   162   81  204 1    
   163   82   83 2    
   164   82   84 am   BACKBONE|DICT|INTERRES
   165   84   85 1    
   166   84  205 1    
   167   85   86 1    
   168   85   87 1    
   169   85  206 1    
   170   86  207 1    
   171   86  208 1    
   172   86  209 1    
   173   87   88 2    
   174   87   89 am   BACKBONE|DICT|INTERRES
   175   89   90 1    
   176   89  210 1    
   177   90   91 1    
   178   90   92 1    
   179   90  211 1    
   180   91  212 1    
   181   91  213 1    
   182   91  214 1    
   183   92   93 2    
   184   92   94 am   BACKBONE|DICT|INTERRES
   185   94   95 1    
   186   94  215 1    
   187   95   96 1    
   188   95   97 1    
   189   95  216 1    
   190   96  217 1    
   191   96  218 1    
   192   96  219 1    
   193   97   98 2    
   194   97   99 am   BACKBONE|DICT|INTERRES
   195   99  100 1    
   196   99  220 1    
   197  100  101 1    
   198  100  102 1    
   199  100  221 1    
   200  101  222 1    
   201  101  223 1    
   202  101  224 1    
   203  102  103 2    
   204  102  104 am   BACKBONE|DICT|INTERRES
   205  104  105 1    
   206  104  225 1    
   207  105  106 1    
   208  105  107 1    
   209  105  226 1    
   210  106  227 1    
   211  106  228 1    
   212  106  229 1    
   213  107  108 2    
   214  107  109 am   BACKBONE|DICT|INTERRES
   215  109  110 1    
   216  109  230 1    
   217  110  111 1    
   218  110  112 1    
   219  110  231 1    
   220  111  232 1    
   221  111  233 1    
   222  111  234 1    
   223  112  113 2    
   224  112  114 am   BACKBONE|DICT|INTERRES
   225  114  115 1    
   226  114  235 1    
   227  115  116 1    
   228  115  117 1    
   229  115  236 1    
   230  116  237 1    
   231  116  238 1    
   232  116  239 1    
   233  117  118 2    
   234  117  119 am   BACKBONE|DICT|INTERRES
   235  119  120 1    
   236  119  240 1    
   237  120  121 1    
   238  120  124 1    
   239  120  241 1    
   240  121  122 am   BACKBONE|DICT|INTERRES
   241  121  123 2    
   242  122  242 1    
   243  122  243 1    
   244  124  125 1    
   245  124  244 1    
   246  124  245 1    
   247  125  126 1    
   248  126  246 1    
   249  126  247 1    
@<TRIPOS>SUBSTRUCTURE
     1 UNK         1 GROUP             0       ****    0 ROOT    
