@<TRIPOS>MOLECULE
3R540
247   249    1
SMALL
USER_CHARGES


@<TRIPOS>ATOM
      1 CA          5.6372  -11.5836  -47.1818 C.3       0 UNK        -0.1800 
      2 C           4.6686  -12.7544  -47.1120 C.2       0 UNK         0.5000 
      3 O           4.3105  -13.1909  -46.0174 O.2       0 UNK        -0.5000 
      4 N           4.2238  -13.2579  -48.2715 N.am      1 UNK        -0.5000 
      5 CA          3.2916  -14.3869  -48.3831 C.3       1 UNK         0.1400 
      6 C6          3.1716  -14.9283  -49.8286 C.3       23 UNK        -0.0398 
      7 S7          2.6607  -13.7020  -51.0915 S.3       23 UNK        -0.2404 
      8 C8          0.8455  -13.8925  -51.1838 C.3       23 UNK        -0.0205 
      9 C9          0.4107  -15.3129  -51.5113 C.ar      23 UNK        -0.0193 
     10 C10         0.4797  -15.7906  -52.8235 C.ar      23 UNK        -0.1150 
     11 C11         0.0835  -17.0984  -53.1266 C.ar      23 UNK        -0.0193 
     12 C12        -0.3651  -17.9296  -52.0974 C.ar      23 UNK        -0.1150 
     13 C13        -0.4249  -17.4700  -50.7807 C.ar      23 UNK        -0.0193 
     14 C14        -0.0558  -16.1536  -50.4965 C.ar      23 UNK        -0.1150 
     15 C15        -0.8304  -18.4087  -49.6581 C.3       23 UNK        -0.0205 
     16 S16        -2.6179  -18.3637  -49.3445 S.3       23 UNK        -0.2404 
     17 C17        -2.9015  -19.4294  -47.8771 C.3       23 UNK        -0.0398 
     18 CA         -1.9828  -20.6670  -47.6892 C.3       11 UNK         0.1400 
     19 N          -0.6189  -20.3048  -47.2891 N.am      11 UNK        -0.5000 
     20 C           0.4075  -21.1561  -47.1623 C.2       10 UNK         0.5000 
     21 O           0.3128  -22.3673  -47.3604 O.2       10 UNK        -0.5000 
     22 CA          1.7531  -20.5718  -46.6871 C.3       10 UNK         0.1400 
     23 CB          1.9241  -19.0689  -46.9967 C.3       10 UNK        -0.1800 
     24 N           2.0067  -20.8253  -45.2642 N.am      10 UNK        -0.5000 
     25 C           1.2097  -20.5339  -44.2256 C.2       9 UNK         0.5000 
     26 O           0.0777  -20.0556  -44.3367 O.2       9 UNK        -0.5000 
     27 CA          1.7817  -20.8495  -42.8345 C.3       9 UNK         0.1400 
     28 CB          2.9962  -19.9644  -42.4979 C.3       9 UNK        -0.1800 
     29 N           0.7518  -20.6635  -41.8191 N.am      9 UNK        -0.5000 
     30 C           0.6487  -21.3527  -40.6781 C.2       8 UNK         0.5000 
     31 O           1.4384  -22.2415  -40.3531 O.2       8 UNK        -0.5000 
     32 CA         -0.5108  -20.9624  -39.7336 C.3       8 UNK         0.1400 
     33 CB         -0.5049  -21.7639  -38.4191 C.3       8 UNK        -0.1800 
     34 N          -0.4783  -19.5341  -39.4110 N.am      8 UNK        -0.5000 
     35 C          -0.9727  -18.5625  -40.1867 C.2       7 UNK         0.5000 
     36 O          -1.5820  -18.7912  -41.2339 O.2       7 UNK        -0.5000 
     37 CA         -0.7308  -17.1139  -39.7187 C.3       7 UNK         0.1400 
     38 CB          0.7551  -16.8580  -39.4024 C.3       7 UNK        -0.1800 
     39 N          -1.1353  -16.1881  -40.7711 N.am      7 UNK        -0.5000 
     40 C          -2.2169  -15.4006  -40.7579 C.2       6 UNK         0.5000 
     41 O          -2.9690  -15.2908  -39.7881 O.2       6 UNK        -0.5000 
     42 CA         -2.5198  -14.5932  -42.0385 C.3       6 UNK         0.1400 
     43 CB         -2.2006  -13.1041  -41.8327 C.3       6 UNK        -0.1800 
     44 N          -1.7874  -15.0790  -43.2091 N.am      6 UNK        -0.5000 
     45 C          -2.1029  -16.1814  -43.9023 C.2       5 UNK         0.5000 
     46 O          -3.1173  -16.8481  -43.6965 O.2       5 UNK        -0.5000 
     47 CA         -1.1269  -16.6163  -45.0135 C.3       5 UNK         0.1400 
     48 CB         -1.6258  -16.1138  -46.3765 C.3       5 UNK        -0.1800 
     49 N           0.2549  -16.1661  -44.8173 N.am      5 UNK        -0.5000 
     50 C           1.0480  -16.5184  -43.7947 C.2       4 UNK         0.5000 
     51 O           0.6961  -17.2599  -42.8814 O.2       4 UNK        -0.5000 
     52 CA          2.4493  -15.8830  -43.7465 C.3       4 UNK         0.1400 
     53 CB          3.4009  -16.5517  -44.7486 C.3       4 UNK        -0.1800 
     54 N           2.4054  -14.4412  -43.9875 N.am      4 UNK        -0.5000 
     55 C           1.8160  -13.5578  -43.1684 C.2       3 UNK         0.5000 
     56 O           1.3230  -13.8558  -42.0810 O.2       3 UNK        -0.5000 
     57 CA          1.7175  -12.1072  -43.6700 C.3       3 UNK         0.1400 
     58 CB          2.9949  -11.3194  -43.3426 C.3       3 UNK        -0.1800 
     59 N           1.4546  -12.0507  -45.1080 N.am      3 UNK        -0.5000 
     60 C           0.2781  -12.3635  -45.6706 C.2       2 UNK         0.5000 
     61 O          -0.7246  -12.6741  -45.0286 O.2       2 UNK        -0.5000 
     62 CA          0.2239  -12.3629  -47.2092 C.3       2 UNK         0.1400 
     63 CB         -0.1012  -10.9602  -47.7425 C.3       2 UNK        -0.1800 
     64 N           1.4709  -12.8313  -47.8136 N.am      2 UNK        -0.5000 
     65 C           1.9111  -14.0965  -47.7592 C.2       1 UNK         0.5000 
     66 O           1.2931  -15.0081  -47.2123 O.2       1 UNK        -0.5000 
     67 C          -2.6190  -21.6510  -46.6827 C.2       11 UNK         0.5000 
     68 O          -3.2947  -22.5922  -47.1000 O.2       11 UNK        -0.5000 
     69 N          -2.3550  -21.4446  -45.3844 N.am      12 UNK        -0.5000 
     70 CA         -2.8470  -22.2946  -44.3004 C.3       12 UNK         0.1400 
     71 CB         -2.8272  -21.4971  -42.9895 C.3       12 UNK        -0.1800 
     72 C          -2.0482  -23.6031  -44.1542 C.2       12 UNK         0.5000 
     73 O          -2.5766  -24.5650  -43.5975 O.2       12 UNK        -0.5000 
     74 N          -0.8057  -23.6290  -44.6586 N.am      13 UNK        -0.5000 
     75 CA          0.0168  -24.8372  -44.7349 C.3       13 UNK         0.1400 
     76 CB          1.5043  -24.4613  -44.8126 C.3       13 UNK        -0.1800 
     77 C          -0.3955  -25.7140  -45.9290 C.2       13 UNK         0.5000 
     78 O          -0.4629  -26.9355  -45.7887 O.2       13 UNK        -0.5000 
     79 N          -0.6852  -25.0737  -47.0718 N.am      14 UNK        -0.5000 
     80 CA         -1.2028  -25.7182  -48.2788 C.3       14 UNK         0.1400 
     81 CB         -1.1771  -24.7153  -49.4424 C.3       14 UNK        -0.1800 
     82 C          -2.6214  -26.2820  -48.0789 C.2       14 UNK         0.5000 
     83 O          -2.8921  -27.4002  -48.5157 O.2       14 UNK        -0.5000 
     84 N          -3.4783  -25.4903  -47.4152 N.am      15 UNK        -0.5000 
     85 CA         -4.8617  -25.7744  -47.0177 C.3       15 UNK         0.1400 
     86 CB         -4.8531  -26.6900  -45.7769 C.3       15 UNK        -0.1800 
     87 C          -5.7481  -26.3327  -48.1601 C.2       15 UNK         0.5000 
     88 O          -6.2048  -27.4725  -48.0706 O.2       15 UNK        -0.5000 
     89 N          -5.9980  -25.5853  -49.2439 N.am      16 UNK        -0.5000 
     90 CA         -5.5915  -24.2083  -49.5278 C.3       16 UNK         0.1400 
     91 CB         -6.7030  -23.2383  -49.0902 C.3       16 UNK        -0.1800 
     92 C          -5.2270  -24.0924  -51.0169 C.2       16 UNK         0.5000 
     93 O          -5.6306  -23.1422  -51.6874 O.2       16 UNK        -0.5000 
     94 N          -4.4648  -25.0769  -51.5163 N.am      17 UNK        -0.5000 
     95 CA         -4.0469  -25.1965  -52.9176 C.3       17 UNK         0.1400 
     96 CB         -3.2369  -26.4893  -53.0936 C.3       17 UNK        -0.1800 
     97 C          -3.2501  -23.9858  -53.4395 C.2       17 UNK         0.5000 
     98 O          -3.4240  -23.5958  -54.5930 O.2       17 UNK        -0.5000 
     99 N          -2.4269  -23.3851  -52.5697 N.am      18 UNK        -0.5000 
    100 CA        -1.6699  -22.1678  -52.8607 C.3       18 UNK         0.1400 
    101 CB        -0.6254  -21.9456  -51.7565 C.3       18 UNK        -0.1800 
    102 C         -2.5816  -20.9363  -53.0219 C.2       18 UNK         0.5000 
    103 O         -2.3432  -20.1176  -53.9096 O.2       18 UNK        -0.5000 
    104 N         -3.6333  -20.8484  -52.1938 N.am      19 UNK        -0.5000 
    105 CA        -4.6462  -19.7928  -52.2643 C.3       19 UNK         0.1400 
    106 CB        -5.5555  -19.8492  -51.0262 C.3       19 UNK        -0.1800 
    107 C         -5.4883  -19.8994  -53.5459 C.2       19 UNK         0.5000 
    108 O         -5.8159  -18.8748  -54.1420 O.2       19 UNK        -0.5000 
    109 N         -5.7934  -21.1393  -53.9560 N.am      20 UNK        -0.5000 
    110 CA        -6.4635  -21.4560  -55.2152 C.3       20 UNK         0.1400 
    111 CB        -6.8825  -22.9339  -55.2217 C.3       20 UNK        -0.1800 
    112 C         -5.5925  -21.1153  -56.4390 C.2       20 UNK         0.5000 
    113 O         -6.0970  -20.5119  -57.3865 O.2       20 UNK        -0.5000 
    114 N         -4.2970  -21.4615  -56.3836 N.am      21 UNK        -0.5000 
    115 CA        -3.3045  -21.1714  -57.4239 C.3       21 UNK         0.1400 
    116 CB        -1.9688  -21.8426  -57.0694 C.3       21 UNK        -0.1800 
    117 C         -3.1075  -19.6643  -57.6783 C.2       21 UNK         0.5000 
    118 O         -3.0034  -19.2558  -58.8357 O.2       21 UNK        -0.5000 
    119 N         -3.1056  -18.8686  -56.6019 N.am      22 UNK        -0.5000 
    120 CA        -3.1274  -17.3964  -56.6448 C.3       22 UNK         0.1400 
    121 C         -4.5442  -16.7765  -56.8583 C.2       22 UNK         0.5000 
    122 N         -5.5983  -17.5468  -57.0974 N.am      22 UNK        -0.7600 
    123 O         -4.6909  -15.5571  -56.8415 O.2       22 UNK        -0.5000 
    124 C124       -2.3756  -16.7806  -55.4300 C.3       23 UNK        -0.0398 
    125 S125       -0.5977  -16.5746  -55.7906 S.3       23 UNK        -0.2404 
    126 C126        0.1917  -17.6433  -54.5466 C.3       23 UNK        -0.0205 
    127 H127        5.8441  -11.2896  -48.2110 H         1 UNK         0.0600 
    128 H128        6.5811  -11.8506  -46.7067 H         1 UNK         0.0600 
    129 H129        5.2221  -10.7227  -46.6577 H         1 UNK         0.0600 
    130 H130        4.5355  -12.8582  -49.1458 H         1 UNK         0.3000 
    131 H131        3.7213  -15.1946  -47.7869 H         1 UNK         0.0600 
    132 H132        4.1482  -15.3031  -50.1375 H         1 UNK         0.0800 
    133 H133        2.5248  -15.8042  -49.8565 H         1 UNK         0.0800 
    134 H134        0.4659  -13.2174  -51.9521 H         1 UNK         0.0800 
    135 H135        0.3897  -13.5614  -50.2508 H         1 UNK         0.0800 
    136 H136        0.8494  -15.1455  -53.6082 H         1 UNK         0.1150 
    137 H137       -0.6486  -18.9455  -52.3173 H         1 UNK         0.1150 
    138 H138       -0.1033  -15.7936  -49.4783 H         1 UNK         0.1150 
    139 H139       -0.5193  -19.4257  -49.8980 H         1 UNK         0.0800 
    140 H140       -0.3027  -18.1147  -48.7529 H         1 UNK         0.0800 
    141 H141       -3.9434  -19.7475  -47.9486 H         1 UNK         0.0800 
    142 H142       -2.8591  -18.7991  -46.9881 H         1 UNK         0.0800 
    143 H143       -1.9213  -21.1918  -48.6437 H         1 UNK         0.0600 
    144 H144       -0.4657  -19.3427  -47.0291 H         1 UNK         0.3000 
    145 H145        2.5256  -21.1085  -47.2398 H         1 UNK         0.0600 
    146 H146        1.7880  -18.8683  -48.0594 H         1 UNK         0.0600 
    147 H147        1.2263  -18.4434  -46.4395 H         1 UNK         0.0600 
    148 H148        2.9318  -18.7401  -46.7453 H         1 UNK         0.0600 
    149 H149        2.9005  -21.2524  -45.0662 H         1 UNK         0.3000 
    150 H150        2.0963  -21.8938  -42.8432 H         1 UNK         0.0600 
    151 H151        3.7858  -20.0643  -43.2432 H         1 UNK         0.0600 
    152 H152        3.4273  -20.2410  -41.5357 H         1 UNK         0.0600 
    153 H153        2.7237  -18.9109  -42.4456 H         1 UNK         0.0600 
    154 H154        0.0521  -19.9612  -42.0456 H         1 UNK         0.3000 
    155 H155       -1.4430  -21.1950  -40.2521 H         1 UNK         0.0600 
    156 H156        0.4046  -21.5887  -37.8431 H         1 UNK         0.0600 
    157 H157       -0.5712  -22.8353  -38.6133 H         1 UNK         0.0600 
    158 H158       -1.3556  -21.4973  -37.7916 H         1 UNK         0.0600 
    159 H159        0.0337  -19.2793  -38.5790 H         1 UNK         0.3000 
    160 H160       -1.3180  -16.9504  -38.8133 H         1 UNK         0.0600 
    161 H161        1.3980  -17.1250  -40.2423 H         1 UNK         0.0600 
    162 H162        1.0857  -17.4329  -38.5372 H         1 UNK         0.0600 
    163 H163        0.9316  -15.8068  -39.1730 H         1 UNK         0.0600 
    164 H164       -0.6229  -16.2926  -41.6405 H         1 UNK         0.3000 
    165 H165       -3.5898  -14.6839  -42.2364 H         1 UNK         0.0600 
    166 H166       -2.4491  -12.5208  -42.7196 H         1 UNK         0.0600 
    167 H167       -2.7750  -12.6927  -41.0018 H         1 UNK         0.0600 
    168 H168       -1.1455  -12.9444  -41.6115 H         1 UNK         0.0600 
    169 H169       -0.9612  -14.5608  -43.4759 H         1 UNK         0.3000 
    170 H170       -1.1202  -17.7077  -45.0287 H         1 UNK         0.0600 
    171 H171       -2.6517  -16.4310  -46.5656 H         1 UNK         0.0600 
    172 H172       -1.6076  -15.0252  -46.4304 H         1 UNK         0.0600 
    173 H173       -1.0108  -16.4974  -47.1887 H         1 UNK         0.0600 
    174 H174        0.6412  -15.5822  -45.5551 H         1 UNK         0.3000 
    175 H175        2.8519  -16.0426  -42.7438 H         1 UNK         0.0600 
    176 H176        3.0568  -16.4314  -45.7750 H         1 UNK         0.0600 
    177 H177        4.4040  -16.1303  -44.6813 H         1 UNK         0.0600 
    178 H178        3.4823  -17.6213  -44.5530 H         1 UNK         0.0600 
    179 H179        2.8377  -14.1004  -44.8390 H         1 UNK         0.3000 
    180 H180        0.8845  -11.6298  -43.1491 H         1 UNK         0.0600 
    181 H181        2.9112  -10.2811  -43.6640 H         1 UNK         0.0600 
    182 H182        3.8738  -11.7496  -43.8230 H         1 UNK         0.0600 
    183 H183        3.1812  -11.3128  -42.2679 H         1 UNK         0.0600 
    184 H184        2.2443  -11.8562  -45.7062 H         1 UNK         0.3000 
    185 H185       -0.5781  -13.0376  -47.5157 H         1 UNK         0.0600 
    186 H186       -0.2094  -10.9667  -48.8273 H         1 UNK         0.0600 
    187 H187       -1.0396  -10.5926  -47.3251 H         1 UNK         0.0600 
    188 H188        0.6770  -10.2401  -47.4863 H         1 UNK         0.0600 
    189 H189        2.0427  -12.1434  -48.2817 H         1 UNK         0.3000 
    190 H190       -1.7219  -20.6973  -45.1164 H         1 UNK         0.3000 
    191 H191       -3.8834  -22.5665  -44.5127 H         1 UNK         0.0600 
    192 H192       -3.2156  -22.0903  -42.1609 H         1 UNK         0.0600 
    193 H193       -3.4400  -20.5983  -43.0628 H         1 UNK         0.0600 
    194 H194       -1.8170  -21.1875  -42.7282 H         1 UNK         0.0600 
    195 H195       -0.4630  -22.8098  -45.1387 H         1 UNK         0.3000 
    196 H196       -0.1282  -25.4238  -43.8249 H         1 UNK         0.0600 
    197 H197        1.7257  -23.8345  -45.6759 H         1 UNK         0.0600 
    198 H198        1.8204  -23.9301  -43.9165 H         1 UNK         0.0600 
    199 H199        2.1258  -25.3542  -44.8912 H         1 UNK         0.0600 
    200 H200       -0.5189  -24.0729  -47.1254 H         1 UNK         0.3000 
    201 H201       -0.5405  -26.5498  -48.5289 H         1 UNK         0.0600 
    202 H202       -0.1673  -24.3418  -49.6137 H         1 UNK         0.0600 
    203 H203       -1.8216  -23.8565  -49.2513 H         1 UNK         0.0600 
    204 H204       -1.5103  -25.1875  -50.3667 H         1 UNK         0.0600 
    205 H205       -3.1566  -24.5601  -47.1654 H         1 UNK         0.3000 
    206 H206       -5.3017  -24.8235  -46.7144 H         1 UNK         0.0600 
    207 H207       -4.2940  -26.2371  -44.9584 H         1 UNK         0.0600 
    208 H208       -5.8657  -26.8719  -45.4151 H         1 UNK         0.0600 
    209 H209       -4.3999  -27.6583  -45.9927 H         1 UNK         0.0600 
    210 H210       -6.5519  -26.0063  -49.9765 H         1 UNK         0.3000 
    211 H211       -4.6867  -23.9366  -48.9901 H         1 UNK         0.0600 
    212 H212       -6.3933  -22.2024  -49.2274 H         1 UNK         0.0600 
    213 H213       -6.9447  -23.3614  -48.0347 H         1 UNK         0.0600 
    214 H214       -7.6182  -23.3905  -49.6636 H         1 UNK         0.0600 
    215 H215       -4.2030  -25.8360  -50.9036 H         1 UNK         0.3000 
    216 H216       -4.9518  -25.2756  -53.5234 H         1 UNK         0.0600 
    217 H217       -2.3346  -26.4878  -52.4809 H         1 UNK         0.0600 
    218 H218       -2.9286  -26.6188  -54.1320 H         1 UNK         0.0600 
    219 H219       -3.8265  -27.3647  -52.8204 H         1 UNK         0.0600 
    220 H220       -2.3397  -23.7714  -51.6433 H         1 UNK         0.3000 
    221 H221       -1.1391  -22.3160  -53.8035 H         1 UNK         0.0600 
    222 H222        0.0271  -22.8126  -51.6529 H         1 UNK         0.0600 
    223 H223       -1.0907  -21.7587  -50.7892 H         1 UNK         0.0600 
    224 H224        0.0149  -21.0947  -51.9873 H         1 UNK         0.0600 
    225 H225       -3.8119  -21.6004  -51.5459 H         1 UNK         0.3000 
    226 H226       -4.1278  -18.8313  -52.2684 H         1 UNK         0.0600 
    227 H227       -6.2548  -20.6835  -51.0718 H         1 UNK         0.0600 
    228 H228       -4.9818  -19.9479  -50.1069 H         1 UNK         0.0600 
    229 H229       -6.1485  -18.9377  -50.9453 H         1 UNK         0.0600 
    230 H230       -5.5320  -21.9186  -53.3620 H         1 UNK         0.3000 
    231 H231       -7.3698  -20.8495  -55.2720 H         1 UNK         0.0600 
    232 H232       -6.0222  -23.6011  -55.1789 H         1 UNK         0.0600 
    233 H233       -7.4386  -23.1757  -56.1282 H         1 UNK         0.0600 
    234 H234       -7.5263  -23.1647  -54.3727 H         1 UNK         0.0600 
    235 H235       -3.9724  -22.0070  -55.5907 H         1 UNK         0.3000 
    236 H236       -3.6680  -21.6160  -58.3525 H         1 UNK         0.0600 
    237 H237       -1.5586  -21.4565  -56.1366 H         1 UNK         0.0600 
    238 H238       -2.0844  -22.9214  -56.9643 H         1 UNK         0.0600 
    239 H239       -1.2265  -21.6700  -57.8496 H         1 UNK         0.0600 
    240 H240       -3.1551  -19.2939  -55.6827 H         1 UNK         0.3000 
    241 H241       -2.5941  -17.0876  -57.5459 H         1 UNK         0.0600 
    242 H242       -6.4977  -17.1149  -57.2356 H         1 UNK         0.3800 
    243 H243       -5.5227  -18.5557  -57.1308 H         1 UNK         0.3800 
    244 H244       -2.7482  -15.7867  -55.1777 H         1 UNK         0.0800 
    245 H245       -2.5217  -17.3822  -54.5313 H         1 UNK         0.0800 
    246 H246        1.2486  -17.7441  -54.7958 H         1 UNK         0.0800 
    247 H247       -0.2364  -18.6439  -54.6201 H         1 UNK         0.0800 
@<TRIPOS>BOND
     1    1    2 1    
     2    1  127 1    
     3    1  128 1    
     4    1  129 1    
     5    2    3 2    
     6    2    4 am   BACKBONE|DICT|INTERRES
     7    4    5 1    
     8    4  130 1    
     9    5    6 1    
    10    5   65 1    
    11    5  131 1    
    12    6    7 1    
    13    6  132 1    
    14    6  133 1    
    15    7    8 1    
    16    8    9 1    
    17    8  134 1    
    18    8  135 1    
    19    9   10 ar   
    20    9   14 ar   
    21   10   11 ar   
    22   10  136 1    
    23   11   12 ar   
    24   11  126 1    
    25   12   13 ar   
    26   12  137 1    
    27   13   14 ar   
    28   13   15 1    
    29   14  138 1    
    30   15   16 1    
    31   15  139 1    
    32   15  140 1    
    33   16   17 1    
    34   17   18 1    
    35   17  141 1    
    36   17  142 1    
    37   18   19 1    
    38   18   67 1    
    39   18  143 1    
    40   19   20 am   BACKBONE|DICT|INTERRES
    41   19  144 1    
    42   20   21 2    
    43   20   22 1    
    44   22   23 1    
    45   22   24 1    
    46   22  145 1    
    47   23  146 1    
    48   23  147 1    
    49   23  148 1    
    50   24   25 am   BACKBONE|DICT|INTERRES
    51   24  149 1    
    52   25   26 2    
    53   25   27 1    
    54   27   28 1    
    55   27   29 1    
    56   27  150 1    
    57   28  151 1    
    58   28  152 1    
    59   28  153 1    
    60   29   30 am   BACKBONE|DICT|INTERRES
    61   29  154 1    
    62   30   31 2    
    63   30   32 1    
    64   32   33 1    
    65   32   34 1    
    66   32  155 1    
    67   33  156 1    
    68   33  157 1    
    69   33  158 1    
    70   34   35 am   BACKBONE|DICT|INTERRES
    71   34  159 1    
    72   35   36 2    
    73   35   37 1    
    74   37   38 1    
    75   37   39 1    
    76   37  160 1    
    77   38  161 1    
    78   38  162 1    
    79   38  163 1    
    80   39   40 am   BACKBONE|DICT|INTERRES
    81   39  164 1    
    82   40   41 2    
    83   40   42 1    
    84   42   43 1    
    85   42   44 1    
    86   42  165 1    
    87   43  166 1    
    88   43  167 1    
    89   43  168 1    
    90   44   45 am   BACKBONE|DICT|INTERRES
    91   44  169 1    
    92   45   46 2    
    93   45   47 1    
    94   47   48 1    
    95   47   49 1    
    96   47  170 1    
    97   48  171 1    
    98   48  172 1    
    99   48  173 1    
   100   49   50 am   BACKBONE|DICT|INTERRES
   101   49  174 1    
   102   50   51 2    
   103   50   52 1    
   104   52   53 1    
   105   52   54 1    
   106   52  175 1    
   107   53  176 1    
   108   53  177 1    
   109   53  178 1    
   110   54   55 am   BACKBONE|DICT|INTERRES
   111   54  179 1    
   112   55   56 2    
   113   55   57 1    
   114   57   58 1    
   115   57   59 1    
   116   57  180 1    
   117   58  181 1    
   118   58  182 1    
   119   58  183 1    
   120   59   60 am   BACKBONE|DICT|INTERRES
   121   59  184 1    
   122   60   61 2    
   123   60   62 1    
   124   62   63 1    
   125   62   64 1    
   126   62  185 1    
   127   63  186 1    
   128   63  187 1    
   129   63  188 1    
   130   64   65 am   BACKBONE|DICT|INTERRES
   131   64  189 1    
   132   65   66 2    
   133   67   68 2    
   134   67   69 am   BACKBONE|DICT|INTERRES
   135   69   70 1    
   136   69  190 1    
   137   70   71 1    
   138   70   72 1    
   139   70  191 1    
   140   71  192 1    
   141   71  193 1    
   142   71  194 1    
   143   72   73 2    
   144   72   74 am   BACKBONE|DICT|INTERRES
   145   74   75 1    
   146   74  195 1    
   147   75   76 1    
   148   75   77 1    
   149   75  196 1    
   150   76  197 1    
   151   76  198 1    
   152   76  199 1    
   153   77   78 2    
   154   77   79 am   BACKBONE|DICT|INTERRES
   155   79   80 1    
   156   79  200 1    
   157   80   81 1    
   158   80   82 1    
   159   80  201 1    
   160   81  202 1    
   161   81  203 1    
   162   81  204 1    
   163   82   83 2    
   164   82   84 am   BACKBONE|DICT|INTERRES
   165   84   85 1    
   166   84  205 1    
   167   85   86 1    
   168   85   87 1    
   169   85  206 1    
   170   86  207 1    
   171   86  208 1    
   172   86  209 1    
   173   87   88 2    
   174   87   89 am   BACKBONE|DICT|INTERRES
   175   89   90 1    
   176   89  210 1    
   177   90   91 1    
   178   90   92 1    
   179   90  211 1    
   180   91  212 1    
   181   91  213 1    
   182   91  214 1    
   183   92   93 2    
   184   92   94 am   BACKBONE|DICT|INTERRES
   185   94   95 1    
   186   94  215 1    
   187   95   96 1    
   188   95   97 1    
   189   95  216 1    
   190   96  217 1    
   191   96  218 1    
   192   96  219 1    
   193   97   98 2    
   194   97   99 am   BACKBONE|DICT|INTERRES
   195   99  100 1    
   196   99  220 1    
   197  100  101 1    
   198  100  102 1    
   199  100  221 1    
   200  101  222 1    
   201  101  223 1    
   202  101  224 1    
   203  102  103 2    
   204  102  104 am   BACKBONE|DICT|INTERRES
   205  104  105 1    
   206  104  225 1    
   207  105  106 1    
   208  105  107 1    
   209  105  226 1    
   210  106  227 1    
   211  106  228 1    
   212  106  229 1    
   213  107  108 2    
   214  107  109 am   BACKBONE|DICT|INTERRES
   215  109  110 1    
   216  109  230 1    
   217  110  111 1    
   218  110  112 1    
   219  110  231 1    
   220  111  232 1    
   221  111  233 1    
   222  111  234 1    
   223  112  113 2    
   224  112  114 am   BACKBONE|DICT|INTERRES
   225  114  115 1    
   226  114  235 1    
   227  115  116 1    
   228  115  117 1    
   229  115  236 1    
   230  116  237 1    
   231  116  238 1    
   232  116  239 1    
   233  117  118 2    
   234  117  119 am   BACKBONE|DICT|INTERRES
   235  119  120 1    
   236  119  240 1    
   237  120  121 1    
   238  120  124 1    
   239  120  241 1    
   240  121  122 am   BACKBONE|DICT|INTERRES
   241  121  123 2    
   242  122  242 1    
   243  122  243 1    
   244  124  125 1    
   245  124  244 1    
   246  124  245 1    
   247  125  126 1    
   248  126  246 1    
   249  126  247 1    
@<TRIPOS>SUBSTRUCTURE
     1 UNK         1 GROUP             0       ****    0 ROOT    
