@<TRIPOS>MOLECULE
3R540
247   249    1
SMALL
USER_CHARGES


@<TRIPOS>ATOM
      1 CA          1.5778  -14.0870  -47.0572 C.3       0 UNK        -0.1800 
      2 C           2.8632  -13.2974  -47.2508 C.2       0 UNK         0.5000 
      3 O           3.1294  -12.3718  -46.4856 O.2       0 UNK        -0.5000 
      4 N           3.6585  -13.6552  -48.2689 N.am      1 UNK        -0.5000 
      5 CA          4.9205  -12.9907  -48.6257 C.3       1 UNK         0.1400 
      6 C6          5.5235  -13.5224  -49.9504 C.3       23 UNK        -0.0398 
      7 S7          4.4462  -13.2655  -51.4017 S.3       23 UNK        -0.2404 
      8 C8          4.1778  -14.9689  -51.9910 C.3       23 UNK        -0.0205 
      9 C9          3.0196  -15.6314  -51.2635 C.ar      23 UNK        -0.0193 
     10 C10         1.7235  -15.5254  -51.7771 C.ar      23 UNK        -0.1150 
     11 C11         0.6444  -16.1063  -51.1063 C.ar      23 UNK        -0.0193 
     12 C12         0.8683  -16.7695  -49.8982 C.ar      23 UNK        -0.1150 
     13 C13         2.1638  -16.9225  -49.3965 C.ar      23 UNK        -0.0193 
     14 C14         3.2380  -16.3529  -50.0859 C.ar      23 UNK        -0.1150 
     15 C15         2.3987  -17.6880  -48.1041 C.3       23 UNK        -0.0205 
     16 S16         2.3476  -19.4925  -48.3514 S.3       23 UNK        -0.2404 
     17 C17         0.5562  -19.8038  -48.5331 C.3       23 UNK        -0.0398 
     18 CA          0.1293  -21.1635  -47.9379 C.3       11 UNK         0.1400 
     19 N           0.2719  -21.2104  -46.4806 N.am      11 UNK        -0.5000 
     20 C           0.1518  -22.3195  -45.7397 C.2       10 UNK         0.5000 
     21 O          -0.0449  -23.4390  -46.2132 O.2       10 UNK        -0.5000 
     22 CA          0.2073  -22.1393  -44.2129 C.3       10 UNK         0.1400 
     23 CB          1.6570  -22.0161  -43.7195 C.3       10 UNK        -0.1800 
     24 N          -0.5700  -20.9813  -43.7679 N.am      10 UNK        -0.5000 
     25 C          -1.9082  -20.9134  -43.8067 C.2       9 UNK         0.5000 
     26 O          -2.6253  -21.8333  -44.2008 O.2       9 UNK        -0.5000 
     27 CA         -2.5533  -19.5858  -43.3635 C.3       9 UNK         0.1400 
     28 CB         -2.6660  -19.5241  -41.8332 C.3       9 UNK        -0.1800 
     29 N          -1.8304  -18.4069  -43.8411 N.am      9 UNK        -0.5000 
     30 C          -1.6640  -18.0871  -45.1322 C.2       8 UNK         0.5000 
     31 O          -2.1390  -18.7304  -46.0654 O.2       8 UNK        -0.5000 
     32 CA         -0.7545  -16.8855  -45.4391 C.3       8 UNK         0.1400 
     33 CB         -1.5280  -15.5668  -45.3070 C.3       8 UNK        -0.1800 
     34 N           0.4457  -16.8511  -44.5993 N.am      8 UNK        -0.5000 
     35 C           1.3588  -17.8322  -44.5289 C.2       7 UNK         0.5000 
     36 O           1.2814  -18.8822  -45.1627 O.2       7 UNK        -0.5000 
     37 CA          2.5447  -17.6188  -43.5798 C.3       7 UNK         0.1400 
     38 CB          3.7162  -16.9660  -44.3257 C.3       7 UNK        -0.1800 
     39 N           2.1574  -16.8132  -42.4207 N.am      7 UNK        -0.5000 
     40 C           1.5216  -17.3344  -41.3607 C.2       6 UNK         0.5000 
     41 O           1.2598  -18.5327  -41.2436 O.2       6 UNK        -0.5000 
     42 CA          1.0724  -16.3579  -40.2613 C.3       6 UNK         0.1400 
     43 CB          2.2726  -15.8483  -39.4498 C.3       6 UNK        -0.1800 
     44 N           0.3109  -15.2175  -40.7675 N.am      6 UNK        -0.5000 
     45 C          -0.8574  -15.2740  -41.4180 C.2       5 UNK         0.5000 
     46 O          -1.4034  -16.3253  -41.7534 O.2       5 UNK        -0.5000 
     47 CA         -1.5256  -13.9293  -41.7726 C.3       5 UNK         0.1400 
     48 CB         -2.1751  -13.2800  -40.5351 C.3       5 UNK        -0.1800 
     49 N          -0.6395  -12.9958  -42.4823 N.am      5 UNK        -0.5000 
     50 C           0.4558  -12.3748  -42.0244 C.2       4 UNK         0.5000 
     51 O           0.8584  -12.4418  -40.8599 O.2       4 UNK        -0.5000 
     52 CA          1.2620  -11.5680  -43.0578 C.3       4 UNK         0.1400 
     53 CB          1.0249  -10.0612  -42.8774 C.3       4 UNK        -0.1800 
     54 N           2.6944  -11.8486  -42.9556 N.am      4 UNK        -0.5000 
     55 C           3.2462  -13.0522  -43.1522 C.2       3 UNK         0.5000 
     56 O           2.6073  -14.0619  -43.4626 O.2       3 UNK        -0.5000 
     57 CA          4.7609  -13.1581  -42.9482 C.3       3 UNK         0.1400 
     58 CB          5.0748  -13.9923  -41.6907 C.3       3 UNK        -0.1800 
     59 N           5.3405  -13.7647  -44.1418 N.am      3 UNK        -0.5000 
     60 C           6.6460  -13.8365  -44.4283 C.2       2 UNK         0.5000 
     61 O           7.5342  -13.4015  -43.6941 O.2       2 UNK        -0.5000 
     62 CA          7.0331  -14.4898  -45.7682 C.3       2 UNK         0.1400 
     63 CB          7.2247  -16.0054  -45.6084 C.3       2 UNK        -0.1800 
     64 N           6.0607  -14.2321  -46.8322 N.am      2 UNK        -0.5000 
     65 C           5.9822  -13.0760  -47.5076 C.2       1 UNK         0.5000 
     66 O           6.7113  -12.1069  -47.2907 O.2       1 UNK        -0.5000 
     67 C          -1.2997  -21.5386  -48.3836 C.2       11 UNK         0.5000 
     68 O          -1.4466  -22.2878  -49.3478 O.2       11 UNK        -0.5000 
     69 N          -2.3240  -21.0645  -47.6577 N.am      12 UNK        -0.5000 
     70 CA         -3.7252  -21.4296  -47.8720 C.3       12 UNK         0.1400 
     71 CB         -4.6441  -20.5644  -46.9983 C.3       12 UNK        -0.1800 
     72 C          -3.9883  -22.9236  -47.6231 C.2       12 UNK         0.5000 
     73 O          -4.6817  -23.5501  -48.4236 O.2       12 UNK        -0.5000 
     74 N          -3.4039  -23.4814  -46.5531 N.am      13 UNK        -0.5000 
     75 CA         -3.4570  -24.9101  -46.2366 C.3       13 UNK         0.1400 
     76 CB         -2.8390  -25.1666  -44.8544 C.3       13 UNK        -0.1800 
     77 C          -2.7863  -25.7784  -47.3176 C.2       13 UNK         0.5000 
     78 O          -3.3693  -26.7805  -47.7331 O.2       13 UNK        -0.5000 
     79 N          -1.6123  -25.3462  -47.8018 N.am      14 UNK        -0.5000 
     80 CA         -0.8904  -25.9632  -48.9202 C.3       14 UNK         0.1400 
     81 CB          0.4924  -25.3095  -49.0596 C.3       14 UNK        -0.1800 
     82 C          -1.6656  -25.8977  -50.2530 C.2       14 UNK         0.5000 
     83 O          -1.5799  -26.8278  -51.0545 O.2       14 UNK        -0.5000 
     84 N          -2.4520  -24.8295  -50.4367 N.am      15 UNK        -0.5000 
     85 CA         -3.3900  -24.6193  -51.5415 C.3       15 UNK         0.1400 
     86 CB         -3.5827  -23.1053  -51.7359 C.3       15 UNK        -0.1800 
     87 C          -4.7427  -25.3460  -51.3541 C.2       15 UNK         0.5000 
     88 O          -5.6916  -25.0394  -52.0792 O.2       15 UNK        -0.5000 
     89 N          -4.8155  -26.2824  -50.3946 N.am      16 UNK        -0.5000 
     90 CA         -5.9579  -27.1326  -50.0480 C.3       16 UNK         0.1400 
     91 CB         -6.3101  -28.0842  -51.2104 C.3       16 UNK        -0.1800 
     92 C          -7.1573  -26.3169  -49.5308 C.2       16 UNK         0.5000 
     93 O          -8.2709  -26.4541  -50.0376 O.2       16 UNK        -0.5000 
     94 N          -6.8812  -25.4625  -48.5354 N.am      17 UNK        -0.5000 
     95 CA         -7.7859  -24.4822  -47.9233 C.3       17 UNK         0.1400 
     96 CB         -8.9852  -25.1670  -47.2344 C.3       17 UNK        -0.1800 
     97 C          -8.1912  -23.3826  -48.9255 C.2       17 UNK         0.5000 
     98 O          -9.3604  -22.9999  -48.9966 O.2       17 UNK        -0.5000 
     99 N          -7.1923  -22.9115  -49.6869 N.am      18 UNK        -0.5000 
    100 CA        -7.2727  -21.9098  -50.7539 C.3       18 UNK         0.1400 
    101 CB        -7.5696  -20.5152  -50.1660 C.3       18 UNK        -0.1800 
    102 C         -8.2304  -22.3074  -51.8985 C.2       18 UNK         0.5000 
    103 O         -8.9100  -21.4483  -52.4641 O.2       18 UNK        -0.5000 
    104 N         -8.2625  -23.6067  -52.2264 N.am      19 UNK        -0.5000 
    105 CA        -8.9663  -24.1442  -53.3899 C.3       19 UNK         0.1400 
    106 CB        -9.1743  -25.6552  -53.2187 C.3       19 UNK        -0.1800 
    107 C         -8.1938  -23.8389  -54.6840 C.2       19 UNK         0.5000 
    108 O         -8.8067  -23.4775  -55.6897 O.2       19 UNK        -0.5000 
    109 N         -6.8598  -23.9483  -54.6199 N.am      20 UNK        -0.5000 
    110 CA        -5.9474  -23.4323  -55.6362 C.3       20 UNK         0.1400 
    111 CB        -4.6090  -24.1806  -55.5411 C.3       20 UNK        -0.1800 
    112 C         -5.7508  -21.9181  -55.4375 C.2       20 UNK         0.5000 
    113 O         -5.7479  -21.4438  -54.2982 O.2       20 UNK        -0.5000 
    114 N         -5.5855  -21.1860  -56.5450 N.am      21 UNK        -0.5000 
    115 CA        -5.3498  -19.7423  -56.5454 C.3       21 UNK         0.1400 
    116 CB        -5.5594  -19.1987  -57.9673 C.3       21 UNK        -0.1800 
    117 C         -3.9371  -19.4017  -56.0363 C.2       21 UNK         0.5000 
    118 O         -2.9735  -20.0651  -56.4276 O.2       21 UNK        -0.5000 
    119 N         -3.8427  -18.3641  -55.1966 N.am      22 UNK        -0.5000 
    120 CA        -2.5800  -17.8613  -54.6262 C.3       22 UNK         0.1400 
    121 C         -1.8416  -16.8242  -55.5273 C.2       22 UNK         0.5000 
    122 N         -2.4166  -16.3780  -56.6380 N.am      22 UNK        -0.7600 
    123 O         -0.7206  -16.4251  -55.2274 O.2       22 UNK        -0.5000 
    124 C124       -2.7927  -17.3407  -53.1764 C.3       23 UNK        -0.0398 
    125 S125       -1.3743  -17.7093  -52.0899 S.3       23 UNK        -0.2404 
    126 C126       -0.7582  -16.0407  -51.6928 C.3       23 UNK        -0.0205 
    127 H127        1.2888  -14.6154  -47.9644 H         1 UNK         0.0600 
    128 H128        1.7011  -14.8125  -46.2539 H         1 UNK         0.0600 
    129 H129        0.7633  -13.4146  -46.7890 H         1 UNK         0.0600 
    130 H130        3.3615  -14.3917  -48.8942 H         1 UNK         0.3000 
    131 H131        4.6932  -11.9314  -48.7647 H         1 UNK         0.0600 
    132 H132        6.4634  -13.0106  -50.1668 H         1 UNK         0.0800 
    133 H133        5.7782  -14.5789  -49.8570 H         1 UNK         0.0800 
    134 H134        3.9661  -14.9358  -53.0608 H         1 UNK         0.0800 
    135 H135        5.0894  -15.5590  -51.8866 H         1 UNK         0.0800 
    136 H136        1.5565  -14.9930  -52.7032 H         1 UNK         0.1150 
    137 H137        0.0272  -17.1938  -49.3715 H         1 UNK         0.1150 
    138 H138        4.2422  -16.4654  -49.7024 H         1 UNK         0.1150 
    139 H139        3.3687  -17.4247  -47.6802 H         1 UNK         0.0800 
    140 H140        1.6588  -17.3888  -47.3656 H         1 UNK         0.0800 
    141 H141        0.3226  -19.7537  -49.5986 H         1 UNK         0.0800 
    142 H142       -0.0080  -19.0060  -48.0493 H         1 UNK         0.0800 
    143 H143        0.7929  -21.9271  -48.3496 H         1 UNK         0.0600 
    144 H144        0.4959  -20.3334  -46.0153 H         1 UNK         0.3000 
    145 H145       -0.2266  -23.0319  -43.7573 H         1 UNK         0.0600 
    146 H146        1.6976  -21.9234  -42.6340 H         1 UNK         0.0600 
    147 H147        2.2352  -22.8995  -43.9928 H         1 UNK         0.0600 
    148 H148        2.1626  -21.1509  -44.1480 H         1 UNK         0.0600 
    149 H149       -0.0495  -20.1652  -43.4794 H         1 UNK         0.3000 
    150 H150       -3.5613  -19.5514  -43.7817 H         1 UNK         0.0600 
    151 H151       -3.2037  -20.3896  -41.4440 H         1 UNK         0.0600 
    152 H152       -3.2083  -18.6336  -41.5147 H         1 UNK         0.0600 
    153 H153       -1.6839  -19.5032  -41.3583 H         1 UNK         0.0600 
    154 H154       -1.4417  -17.7933  -43.1314 H         1 UNK         0.3000 
    155 H155       -0.4276  -16.9758  -46.4758 H         1 UNK         0.0600 
    156 H156       -0.8843  -14.7039  -45.4729 H         1 UNK         0.0600 
    157 H157       -1.9829  -15.4669  -44.3236 H         1 UNK         0.0600 
    158 H158       -2.3333  -15.5183  -46.0410 H         1 UNK         0.0600 
    159 H159        0.5881  -16.0285  -44.0324 H         1 UNK         0.3000 
    160 H160        2.8813  -18.5996  -43.2362 H         1 UNK         0.0600 
    161 H161        3.4185  -16.0535  -44.8404 H         1 UNK         0.0600 
    162 H162        4.1102  -17.6459  -45.0819 H         1 UNK         0.0600 
    163 H163        4.5327  -16.7242  -43.6456 H         1 UNK         0.0600 
    164 H164        2.3113  -15.8121  -42.4868 H         1 UNK         0.3000 
    165 H165        0.4184  -16.9097  -39.5830 H         1 UNK         0.0600 
    166 H166        1.9456  -15.2628  -38.5904 H         1 UNK         0.0600 
    167 H167        2.8711  -16.6773  -39.0699 H         1 UNK         0.0600 
    168 H168        2.9259  -15.2181  -40.0524 H         1 UNK         0.0600 
    169 H169        0.6852  -14.2915  -40.5772 H         1 UNK         0.3000 
    170 H170       -2.3358  -14.1530  -42.4670 H         1 UNK         0.0600 
    171 H171       -2.9180  -13.9464  -40.0952 H         1 UNK         0.0600 
    172 H172       -1.4471  -13.0512  -39.7567 H         1 UNK         0.0600 
    173 H173       -2.6857  -12.3539  -40.7990 H         1 UNK         0.0600 
    174 H174       -0.8640  -12.8724  -43.4595 H         1 UNK         0.3000 
    175 H175        0.9409  -11.8515  -44.0627 H         1 UNK         0.0600 
    176 H176        1.5566   -9.4844  -43.6344 H         1 UNK         0.0600 
    177 H177       -0.0347   -9.8192  -42.9700 H         1 UNK         0.0600 
    178 H178        1.3558   -9.7163  -41.8968 H         1 UNK         0.0600 
    179 H179        3.2817  -11.0777  -42.6743 H         1 UNK         0.3000 
    180 H180        5.1787  -12.1564  -42.8286 H         1 UNK         0.0600 
    181 H181        4.7291  -15.0212  -41.7944 H         1 UNK         0.0600 
    182 H182        4.5887  -13.5665  -40.8122 H         1 UNK         0.0600 
    183 H183        6.1435  -14.0199  -41.4807 H         1 UNK         0.0600 
    184 H184        4.6652  -14.1015  -44.8137 H         1 UNK         0.3000 
    185 H185        7.9951  -14.0684  -46.0685 H         1 UNK         0.0600 
    186 H186        7.6102  -16.4512  -46.5255 H         1 UNK         0.0600 
    187 H187        7.9394  -16.2278  -44.8150 H         1 UNK         0.0600 
    188 H188        6.2920  -16.5086  -45.3598 H         1 UNK         0.0600 
    189 H189        5.4262  -14.9798  -47.0689 H         1 UNK         0.3000 
    190 H190       -2.1406  -20.3929  -46.9161 H         1 UNK         0.3000 
    191 H191       -3.9664  -21.2200  -48.9156 H         1 UNK         0.0600 
    192 H192       -4.5411  -19.5079  -47.2460 H         1 UNK         0.0600 
    193 H193       -5.6911  -20.8321  -47.1471 H         1 UNK         0.0600 
    194 H194       -4.4224  -20.6828  -45.9378 H         1 UNK         0.0600 
    195 H195       -2.8907  -22.8896  -45.9077 H         1 UNK         0.3000 
    196 H196       -4.5094  -25.1974  -46.1895 H         1 UNK         0.0600 
    197 H197       -2.9005  -26.2229  -44.5899 H         1 UNK         0.0600 
    198 H198       -3.3626  -24.6063  -44.0797 H         1 UNK         0.0600 
    199 H199       -1.7881  -24.8808  -44.8194 H         1 UNK         0.0600 
    200 H200       -1.1778  -24.5345  -47.3711 H         1 UNK         0.3000 
    201 H201       -0.7439  -27.0175  -48.6769 H         1 UNK         0.0600 
    202 H202        1.0669  -25.4011  -48.1376 H         1 UNK         0.0600 
    203 H203        0.4147  -24.2496  -49.3008 H         1 UNK         0.0600 
    204 H204        1.0706  -25.7849  -49.8528 H         1 UNK         0.0600 
    205 H205       -2.4056  -24.0836  -49.7510 H         1 UNK         0.3000 
    206 H206       -2.9465  -25.0188  -52.4554 H         1 UNK         0.0600 
    207 H207       -2.6365  -22.6155  -51.9661 H         1 UNK         0.0600 
    208 H208       -4.2656  -22.8857  -52.5554 H         1 UNK         0.0600 
    209 H209       -3.9891  -22.6357  -50.8420 H         1 UNK         0.0600 
    210 H210       -3.9976  -26.4176  -49.8138 H         1 UNK         0.3000 
    211 H211       -5.6332  -27.7532  -49.2116 H         1 UNK         0.0600 
    212 H212       -6.6410  -27.5443  -52.0964 H         1 UNK         0.0600 
    213 H213       -7.1106  -28.7681  -50.9264 H         1 UNK         0.0600 
    214 H214       -5.4502  -28.6914  -51.4930 H         1 UNK         0.0600 
    215 H215       -5.9095  -25.3630  -48.2695 H         1 UNK         0.3000 
    216 H216       -7.2082  -23.9822  -47.1445 H         1 UNK         0.0600 
    217 H217       -8.6530  -25.9397  -46.5412 H         1 UNK         0.0600 
    218 H218       -9.6620  -25.6286  -47.9536 H         1 UNK         0.0600 
    219 H219       -9.5665  -24.4445  -46.6605 H         1 UNK         0.0600 
    220 H220       -6.2656  -23.2848  -49.5020 H         1 UNK         0.3000 
    221 H221       -6.2812  -21.8663  -51.2053 H         1 UNK         0.0600 
    222 H222       -8.5687  -20.4632  -49.7326 H         1 UNK         0.0600 
    223 H223       -6.8516  -20.2547  -49.3886 H         1 UNK         0.0600 
    224 H224       -7.5052  -19.7447  -50.9352 H         1 UNK         0.0600 
    225 H225       -7.6390  -24.2432  -51.7437 H         1 UNK         0.3000 
    226 H226       -9.9484  -23.6717  -53.4585 H         1 UNK         0.0600 
    227 H227       -9.7599  -25.8731  -52.3255 H         1 UNK         0.0600 
    228 H228       -9.7103  -26.0748  -54.0708 H         1 UNK         0.0600 
    229 H229       -8.2249  -26.1835  -53.1343 H         1 UNK         0.0600 
    230 H230       -6.4422  -24.2322  -53.7388 H         1 UNK         0.3000 
    231 H231       -6.3721  -23.6114  -56.6263 H         1 UNK         0.0600 
    232 H232       -4.7459  -25.2516  -55.6911 H         1 UNK         0.0600 
    233 H233       -4.1319  -24.0387  -54.5724 H         1 UNK         0.0600 
    234 H234       -3.9119  -23.8308  -56.3035 H         1 UNK         0.0600 
    235 H235       -5.5590  -21.6460  -57.4432 H         1 UNK         0.3000 
    236 H236       -6.0875  -19.2756  -55.8887 H         1 UNK         0.0600 
    237 H237       -6.5685  -19.4056  -58.3243 H         1 UNK         0.0600 
    238 H238       -5.4213  -18.1172  -57.9968 H         1 UNK         0.0600 
    239 H239       -4.8557  -19.6389  -58.6752 H         1 UNK         0.0600 
    240 H240       -4.6791  -17.8608  -54.9379 H         1 UNK         0.3000 
    241 H241       -1.9015  -18.7148  -54.5677 H         1 UNK         0.0600 
    242 H242       -3.3322  -16.6973  -56.9094 H         1 UNK         0.3800 
    243 H243       -1.9259  -15.7134  -57.2159 H         1 UNK         0.3800 
    244 H244       -3.0302  -16.2755  -53.1602 H         1 UNK         0.0800 
    245 H245       -3.6512  -17.8364  -52.7208 H         1 UNK         0.0800 
    246 H246       -1.4320  -15.5613  -50.9815 H         1 UNK         0.0800 
    247 H247       -0.7637  -15.4277  -52.5954 H         1 UNK         0.0800 
@<TRIPOS>BOND
     1    1    2 1    
     2    1  127 1    
     3    1  128 1    
     4    1  129 1    
     5    2    3 2    
     6    2    4 am   BACKBONE|DICT|INTERRES
     7    4    5 1    
     8    4  130 1    
     9    5    6 1    
    10    5   65 1    
    11    5  131 1    
    12    6    7 1    
    13    6  132 1    
    14    6  133 1    
    15    7    8 1    
    16    8    9 1    
    17    8  134 1    
    18    8  135 1    
    19    9   10 ar   
    20    9   14 ar   
    21   10   11 ar   
    22   10  136 1    
    23   11   12 ar   
    24   11  126 1    
    25   12   13 ar   
    26   12  137 1    
    27   13   14 ar   
    28   13   15 1    
    29   14  138 1    
    30   15   16 1    
    31   15  139 1    
    32   15  140 1    
    33   16   17 1    
    34   17   18 1    
    35   17  141 1    
    36   17  142 1    
    37   18   19 1    
    38   18   67 1    
    39   18  143 1    
    40   19   20 am   BACKBONE|DICT|INTERRES
    41   19  144 1    
    42   20   21 2    
    43   20   22 1    
    44   22   23 1    
    45   22   24 1    
    46   22  145 1    
    47   23  146 1    
    48   23  147 1    
    49   23  148 1    
    50   24   25 am   BACKBONE|DICT|INTERRES
    51   24  149 1    
    52   25   26 2    
    53   25   27 1    
    54   27   28 1    
    55   27   29 1    
    56   27  150 1    
    57   28  151 1    
    58   28  152 1    
    59   28  153 1    
    60   29   30 am   BACKBONE|DICT|INTERRES
    61   29  154 1    
    62   30   31 2    
    63   30   32 1    
    64   32   33 1    
    65   32   34 1    
    66   32  155 1    
    67   33  156 1    
    68   33  157 1    
    69   33  158 1    
    70   34   35 am   BACKBONE|DICT|INTERRES
    71   34  159 1    
    72   35   36 2    
    73   35   37 1    
    74   37   38 1    
    75   37   39 1    
    76   37  160 1    
    77   38  161 1    
    78   38  162 1    
    79   38  163 1    
    80   39   40 am   BACKBONE|DICT|INTERRES
    81   39  164 1    
    82   40   41 2    
    83   40   42 1    
    84   42   43 1    
    85   42   44 1    
    86   42  165 1    
    87   43  166 1    
    88   43  167 1    
    89   43  168 1    
    90   44   45 am   BACKBONE|DICT|INTERRES
    91   44  169 1    
    92   45   46 2    
    93   45   47 1    
    94   47   48 1    
    95   47   49 1    
    96   47  170 1    
    97   48  171 1    
    98   48  172 1    
    99   48  173 1    
   100   49   50 am   BACKBONE|DICT|INTERRES
   101   49  174 1    
   102   50   51 2    
   103   50   52 1    
   104   52   53 1    
   105   52   54 1    
   106   52  175 1    
   107   53  176 1    
   108   53  177 1    
   109   53  178 1    
   110   54   55 am   BACKBONE|DICT|INTERRES
   111   54  179 1    
   112   55   56 2    
   113   55   57 1    
   114   57   58 1    
   115   57   59 1    
   116   57  180 1    
   117   58  181 1    
   118   58  182 1    
   119   58  183 1    
   120   59   60 am   BACKBONE|DICT|INTERRES
   121   59  184 1    
   122   60   61 2    
   123   60   62 1    
   124   62   63 1    
   125   62   64 1    
   126   62  185 1    
   127   63  186 1    
   128   63  187 1    
   129   63  188 1    
   130   64   65 am   BACKBONE|DICT|INTERRES
   131   64  189 1    
   132   65   66 2    
   133   67   68 2    
   134   67   69 am   BACKBONE|DICT|INTERRES
   135   69   70 1    
   136   69  190 1    
   137   70   71 1    
   138   70   72 1    
   139   70  191 1    
   140   71  192 1    
   141   71  193 1    
   142   71  194 1    
   143   72   73 2    
   144   72   74 am   BACKBONE|DICT|INTERRES
   145   74   75 1    
   146   74  195 1    
   147   75   76 1    
   148   75   77 1    
   149   75  196 1    
   150   76  197 1    
   151   76  198 1    
   152   76  199 1    
   153   77   78 2    
   154   77   79 am   BACKBONE|DICT|INTERRES
   155   79   80 1    
   156   79  200 1    
   157   80   81 1    
   158   80   82 1    
   159   80  201 1    
   160   81  202 1    
   161   81  203 1    
   162   81  204 1    
   163   82   83 2    
   164   82   84 am   BACKBONE|DICT|INTERRES
   165   84   85 1    
   166   84  205 1    
   167   85   86 1    
   168   85   87 1    
   169   85  206 1    
   170   86  207 1    
   171   86  208 1    
   172   86  209 1    
   173   87   88 2    
   174   87   89 am   BACKBONE|DICT|INTERRES
   175   89   90 1    
   176   89  210 1    
   177   90   91 1    
   178   90   92 1    
   179   90  211 1    
   180   91  212 1    
   181   91  213 1    
   182   91  214 1    
   183   92   93 2    
   184   92   94 am   BACKBONE|DICT|INTERRES
   185   94   95 1    
   186   94  215 1    
   187   95   96 1    
   188   95   97 1    
   189   95  216 1    
   190   96  217 1    
   191   96  218 1    
   192   96  219 1    
   193   97   98 2    
   194   97   99 am   BACKBONE|DICT|INTERRES
   195   99  100 1    
   196   99  220 1    
   197  100  101 1    
   198  100  102 1    
   199  100  221 1    
   200  101  222 1    
   201  101  223 1    
   202  101  224 1    
   203  102  103 2    
   204  102  104 am   BACKBONE|DICT|INTERRES
   205  104  105 1    
   206  104  225 1    
   207  105  106 1    
   208  105  107 1    
   209  105  226 1    
   210  106  227 1    
   211  106  228 1    
   212  106  229 1    
   213  107  108 2    
   214  107  109 am   BACKBONE|DICT|INTERRES
   215  109  110 1    
   216  109  230 1    
   217  110  111 1    
   218  110  112 1    
   219  110  231 1    
   220  111  232 1    
   221  111  233 1    
   222  111  234 1    
   223  112  113 2    
   224  112  114 am   BACKBONE|DICT|INTERRES
   225  114  115 1    
   226  114  235 1    
   227  115  116 1    
   228  115  117 1    
   229  115  236 1    
   230  116  237 1    
   231  116  238 1    
   232  116  239 1    
   233  117  118 2    
   234  117  119 am   BACKBONE|DICT|INTERRES
   235  119  120 1    
   236  119  240 1    
   237  120  121 1    
   238  120  124 1    
   239  120  241 1    
   240  121  122 am   BACKBONE|DICT|INTERRES
   241  121  123 2    
   242  122  242 1    
   243  122  243 1    
   244  124  125 1    
   245  124  244 1    
   246  124  245 1    
   247  125  126 1    
   248  126  246 1    
   249  126  247 1    
@<TRIPOS>SUBSTRUCTURE
     1 UNK         1 GROUP             0       ****    0 ROOT    
