@<TRIPOS>MOLECULE
3R540
247   249    1
SMALL
USER_CHARGES


@<TRIPOS>ATOM
      1 CA         -4.6549  -15.1252  -44.7759 C.3       0 UNK        -0.1800 
      2 C          -3.9356  -13.7921  -44.9289 C.2       0 UNK         0.5000 
      3 O          -4.4488  -12.7642  -44.4866 O.2       0 UNK        -0.5000 
      4 N          -2.7597  -13.8076  -45.5677 N.am      1 UNK        -0.5000 
      5 CA         -1.9029  -12.6443  -45.8138 C.3       1 UNK         0.1400 
      6 C6         -0.7111  -12.9720  -46.7517 C.3       23 UNK        -0.0398 
      7 S7         -1.1841  -13.8545  -48.2778 S.3       23 UNK        -0.2404 
      8 C8         -0.3260  -15.4342  -48.0004 C.3       23 UNK        -0.0205 
      9 C9         -0.6758  -16.4614  -49.0623 C.ar      23 UNK        -0.0193 
     10 C10         0.0826  -16.5475  -50.2317 C.ar      23 UNK        -0.1150 
     11 C11        -0.2326  -17.4890  -51.2157 C.ar      23 UNK        -0.0193 
     12 C12        -1.3152  -18.3522  -51.0209 C.ar      23 UNK        -0.1150 
     13 C13        -2.0740  -18.2831  -49.8476 C.ar      23 UNK        -0.0193 
     14 C14        -1.7503  -17.3344  -48.8727 C.ar      23 UNK        -0.1150 
     15 C15        -3.2499  -19.2257  -49.6356 C.3       23 UNK        -0.0205 
     16 S16        -2.7213  -20.9465  -49.3587 S.3       23 UNK        -0.2404 
     17 C17        -1.7545  -20.7690  -47.8239 C.3       23 UNK        -0.0398 
     18 CA         -1.3692  -22.1277  -47.1913 C.3       11 UNK         0.1400 
     19 N          -0.1705  -22.0125  -46.3568 N.am      11 UNK        -0.5000 
     20 C           0.5053  -23.0443  -45.8336 C.2       10 UNK         0.5000 
     21 O           0.2088  -24.2222  -46.0274 O.2       10 UNK        -0.5000 
     22 CA          1.6792  -22.7042  -44.8968 C.3       10 UNK         0.1400 
     23 CB          2.9351  -22.3342  -45.6994 C.3       10 UNK        -0.1800 
     24 N           1.3544  -21.6301  -43.9565 N.am      10 UNK        -0.5000 
     25 C           0.4080  -21.7197  -43.0106 C.2       9 UNK         0.5000 
     26 O          -0.2545  -22.7355  -42.8027 O.2       9 UNK        -0.5000 
     27 CA          0.1148  -20.4518  -42.1901 C.3       9 UNK         0.1400 
     28 CB          1.1479  -20.2759  -41.0676 C.3       9 UNK        -0.1800 
     29 N           0.0682  -19.2436  -43.0129 N.am      9 UNK        -0.5000 
     30 C          -0.8132  -19.0227  -43.9989 C.2       8 UNK         0.5000 
     31 O          -1.7140  -19.8034  -44.3042 O.2       8 UNK        -0.5000 
     32 CA         -0.6169  -17.7386  -44.8229 C.3       8 UNK         0.1400 
     33 CB         -1.1108  -16.5089  -44.0471 C.3       8 UNK        -0.1800 
     34 N           0.7775  -17.5445  -45.2220 N.am      8 UNK        -0.5000 
     35 C           1.4737  -18.3949  -45.9907 C.2       7 UNK         0.5000 
     36 O           0.9953  -19.4078  -46.4969 O.2       7 UNK        -0.5000 
     37 CA          2.9702  -18.0990  -46.1742 C.3       7 UNK         0.1400 
     38 CB          3.2003  -17.1032  -47.3198 C.3       7 UNK        -0.1800 
     39 N           3.5742  -17.5960  -44.9405 N.am      7 UNK        -0.5000 
     40 C           3.7884  -18.3467  -43.8501 C.2       6 UNK         0.5000 
     41 O           3.5469  -19.5527  -43.7933 O.2       6 UNK        -0.5000 
     42 CA          4.3188  -17.6164  -42.6021 C.3       6 UNK         0.1400 
     43 CB          5.8418  -17.4364  -42.6838 C.3       6 UNK        -0.1800 
     44 N           3.6836  -16.3118  -42.4046 N.am      6 UNK        -0.5000 
     45 C           2.3909  -16.1426  -42.0922 C.2       5 UNK         0.5000 
     46 O           1.6163  -17.0751  -41.8835 O.2       5 UNK        -0.5000 
     47 CA          1.8618  -14.6954  -42.0476 C.3       5 UNK         0.1400 
     48 CB          1.9810  -14.1191  -40.6295 C.3       5 UNK        -0.1800 
     49 N           2.5188  -13.7887  -42.9933 N.am      5 UNK        -0.5000 
     50 C           2.5297  -13.9425  -44.3237 C.2       4 UNK         0.5000 
     51 O           2.0188  -14.9008  -44.9063 O.2       4 UNK        -0.5000 
     52 CA          3.2089  -12.8191  -45.1167 C.3       4 UNK         0.1400 
     53 CB          3.2702  -13.0870  -46.6330 C.3       4 UNK        -0.1800 
     54 N           2.5041  -11.5664  -44.8594 N.am      4 UNK        -0.5000 
     55 C           3.0780  -10.3577  -44.8119 C.2       3 UNK         0.5000 
     56 O           4.2900  -10.1786  -44.9397 O.2       3 UNK        -0.5000 
     57 CA          2.1589   -9.1351  -44.6117 C.3       3 UNK         0.1400 
     58 CB          2.1616   -8.2523  -45.8706 C.3       3 UNK        -0.1800 
     59 N           0.7723   -9.4909  -44.3035 N.am      3 UNK        -0.5000 
     60 C           0.2985   -9.7610  -43.0797 C.2       2 UNK         0.5000 
     61 O           0.9891   -9.7576  -42.0606 O.2       2 UNK        -0.5000 
     62 CA         -1.2007  -10.1087  -42.9897 C.3       2 UNK         0.1400 
     63 CB         -2.0365   -8.8389  -42.7677 C.3       2 UNK        -0.1800 
     64 N          -1.6919  -10.8082  -44.1818 N.am      2 UNK        -0.5000 
     65 C          -1.3666  -12.0708  -44.4862 C.2       1 UNK         0.5000 
     66 O          -0.6401  -12.7714  -43.7800 O.2       1 UNK        -0.5000 
     67 C          -2.5467  -22.7641  -46.4216 C.2       11 UNK         0.5000 
     68 O          -3.2238  -23.6398  -46.9619 O.2       11 UNK        -0.5000 
     69 N          -2.7391  -22.3536  -45.1593 N.am      12 UNK        -0.5000 
     70 CA         -3.7306  -22.9174  -44.2434 C.3       12 UNK         0.1400 
     71 CB         -3.8127  -22.0595  -42.9722 C.3       12 UNK        -0.1800 
     72 C          -3.4482  -24.3909  -43.8985 C.2       12 UNK         0.5000 
     73 O          -4.3711  -25.2045  -43.9364 O.2       12 UNK        -0.5000 
     74 N          -2.1784  -24.7230  -43.6220 N.am      13 UNK        -0.5000 
     75 CA         -1.7079  -26.0898  -43.3730 C.3       13 UNK         0.1400 
     76 CB         -0.2459  -26.0540  -42.9036 C.3       13 UNK        -0.1800 
     77 C          -1.8657  -27.0136  -44.5968 C.2       13 UNK         0.5000 
     78 O          -2.1842  -28.1918  -44.4345 O.2       13 UNK        -0.5000 
     79 N          -1.6887  -26.4494  -45.7985 N.am      14 UNK        -0.5000 
     80 CA         -1.9369  -27.0977  -47.0871 C.3       14 UNK         0.1400 
     81 CB         -1.1459  -26.3518  -48.1749 C.3       14 UNK        -0.1800 
     82 C          -3.4326  -27.1774  -47.4628 C.2       14 UNK         0.5000 
     83 O          -3.7484  -27.7222  -48.5200 O.2       14 UNK        -0.5000 
     84 N          -4.3234  -26.6219  -46.6261 N.am      15 UNK        -0.5000 
     85 CA         -5.7792  -26.5499  -46.7936 C.3       15 UNK         0.1400 
     86 CB         -6.4086  -27.9561  -46.7073 C.3       15 UNK        -0.1800 
     87 C          -6.2041  -25.7705  -48.0565 C.2       15 UNK         0.5000 
     88 O          -7.1850  -26.1344  -48.7076 O.2       15 UNK        -0.5000 
     89 N          -5.4435  -24.7130  -48.3773 N.am      16 UNK        -0.5000 
     90 CA         -5.5958  -23.8180  -49.5278 C.3       16 UNK         0.1400 
     91 CB         -6.9129  -23.0195  -49.4362 C.3       16 UNK        -0.1800 
     92 C          -5.4029  -24.5104  -50.8946 C.2       16 UNK         0.5000 
     93 O          -5.9196  -24.0254  -51.9040 O.2       16 UNK        -0.5000 
     94 N          -4.6457  -25.6180  -50.9230 N.am      17 UNK        -0.5000 
     95 CA         -4.2687  -26.3341  -52.1415 C.3       17 UNK         0.1400 
     96 CB         -3.5023  -27.6140  -51.7764 C.3       17 UNK        -0.1800 
     97 C          -3.4361  -25.4387  -53.0773 C.2       17 UNK         0.5000 
     98 O          -2.3610  -24.9808  -52.6848 O.2       17 UNK        -0.5000 
     99 N          -3.9764  -25.1886  -54.2776 N.am      18 UNK        -0.5000 
    100 CA        -3.4394  -24.3164  -55.3276 C.3       18 UNK         0.1400 
    101 CB        -2.1039  -24.8626  -55.8757 C.3       18 UNK        -0.1800 
    102 C         -3.3559  -22.8254  -54.9301 C.2       18 UNK         0.5000 
    103 O         -2.5692  -22.0862  -55.5223 O.2       18 UNK        -0.5000 
    104 N         -4.1929  -22.3819  -53.9770 N.am      19 UNK        -0.5000 
    105 CA        -4.2751  -20.9875  -53.5196 C.3       19 UNK         0.1400 
    106 CB        -5.3074  -20.8803  -52.3885 C.3       19 UNK        -0.1800 
    107 C         -4.6161  -19.9860  -54.6404 C.2       19 UNK         0.5000 
    108 O         -4.1056  -18.8659  -54.6376 O.2       19 UNK        -0.5000 
    109 N         -5.4343  -20.4303  -55.6042 N.am      20 UNK        -0.5000 
    110 CA        -5.8409  -19.6741  -56.7896 C.3       20 UNK         0.1400 
    111 CB        -6.9670  -20.4420  -57.4993 C.3       20 UNK        -0.1800 
    112 C         -4.6917  -19.3717  -57.7743 C.2       20 UNK         0.5000 
    113 O         -4.8383  -18.4713  -58.6015 O.2       20 UNK        -0.5000 
    114 N         -3.5762  -20.1114  -57.6794 N.am      21 UNK        -0.5000 
    115 CA        -2.3769  -19.8952  -58.4906 C.3       21 UNK         0.1400 
    116 CB        -1.5811  -21.2075  -58.5805 C.3       21 UNK        -0.1800 
    117 C         -1.4882  -18.7545  -57.9546 C.2       21 UNK         0.5000 
    118 O         -0.5926  -18.3116  -58.6756 O.2       21 UNK        -0.5000 
    119 N         -1.7279  -18.3036  -56.7141 N.am      22 UNK        -0.5000 
    120 CA        -1.0295  -17.1698  -56.0943 C.3       22 UNK         0.1400 
    121 C         -1.3951  -15.8161  -56.7690 C.2       22 UNK         0.5000 
    122 N         -0.4203  -14.9541  -57.0236 N.am      22 UNK        -0.7600 
    123 O         -2.5603  -15.5286  -57.0339 O.2       22 UNK        -0.5000 
    124 C124       -1.2728  -17.1259  -54.5628 C.3       23 UNK        -0.0398 
    125 S125        0.1067  -16.3056  -53.6898 S.3       23 UNK        -0.2404 
    126 C126        0.6092  -17.5681  -52.4794 C.3       23 UNK        -0.0205 
    127 H127       -5.6835  -15.0395  -45.1261 H         1 UNK         0.0600 
    128 H128       -4.6742  -15.4225  -43.7274 H         1 UNK         0.0600 
    129 H129       -4.1694  -15.9163  -45.3478 H         1 UNK         0.0600 
    130 H130       -2.4043  -14.6816  -45.9220 H         1 UNK         0.3000 
    131 H131       -2.5174  -11.8863  -46.3041 H         1 UNK         0.0600 
    132 H132       -0.2019  -12.0523  -47.0448 H         1 UNK         0.0800 
    133 H133        0.0350  -13.5690  -46.2251 H         1 UNK         0.0800 
    134 H134       -0.5851  -15.8198  -47.0159 H         1 UNK         0.0800 
    135 H135        0.7500  -15.2588  -47.9890 H         1 UNK         0.0800 
    136 H136        0.9156  -15.8747  -50.3811 H         1 UNK         0.1150 
    137 H137       -1.5650  -19.0840  -51.7762 H         1 UNK         0.1150 
    138 H138       -2.3371  -17.2717  -47.9674 H         1 UNK         0.1150 
    139 H139       -3.8644  -18.9003  -48.7948 H         1 UNK         0.0800 
    140 H140       -3.8926  -19.1863  -50.5137 H         1 UNK         0.0800 
    141 H141       -2.2858  -20.1325  -47.1138 H         1 UNK         0.0800 
    142 H142       -0.8520  -20.2232  -48.0999 H         1 UNK         0.0800 
    143 H143       -1.1069  -22.8126  -48.0006 H         1 UNK         0.0600 
    144 H144        0.1732  -21.0699  -46.1887 H         1 UNK         0.3000 
    145 H145        1.9055  -23.5984  -44.3124 H         1 UNK         0.0600 
    146 H146        3.7842  -22.1514  -45.0405 H         1 UNK         0.0600 
    147 H147        3.2160  -23.1416  -46.3767 H         1 UNK         0.0600 
    148 H148        2.7813  -21.4396  -46.3023 H         1 UNK         0.0600 
    149 H149        1.8901  -20.7725  -44.0370 H         1 UNK         0.3000 
    150 H150       -0.8674  -20.5756  -41.7295 H         1 UNK         0.0600 
    151 H151        1.1909  -21.1621  -40.4332 H         1 UNK         0.0600 
    152 H152        0.8938  -19.4302  -40.4283 H         1 UNK         0.0600 
    153 H153        2.1493  -20.1053  -41.4637 H         1 UNK         0.0600 
    154 H154        0.7483  -18.5207  -42.7935 H         1 UNK         0.3000 
    155 H155       -1.2099  -17.8320  -45.7346 H         1 UNK         0.0600 
    156 H156       -2.1912  -16.5468  -43.9105 H         1 UNK         0.0600 
    157 H157       -0.8707  -15.5829  -44.5677 H         1 UNK         0.0600 
    158 H158       -0.6667  -16.4491  -43.0547 H         1 UNK         0.0600 
    159 H159        1.2435  -16.7070  -44.8859 H         1 UNK         0.3000 
    160 H160        3.4648  -19.0354  -46.4404 H         1 UNK         0.0600 
    161 H161        2.7479  -16.1356  -47.1107 H         1 UNK         0.0600 
    162 H162        2.7656  -17.4722  -48.2499 H         1 UNK         0.0600 
    163 H163        4.2640  -16.9445  -47.4971 H         1 UNK         0.0600 
    164 H164        3.7308  -16.6002  -44.8866 H         1 UNK         0.3000 
    165 H165        4.0953  -18.2388  -41.7328 H         1 UNK         0.0600 
    166 H166        6.2353  -16.9896  -41.7705 H         1 UNK         0.0600 
    167 H167        6.3411  -18.3973  -42.8154 H         1 UNK         0.0600 
    168 H168        6.1299  -16.7992  -43.5209 H         1 UNK         0.0600 
    169 H169        4.2549  -15.4935  -42.5539 H         1 UNK         0.3000 
    170 H170        0.8032  -14.7258  -42.3111 H         1 UNK         0.0600 
    171 H171        1.4772  -14.7595  -39.9042 H         1 UNK         0.0600 
    172 H172        3.0222  -14.0253  -40.3187 H         1 UNK         0.0600 
    173 H173        1.5198  -13.1331  -40.5657 H         1 UNK         0.0600 
    174 H174        2.9419  -12.9603  -42.6006 H         1 UNK         0.3000 
    175 H175        4.2326  -12.7516  -44.7424 H         1 UNK         0.0600 
    176 H176        2.2774  -13.1956  -47.0690 H         1 UNK         0.0600 
    177 H177        3.7761  -12.2757  -47.1562 H         1 UNK         0.0600 
    178 H178        3.8265  -14.0005  -46.8440 H         1 UNK         0.0600 
    179 H179        1.5142  -11.6444  -44.6717 H         1 UNK         0.3000 
    180 H180        2.5707   -8.5501  -43.7866 H         1 UNK         0.0600 
    181 H181        1.7714   -8.7864  -46.7380 H         1 UNK         0.0600 
    182 H182        3.1715   -7.9212  -46.1165 H         1 UNK         0.0600 
    183 H183        1.5561   -7.3573  -45.7261 H         1 UNK         0.0600 
    184 H184        0.1288   -9.5098  -45.0808 H         1 UNK         0.3000 
    185 H185       -1.3386  -10.7616  -42.1249 H         1 UNK         0.0600 
    186 H186       -1.7088   -8.3076  -41.8731 H         1 UNK         0.0600 
    187 H187       -1.9540   -8.1486  -43.6082 H         1 UNK         0.0600 
    188 H188       -3.0911   -9.0801  -42.6328 H         1 UNK         0.0600 
    189 H189       -2.3181  -10.2948  -44.7859 H         1 UNK         0.3000 
    190 H190       -2.1736  -21.5889  -44.8000 H         1 UNK         0.3000 
    191 H191       -4.7017  -22.8750  -44.7412 H         1 UNK         0.0600 
    192 H192       -4.0860  -21.0311  -43.2088 H         1 UNK         0.0600 
    193 H193       -4.5672  -22.4479  -42.2871 H         1 UNK         0.0600 
    194 H194       -2.8635  -22.0373  -42.4371 H         1 UNK         0.0600 
    195 H195       -1.4812  -23.9854  -43.5580 H         1 UNK         0.3000 
    196 H196       -2.3131  -26.5068  -42.5656 H         1 UNK         0.0600 
    197 H197        0.1209  -27.0584  -42.6890 H         1 UNK         0.0600 
    198 H198       -0.1394  -25.4670  -41.9912 H         1 UNK         0.0600 
    199 H199        0.4089  -25.6191  -43.6590 H         1 UNK         0.0600 
    200 H200       -1.3525  -25.4923  -45.8366 H         1 UNK         0.3000 
    201 H201       -1.5619  -28.1218  -47.0382 H         1 UNK         0.0600 
    202 H202       -0.0826  -26.3191  -47.9368 H         1 UNK         0.0600 
    203 H203       -1.4940  -25.3255  -48.2926 H         1 UNK         0.0600 
    204 H204       -1.2442  -26.8444  -49.1427 H         1 UNK         0.0600 
    205 H205       -3.9704  -26.1723  -45.7900 H         1 UNK         0.3000 
    206 H206       -6.1527  -25.9725  -45.9471 H         1 UNK         0.0600 
    207 H207       -6.0960  -28.4717  -45.7992 H         1 UNK         0.0600 
    208 H208       -7.4973  -27.8967  -46.6867 H         1 UNK         0.0600 
    209 H209       -6.1315  -28.5779  -47.5590 H         1 UNK         0.0600 
    210 H210       -4.6487  -24.4957  -47.7775 H         1 UNK         0.3000 
    211 H211       -4.7786  -23.1015  -49.4477 H         1 UNK         0.0600 
    212 H212       -6.9566  -22.2426  -50.1997 H         1 UNK         0.0600 
    213 H213       -7.0068  -22.5253  -48.4693 H         1 UNK         0.0600 
    214 H214       -7.7852  -23.6587  -49.5741 H         1 UNK         0.0600 
    215 H215       -4.2705  -25.9753  -50.0547 H         1 UNK         0.3000 
    216 H216       -5.1882  -26.6281  -52.6518 H         1 UNK         0.0600 
    217 H217       -3.1986  -28.1568  -52.6723 H         1 UNK         0.0600 
    218 H218       -4.1214  -28.2876  -51.1838 H         1 UNK         0.0600 
    219 H219       -2.6010  -27.3946  -51.2031 H         1 UNK         0.0600 
    220 H220       -4.8793  -25.5950  -54.4812 H         1 UNK         0.3000 
    221 H221       -4.1617  -24.3581  -56.1440 H         1 UNK         0.0600 
    222 H222       -1.3001  -24.7790  -55.1440 H         1 UNK         0.0600 
    223 H223       -2.1927  -25.9111  -56.1596 H         1 UNK         0.0600 
    224 H224       -1.7915  -24.3135  -56.7649 H         1 UNK         0.0600 
    225 H225       -4.8031  -23.0453  -53.5132 H         1 UNK         0.3000 
    226 H226       -3.2980  -20.7086  -53.1198 H         1 UNK         0.0600 
    227 H227       -4.9687  -21.4128  -51.5007 H         1 UNK         0.0600 
    228 H228       -5.4754  -19.8420  -52.1007 H         1 UNK         0.0600 
    229 H229       -6.2724  -21.2944  -52.6831 H         1 UNK         0.0600 
    230 H230       -5.7965  -21.3689  -55.5223 H         1 UNK         0.3000 
    231 H231       -6.2392  -18.7145  -56.4535 H         1 UNK         0.0600 
    232 H232       -6.6313  -21.4215  -57.8420 H         1 UNK         0.0600 
    233 H233       -7.3254  -19.8942  -58.3719 H         1 UNK         0.0600 
    234 H234       -7.8215  -20.5906  -56.8387 H         1 UNK         0.0600 
    235 H235       -3.5044  -20.8154  -56.9540 H         1 UNK         0.3000 
    236 H236       -2.6824  -19.6234  -59.5033 H         1 UNK         0.0600 
    237 H237       -1.1493  -21.4860  -57.6192 H         1 UNK         0.0600 
    238 H238       -2.2087  -22.0316  -58.9204 H         1 UNK         0.0600 
    239 H239       -0.7573  -21.1130  -59.2889 H         1 UNK         0.0600 
    240 H240       -2.5127  -18.6816  -56.1992 H         1 UNK         0.3000 
    241 H241        0.0349  -17.3519  -56.2588 H         1 UNK         0.0600 
    242 H242       -0.6456  -14.0685  -57.4497 H         1 UNK         0.3800 
    243 H243        0.5391  -15.1627  -56.7933 H         1 UNK         0.3800 
    244 H244       -2.2106  -16.6239  -54.3173 H         1 UNK         0.0800 
    245 H245       -1.3754  -18.1394  -54.1734 H         1 UNK         0.0800 
    246 H246        0.5604  -18.5641  -52.9221 H         1 UNK         0.0800 
    247 H247        1.6572  -17.4060  -52.2229 H         1 UNK         0.0800 
@<TRIPOS>BOND
     1    1    2 1    
     2    1  127 1    
     3    1  128 1    
     4    1  129 1    
     5    2    3 2    
     6    2    4 am   BACKBONE|DICT|INTERRES
     7    4    5 1    
     8    4  130 1    
     9    5    6 1    
    10    5   65 1    
    11    5  131 1    
    12    6    7 1    
    13    6  132 1    
    14    6  133 1    
    15    7    8 1    
    16    8    9 1    
    17    8  134 1    
    18    8  135 1    
    19    9   10 ar   
    20    9   14 ar   
    21   10   11 ar   
    22   10  136 1    
    23   11   12 ar   
    24   11  126 1    
    25   12   13 ar   
    26   12  137 1    
    27   13   14 ar   
    28   13   15 1    
    29   14  138 1    
    30   15   16 1    
    31   15  139 1    
    32   15  140 1    
    33   16   17 1    
    34   17   18 1    
    35   17  141 1    
    36   17  142 1    
    37   18   19 1    
    38   18   67 1    
    39   18  143 1    
    40   19   20 am   BACKBONE|DICT|INTERRES
    41   19  144 1    
    42   20   21 2    
    43   20   22 1    
    44   22   23 1    
    45   22   24 1    
    46   22  145 1    
    47   23  146 1    
    48   23  147 1    
    49   23  148 1    
    50   24   25 am   BACKBONE|DICT|INTERRES
    51   24  149 1    
    52   25   26 2    
    53   25   27 1    
    54   27   28 1    
    55   27   29 1    
    56   27  150 1    
    57   28  151 1    
    58   28  152 1    
    59   28  153 1    
    60   29   30 am   BACKBONE|DICT|INTERRES
    61   29  154 1    
    62   30   31 2    
    63   30   32 1    
    64   32   33 1    
    65   32   34 1    
    66   32  155 1    
    67   33  156 1    
    68   33  157 1    
    69   33  158 1    
    70   34   35 am   BACKBONE|DICT|INTERRES
    71   34  159 1    
    72   35   36 2    
    73   35   37 1    
    74   37   38 1    
    75   37   39 1    
    76   37  160 1    
    77   38  161 1    
    78   38  162 1    
    79   38  163 1    
    80   39   40 am   BACKBONE|DICT|INTERRES
    81   39  164 1    
    82   40   41 2    
    83   40   42 1    
    84   42   43 1    
    85   42   44 1    
    86   42  165 1    
    87   43  166 1    
    88   43  167 1    
    89   43  168 1    
    90   44   45 am   BACKBONE|DICT|INTERRES
    91   44  169 1    
    92   45   46 2    
    93   45   47 1    
    94   47   48 1    
    95   47   49 1    
    96   47  170 1    
    97   48  171 1    
    98   48  172 1    
    99   48  173 1    
   100   49   50 am   BACKBONE|DICT|INTERRES
   101   49  174 1    
   102   50   51 2    
   103   50   52 1    
   104   52   53 1    
   105   52   54 1    
   106   52  175 1    
   107   53  176 1    
   108   53  177 1    
   109   53  178 1    
   110   54   55 am   BACKBONE|DICT|INTERRES
   111   54  179 1    
   112   55   56 2    
   113   55   57 1    
   114   57   58 1    
   115   57   59 1    
   116   57  180 1    
   117   58  181 1    
   118   58  182 1    
   119   58  183 1    
   120   59   60 am   BACKBONE|DICT|INTERRES
   121   59  184 1    
   122   60   61 2    
   123   60   62 1    
   124   62   63 1    
   125   62   64 1    
   126   62  185 1    
   127   63  186 1    
   128   63  187 1    
   129   63  188 1    
   130   64   65 am   BACKBONE|DICT|INTERRES
   131   64  189 1    
   132   65   66 2    
   133   67   68 2    
   134   67   69 am   BACKBONE|DICT|INTERRES
   135   69   70 1    
   136   69  190 1    
   137   70   71 1    
   138   70   72 1    
   139   70  191 1    
   140   71  192 1    
   141   71  193 1    
   142   71  194 1    
   143   72   73 2    
   144   72   74 am   BACKBONE|DICT|INTERRES
   145   74   75 1    
   146   74  195 1    
   147   75   76 1    
   148   75   77 1    
   149   75  196 1    
   150   76  197 1    
   151   76  198 1    
   152   76  199 1    
   153   77   78 2    
   154   77   79 am   BACKBONE|DICT|INTERRES
   155   79   80 1    
   156   79  200 1    
   157   80   81 1    
   158   80   82 1    
   159   80  201 1    
   160   81  202 1    
   161   81  203 1    
   162   81  204 1    
   163   82   83 2    
   164   82   84 am   BACKBONE|DICT|INTERRES
   165   84   85 1    
   166   84  205 1    
   167   85   86 1    
   168   85   87 1    
   169   85  206 1    
   170   86  207 1    
   171   86  208 1    
   172   86  209 1    
   173   87   88 2    
   174   87   89 am   BACKBONE|DICT|INTERRES
   175   89   90 1    
   176   89  210 1    
   177   90   91 1    
   178   90   92 1    
   179   90  211 1    
   180   91  212 1    
   181   91  213 1    
   182   91  214 1    
   183   92   93 2    
   184   92   94 am   BACKBONE|DICT|INTERRES
   185   94   95 1    
   186   94  215 1    
   187   95   96 1    
   188   95   97 1    
   189   95  216 1    
   190   96  217 1    
   191   96  218 1    
   192   96  219 1    
   193   97   98 2    
   194   97   99 am   BACKBONE|DICT|INTERRES
   195   99  100 1    
   196   99  220 1    
   197  100  101 1    
   198  100  102 1    
   199  100  221 1    
   200  101  222 1    
   201  101  223 1    
   202  101  224 1    
   203  102  103 2    
   204  102  104 am   BACKBONE|DICT|INTERRES
   205  104  105 1    
   206  104  225 1    
   207  105  106 1    
   208  105  107 1    
   209  105  226 1    
   210  106  227 1    
   211  106  228 1    
   212  106  229 1    
   213  107  108 2    
   214  107  109 am   BACKBONE|DICT|INTERRES
   215  109  110 1    
   216  109  230 1    
   217  110  111 1    
   218  110  112 1    
   219  110  231 1    
   220  111  232 1    
   221  111  233 1    
   222  111  234 1    
   223  112  113 2    
   224  112  114 am   BACKBONE|DICT|INTERRES
   225  114  115 1    
   226  114  235 1    
   227  115  116 1    
   228  115  117 1    
   229  115  236 1    
   230  116  237 1    
   231  116  238 1    
   232  116  239 1    
   233  117  118 2    
   234  117  119 am   BACKBONE|DICT|INTERRES
   235  119  120 1    
   236  119  240 1    
   237  120  121 1    
   238  120  124 1    
   239  120  241 1    
   240  121  122 am   BACKBONE|DICT|INTERRES
   241  121  123 2    
   242  122  242 1    
   243  122  243 1    
   244  124  125 1    
   245  124  244 1    
   246  124  245 1    
   247  125  126 1    
   248  126  246 1    
   249  126  247 1    
@<TRIPOS>SUBSTRUCTURE
     1 UNK         1 GROUP             0       ****    0 ROOT    
