@<TRIPOS>MOLECULE
3R540
247   249    1
SMALL
USER_CHARGES


@<TRIPOS>ATOM
      1 CA          1.9459   -9.0909  -50.4968 C.3       0 UNK        -0.1800 
      2 C           2.0787  -10.4980  -49.9318 C.2       0 UNK         0.5000 
      3 O           1.9337  -10.6809  -48.7247 O.2       0 UNK        -0.5000 
      4 N           2.3835  -11.4732  -50.8016 N.am      1 UNK        -0.5000 
      5 CA          2.4994  -12.9297  -50.5863 C.3       1 UNK         0.1400 
      6 C6          1.1412  -13.6927  -50.5899 C.3       23 UNK        -0.0398 
      7 S7         -0.0899  -13.1813  -49.3419 S.3       23 UNK        -0.2404 
      8 C8          0.1507  -14.4129  -48.0274 C.3       23 UNK        -0.0205 
      9 C9         -0.3711  -15.7911  -48.4054 C.ar      23 UNK        -0.0193 
     10 C10        -1.7478  -16.0248  -48.4889 C.ar      23 UNK        -0.1150 
     11 C11        -2.2427  -17.3050  -48.7602 C.ar      23 UNK        -0.0193 
     12 C12        -1.3358  -18.3590  -48.9263 C.ar      23 UNK        -0.1150 
     13 C13         0.0414  -18.1356  -48.8647 C.ar      23 UNK        -0.0193 
     14 C14         0.5192  -16.8467  -48.6177 C.ar      23 UNK        -0.1150 
     15 C15         1.0076  -19.2931  -49.0497 C.3       23 UNK        -0.0205 
     16 S16         1.6592  -19.8543  -47.4472 S.3       23 UNK        -0.2404 
     17 C17         2.0624  -21.5930  -47.8091 C.3       23 UNK        -0.0398 
     18 CA          1.0757  -22.6212  -47.2037 C.3       11 UNK         0.1400 
     19 N           0.9334  -22.5169  -45.7492 N.am      11 UNK        -0.5000 
     20 C           0.5019  -23.5247  -44.9780 C.2       10 UNK         0.5000 
     21 O           0.1831  -24.6311  -45.4172 O.2       10 UNK        -0.5000 
     22 CA          0.3798  -23.2404  -43.4726 C.3       10 UNK         0.1400 
     23 CB          1.7638  -23.1753  -42.8087 C.3       10 UNK        -0.1800 
     24 N          -0.3567  -22.0065  -43.2038 N.am      10 UNK        -0.5000 
     25 C          -1.6787  -21.8706  -43.3858 C.2       9 UNK         0.5000 
     26 O          -2.4023  -22.7673  -43.8178 O.2       9 UNK        -0.5000 
     27 CA         -2.3018  -20.4997  -43.0556 C.3       9 UNK         0.1400 
     28 CB         -2.7253  -20.4420  -41.5806 C.3       9 UNK        -0.1800 
     29 N          -1.4242  -19.3664  -43.3440 N.am      9 UNK        -0.5000 
     30 C          -0.9144  -19.0845  -44.5505 C.2       8 UNK         0.5000 
     31 O          -1.1419  -19.7508  -45.5569 O.2       8 UNK        -0.5000 
     32 CA          0.0361  -17.8806  -44.6439 C.3       8 UNK         0.1400 
     33 CB         -0.7678  -16.6081  -44.9480 C.3       8 UNK        -0.1800 
     34 N           0.8593  -17.6467  -43.4565 N.am      8 UNK        -0.5000 
     35 C           1.5936  -18.5324  -42.7686 C.2       7 UNK         0.5000 
     36 O           1.6649  -19.7321  -43.0393 O.2       7 UNK        -0.5000 
     37 CA          2.3564  -17.9847  -41.5450 C.3       7 UNK         0.1400 
     38 CB          3.8228  -17.7002  -41.9031 C.3       7 UNK        -0.1800 
     39 N           1.7651  -16.7758  -40.9589 N.am      7 UNK        -0.5000 
     40 C           0.5523  -16.6930  -40.3976 C.2       6 UNK         0.5000 
     41 O          -0.2255  -17.6469  -40.3366 O.2       6 UNK        -0.5000 
     42 CA          0.1042  -15.3340  -39.8161 C.3       6 UNK         0.1400 
     43 CB          0.2549  -15.3222  -38.2828 C.3       6 UNK        -0.1800 
     44 N           0.7072  -14.1299  -40.4101 N.am      6 UNK        -0.5000 
     45 C           1.9722  -13.6897  -40.3619 C.2       5 UNK         0.5000 
     46 O           2.9000  -14.3322  -39.8680 O.2       5 UNK        -0.5000 
     47 CA          2.2359  -12.3065  -41.0029 C.3       5 UNK         0.1400 
     48 CB          3.6610  -11.7916  -40.7330 C.3       5 UNK        -0.1800 
     49 N           2.0186  -12.3336  -42.4485 N.am      5 UNK        -0.5000 
     50 C           0.8292  -12.3845  -43.0621 C.2       4 UNK         0.5000 
     51 O          -0.2436  -12.2650  -42.4679 O.2       4 UNK        -0.5000 
     52 CA          0.8271  -12.6703  -44.5796 C.3       4 UNK         0.1400 
     53 CB          0.6245  -11.3725  -45.3748 C.3       4 UNK        -0.1800 
     54 N           2.0175  -13.3591  -45.0960 N.am      4 UNK        -0.5000 
     55 C           2.5255  -14.5172  -44.6479 C.2       3 UNK         0.5000 
     56 O           2.0720  -15.1162  -43.6746 O.2       3 UNK        -0.5000 
     57 CA          3.7285  -15.1210  -45.3990 C.3       3 UNK         0.1400 
     58 CB          3.4194  -16.5536  -45.8619 C.3       3 UNK        -0.1800 
     59 N           4.1537  -14.3414  -46.5620 N.am      3 UNK        -0.5000 
     60 C           4.9124  -13.2421  -46.5360 C.2       2 UNK         0.5000 
     61 O           5.2854  -12.7022  -45.4944 O.2       2 UNK        -0.5000 
     62 CA          5.3233  -12.6391  -47.8946 C.3       2 UNK         0.1400 
     63 CB          6.5080  -13.4145  -48.5010 C.3       2 UNK        -0.1800 
     64 N           4.2384  -12.4849  -48.8755 N.am      2 UNK        -0.5000 
     65 C           3.4838  -13.4095  -49.4881 C.2       1 UNK         0.5000 
     66 O           3.5755  -14.6161  -49.2555 O.2       1 UNK        -0.5000 
     67 C          -0.2916  -22.6559  -47.9167 C.2       11 UNK         0.5000 
     68 O          -0.4225  -23.3773  -48.9042 O.2       11 UNK        -0.5000 
     69 N          -1.3008  -21.9501  -47.3805 N.am      12 UNK        -0.5000 
     70 CA         -2.6901  -22.0250  -47.8363 C.3       12 UNK         0.1400 
     71 CB         -3.5574  -20.9979  -47.0954 C.3       12 UNK        -0.1800 
     72 C          -3.2830  -23.4325  -47.6690 C.2       12 UNK         0.5000 
     73 O          -3.9172  -23.9252  -48.5996 O.2       12 UNK        -0.5000 
     74 N          -3.0387  -24.0708  -46.5143 N.am      13 UNK        -0.5000 
     75 CA         -3.4566  -25.4459  -46.2348 C.3       13 UNK         0.1400 
     76 CB         -3.2016  -25.7869  -44.7593 C.3       13 UNK        -0.1800 
     77 C          -2.7772  -26.4695  -47.1610 C.2       13 UNK         0.5000 
     78 O          -3.4571  -27.3542  -47.6814 O.2       13 UNK        -0.5000 
     79 N          -1.4665  -26.3030  -47.3925 N.am      14 UNK        -0.5000 
     80 CA         -0.6771  -27.1218  -48.3179 C.3       14 UNK         0.1400 
     81 CB          0.8092  -26.7613  -48.1770 C.3       14 UNK        -0.1800 
     82 C          -1.1352  -26.9866  -49.7845 C.2       14 UNK         0.5000 
     83 O          -1.1652  -27.9806  -50.5103 O.2       14 UNK        -0.5000 
     84 N          -1.5145  -25.7649  -50.1789 N.am      15 UNK        -0.5000 
     85 CA         -2.0606  -25.4235  -51.4930 C.3       15 UNK         0.1400 
     86 CB         -1.8579  -23.9167  -51.7100 C.3       15 UNK        -0.1800 
     87 C          -3.5512  -25.7833  -51.6649 C.2       15 UNK         0.5000 
     88 O          -4.0820  -25.6155  -52.7652 O.2       15 UNK        -0.5000 
     89 N          -4.2111  -26.2124  -50.5768 N.am      16 UNK        -0.5000 
     90 CA         -5.6513  -26.4670  -50.4486 C.3       16 UNK         0.1400 
     91 CB         -6.0504  -27.7231  -51.2495 C.3       16 UNK        -0.1800 
     92 C          -6.5025  -25.2282  -50.8069 C.2       16 UNK         0.5000 
     93 O          -7.5601  -25.3584  -51.4266 O.2       16 UNK        -0.5000 
     94 N          -5.9833  -24.0426  -50.4537 N.am      17 UNK        -0.5000 
     95 CA         -6.4164  -22.6802  -50.7825 C.3       17 UNK         0.1400 
     96 CB         -7.8091  -22.3778  -50.1994 C.3       17 UNK        -0.1800 
     97 C          -6.3558  -22.3348  -52.2839 C.2       17 UNK         0.5000 
     98 O          -5.8523  -21.2686  -52.6381 O.2       17 UNK        -0.5000 
     99 N          -6.8718  -23.2320  -53.1308 N.am      18 UNK        -0.5000 
    100 CA        -7.0755  -23.0668  -54.5668 C.3       18 UNK         0.1400 
    101 CB        -7.7974  -24.3062  -55.1165 C.3       18 UNK        -0.1800 
    102 C         -5.7929  -22.7899  -55.3663 C.2       18 UNK         0.5000 
    103 O         -5.7966  -21.8847  -56.2008 O.2       18 UNK        -0.5000 
    104 N         -4.7156  -23.5438  -55.0983 N.am      19 UNK        -0.5000 
    105 CA        -3.4524  -23.4212  -55.8379 C.3       19 UNK         0.1400 
    106 CB        -2.6006  -24.6835  -55.6343 C.3       19 UNK        -0.1800 
    107 C         -2.6585  -22.1459  -55.4892 C.2       19 UNK         0.5000 
    108 O         -1.8396  -21.7050  -56.2962 O.2       19 UNK        -0.5000 
    109 N         -2.9305  -21.5674  -54.3126 N.am      20 UNK        -0.5000 
    110 CA        -2.3760  -20.2931  -53.8524 C.3       20 UNK         0.1400 
    111 CB        -2.0818  -20.4049  -52.3477 C.3       20 UNK        -0.1800 
    112 C         -3.3132  -19.1046  -54.1559 C.2       20 UNK         0.5000 
    113 O         -2.9101  -17.9583  -53.9566 O.2       20 UNK        -0.5000 
    114 N         -4.5332  -19.3958  -54.6358 N.am      21 UNK        -0.5000 
    115 CA        -5.6299  -18.4713  -54.9397 C.3       21 UNK         0.1400 
    116 CB        -5.2679  -17.5677  -56.1368 C.3       21 UNK        -0.1800 
    117 C         -6.1184  -17.6827  -53.7047 C.2       21 UNK         0.5000 
    118 O         -6.4624  -16.5041  -53.8187 O.2       21 UNK        -0.5000 
    119 N         -6.1319  -18.3465  -52.5429 N.am      22 UNK        -0.5000 
    120 CA        -6.5743  -17.7822  -51.2597 C.3       22 UNK         0.1400 
    121 C         -8.1171  -17.6180  -51.1926 C.2       22 UNK         0.5000 
    122 N         -8.6079  -16.5588  -50.5635 N.am      22 UNK        -0.7600 
    123 O         -8.8743  -18.4627  -51.6662 O.2       22 UNK        -0.5000 
    124 C124       -6.0673  -18.6143  -50.0552 C.3       23 UNK        -0.0398 
    125 S125       -4.2543  -18.7937  -50.0445 S.3       23 UNK        -0.2404 
    126 C126       -3.7537  -17.5271  -48.8299 C.3       23 UNK        -0.0205 
    127 H127        0.9459   -8.7034  -50.3022 H         1 UNK         0.0600 
    128 H128        2.6682   -8.4263  -50.0228 H         1 UNK         0.0600 
    129 H129        2.1162   -9.0665  -51.5735 H         1 UNK         0.0600 
    130 H130        2.5201  -11.1989  -51.7647 H         1 UNK         0.3000 
    131 H131        3.0019  -13.2620  -51.4961 H         1 UNK         0.0600 
    132 H132        1.2986  -14.7703  -50.5270 H         1 UNK         0.0800 
    133 H133        0.6685  -13.5425  -51.5610 H         1 UNK         0.0800 
    134 H134        1.2052  -14.4555  -47.7542 H         1 UNK         0.0800 
    135 H135       -0.3781  -14.0719  -47.1372 H         1 UNK         0.0800 
    136 H136       -2.4344  -15.2058  -48.3267 H         1 UNK         0.1150 
    137 H137       -1.6979  -19.3608  -49.1046 H         1 UNK         0.1150 
    138 H138        1.5848  -16.6745  -48.5663 H         1 UNK         0.1150 
    139 H139        0.5035  -20.1168  -49.5577 H         1 UNK         0.0800 
    140 H140        1.8351  -18.9912  -49.6931 H         1 UNK         0.0800 
    141 H141        2.1565  -21.7395  -48.8865 H         1 UNK         0.0800 
    142 H142        3.0586  -21.7809  -47.4069 H         1 UNK         0.0800 
    143 H143        1.5267  -23.5967  -47.3984 H         1 UNK         0.0600 
    144 H144        1.1347  -21.6180  -45.3335 H         1 UNK         0.3000 
    145 H145       -0.1688  -24.0700  -43.0210 H         1 UNK         0.0600 
    146 H146        1.6776  -23.0251  -41.7325 H         1 UNK         0.0600 
    147 H147        2.3141  -24.1040  -42.9647 H         1 UNK         0.0600 
    148 H148        2.3704  -22.3636  -43.2117 H         1 UNK         0.0600 
    149 H149        0.1894  -21.1991  -42.9228 H         1 UNK         0.3000 
    150 H150       -3.1956  -20.3885  -43.6724 H         1 UNK         0.0600 
    151 H151       -3.3950  -21.2667  -41.3330 H         1 UNK         0.0600 
    152 H152       -3.2550  -19.5155  -41.3580 H         1 UNK         0.0600 
    153 H153       -1.8646  -20.5042  -40.9132 H         1 UNK         0.0600 
    154 H154       -1.1572  -18.7832  -42.5627 H         1 UNK         0.3000 
    155 H155        0.7138  -18.0600  -45.4769 H         1 UNK         0.0600 
    156 H156       -0.1131  -15.7910  -45.2454 H         1 UNK         0.0600 
    157 H157       -1.3472  -16.2806  -44.0842 H         1 UNK         0.0600 
    158 H158       -1.4677  -16.7734  -45.7675 H         1 UNK         0.0600 
    159 H159        0.9817  -16.6727  -43.1977 H         1 UNK         0.3000 
    160 H160        2.3379  -18.7646  -40.7812 H         1 UNK         0.0600 
    161 H161        3.9109  -16.8828  -42.6189 H         1 UNK         0.0600 
    162 H162        4.2969  -18.5778  -42.3448 H         1 UNK         0.0600 
    163 H163        4.3984  -17.4309  -41.0174 H         1 UNK         0.0600 
    164 H164        2.3444  -15.9440  -40.9391 H         1 UNK         0.3000 
    165 H165       -0.9615  -15.2551  -40.0361 H         1 UNK         0.0600 
    166 H166        1.2970  -15.4147  -37.9757 H         1 UNK         0.0600 
    167 H167       -0.1420  -14.4021  -37.8540 H         1 UNK         0.0600 
    168 H168       -0.2908  -16.1518  -37.8313 H         1 UNK         0.0600 
    169 H169        0.0599  -13.5446  -40.9292 H         1 UNK         0.3000 
    170 H170        1.5360  -11.5987  -40.5539 H         1 UNK         0.0600 
    171 H171        3.8611  -11.7377  -39.6621 H         1 UNK         0.0600 
    172 H172        4.4162  -12.4415  -41.1773 H         1 UNK         0.0600 
    173 H173        3.8011  -10.7896  -41.1389 H         1 UNK         0.0600 
    174 H174        2.8392  -12.4795  -43.0179 H         1 UNK         0.3000 
    175 H175       -0.0272  -13.3215  -44.7712 H         1 UNK         0.0600 
    176 H176        1.4749  -10.6982  -45.2662 H         1 UNK         0.0600 
    177 H177        0.4935  -11.5769  -46.4378 H         1 UNK         0.0600 
    178 H178       -0.2648  -10.8387  -45.0372 H         1 UNK         0.0600 
    179 H179        2.4715  -12.9293  -45.8882 H         1 UNK         0.3000 
    180 H180        4.5589  -15.1668  -44.6916 H         1 UNK         0.0600 
    181 H181        2.5273  -16.5883  -46.4854 H         1 UNK         0.0600 
    182 H182        3.2482  -17.2143  -45.0126 H         1 UNK         0.0600 
    183 H183        4.2460  -16.9760  -46.4334 H         1 UNK         0.0600 
    184 H184        3.8856  -14.6930  -47.4794 H         1 UNK         0.3000 
    185 H185        5.6721  -11.6261  -47.6878 H         1 UNK         0.0600 
    186 H186        7.3468  -13.4508  -47.8047 H         1 UNK         0.0600 
    187 H187        6.2417  -14.4439  -48.7429 H         1 UNK         0.0600 
    188 H188        6.8647  -12.9376  -49.4139 H         1 UNK         0.0600 
    189 H189        4.0055  -11.5254  -49.0935 H         1 UNK         0.3000 
    190 H190       -1.1135  -21.3157  -46.6070 H         1 UNK         0.3000 
    191 H191       -2.7050  -21.7767  -48.8997 H         1 UNK         0.0600 
    192 H192       -4.5842  -21.0160  -47.4629 H         1 UNK         0.0600 
    193 H193       -3.1812  -19.9868  -47.2401 H         1 UNK         0.0600 
    194 H194       -3.5858  -21.1921  -46.0231 H         1 UNK         0.0600 
    195 H195       -2.5392  -23.5894  -45.7750 H         1 UNK         0.3000 
    196 H196       -4.5325  -25.5071  -46.4114 H         1 UNK         0.0600 
    197 H197       -3.4952  -26.8139  -44.5384 H         1 UNK         0.0600 
    198 H198       -3.7784  -25.1371  -44.1012 H         1 UNK         0.0600 
    199 H199       -2.1493  -25.6813  -44.4949 H         1 UNK         0.0600 
    200 H200       -0.9733  -25.5710  -46.8923 H         1 UNK         0.3000 
    201 H201       -0.8026  -28.1665  -48.0259 H         1 UNK         0.0600 
    202 H202        1.1516  -26.8883  -47.1498 H         1 UNK         0.0600 
    203 H203        1.0020  -25.7292  -48.4694 H         1 UNK         0.0600 
    204 H204        1.4267  -27.4012  -48.8085 H         1 UNK         0.0600 
    205 H205       -1.3880  -24.9882  -49.5366 H         1 UNK         0.3000 
    206 H206       -1.5021  -25.9624  -52.2608 H         1 UNK         0.0600 
    207 H207       -0.8013  -23.6511  -51.6747 H         1 UNK         0.0600 
    208 H208       -2.2369  -23.6008  -52.6785 H         1 UNK         0.0600 
    209 H209       -2.3773  -23.3290  -50.9524 H         1 UNK         0.0600 
    210 H210       -3.6849  -26.2871  -49.7158 H         1 UNK         0.3000 
    211 H211       -5.8347  -26.6704  -49.3928 H         1 UNK         0.0600 
    212 H212       -5.9418  -27.5699  -52.3237 H         1 UNK         0.0600 
    213 H213       -7.0898  -27.9938  -51.0607 H         1 UNK         0.0600 
    214 H214       -5.4368  -28.5792  -50.9690 H         1 UNK         0.0600 
    215 H215       -5.1235  -24.0776  -49.9063 H         1 UNK         0.3000 
    216 H216       -5.7021  -22.0213  -50.2858 H         1 UNK         0.0600 
    217 H217       -8.5778  -23.0281  -50.6170 H         1 UNK         0.0600 
    218 H218       -8.1091  -21.3509  -50.4114 H         1 UNK         0.0600 
    219 H219       -7.8162  -22.5029  -49.1167 H         1 UNK         0.0600 
    220 H220       -7.2375  -24.0860  -52.7163 H         1 UNK         0.3000 
    221 H221       -7.7337  -22.2058  -54.6999 H         1 UNK         0.0600 
    222 H222       -7.2132  -25.2139  -54.9593 H         1 UNK         0.0600 
    223 H223       -8.7652  -24.4444  -54.6339 H         1 UNK         0.0600 
    224 H224       -7.9794  -24.2119  -56.1879 H         1 UNK         0.0600 
    225 H225       -4.7634  -24.2564  -54.3778 H         1 UNK         0.3000 
    226 H226       -3.6926  -23.3628  -56.9019 H         1 UNK         0.0600 
    227 H227       -3.1494  -25.5799  -55.9233 H         1 UNK         0.0600 
    228 H228       -1.6978  -24.6451  -56.2450 H         1 UNK         0.0600 
    229 H229       -2.2861  -24.8050  -54.5999 H         1 UNK         0.0600 
    230 H230       -3.6382  -21.9862  -53.7255 H         1 UNK         0.3000 
    231 H231       -1.4319  -20.0889  -54.3615 H         1 UNK         0.0600 
    232 H232       -2.9565  -20.7454  -51.7934 H         1 UNK         0.0600 
    233 H233       -1.2722  -21.1090  -52.1584 H         1 UNK         0.0600 
    234 H234       -1.7753  -19.4455  -51.9283 H         1 UNK         0.0600 
    235 H235       -4.7603  -20.3729  -54.7611 H         1 UNK         0.3000 
    236 H236       -6.4701  -19.0965  -55.2451 H         1 UNK         0.0600 
    237 H237       -4.9452  -18.1601  -56.9930 H         1 UNK         0.0600 
    238 H238       -6.1285  -16.9794  -56.4568 H         1 UNK         0.0600 
    239 H239       -4.4679  -16.8691  -55.8906 H         1 UNK         0.0600 
    240 H240       -5.8739  -19.3290  -52.5388 H         1 UNK         0.3000 
    241 H241       -6.1314  -16.7874  -51.1771 H         1 UNK         0.0600 
    242 H242       -8.0087  -15.8534  -50.1632 H         1 UNK         0.3800 
    243 H243       -9.6083  -16.4486  -50.5000 H         1 UNK         0.3800 
    244 H244       -6.3865  -18.1661  -49.1127 H         1 UNK         0.0800 
    245 H245       -6.5006  -19.6139  -50.0766 H         1 UNK         0.0800 
    246 H246       -4.1144  -17.8117  -47.8411 H         1 UNK         0.0800 
    247 H247       -4.2506  -16.5910  -49.0890 H         1 UNK         0.0800 
@<TRIPOS>BOND
     1    1    2 1    
     2    1  127 1    
     3    1  128 1    
     4    1  129 1    
     5    2    3 2    
     6    2    4 am   BACKBONE|DICT|INTERRES
     7    4    5 1    
     8    4  130 1    
     9    5    6 1    
    10    5   65 1    
    11    5  131 1    
    12    6    7 1    
    13    6  132 1    
    14    6  133 1    
    15    7    8 1    
    16    8    9 1    
    17    8  134 1    
    18    8  135 1    
    19    9   10 ar   
    20    9   14 ar   
    21   10   11 ar   
    22   10  136 1    
    23   11   12 ar   
    24   11  126 1    
    25   12   13 ar   
    26   12  137 1    
    27   13   14 ar   
    28   13   15 1    
    29   14  138 1    
    30   15   16 1    
    31   15  139 1    
    32   15  140 1    
    33   16   17 1    
    34   17   18 1    
    35   17  141 1    
    36   17  142 1    
    37   18   19 1    
    38   18   67 1    
    39   18  143 1    
    40   19   20 am   BACKBONE|DICT|INTERRES
    41   19  144 1    
    42   20   21 2    
    43   20   22 1    
    44   22   23 1    
    45   22   24 1    
    46   22  145 1    
    47   23  146 1    
    48   23  147 1    
    49   23  148 1    
    50   24   25 am   BACKBONE|DICT|INTERRES
    51   24  149 1    
    52   25   26 2    
    53   25   27 1    
    54   27   28 1    
    55   27   29 1    
    56   27  150 1    
    57   28  151 1    
    58   28  152 1    
    59   28  153 1    
    60   29   30 am   BACKBONE|DICT|INTERRES
    61   29  154 1    
    62   30   31 2    
    63   30   32 1    
    64   32   33 1    
    65   32   34 1    
    66   32  155 1    
    67   33  156 1    
    68   33  157 1    
    69   33  158 1    
    70   34   35 am   BACKBONE|DICT|INTERRES
    71   34  159 1    
    72   35   36 2    
    73   35   37 1    
    74   37   38 1    
    75   37   39 1    
    76   37  160 1    
    77   38  161 1    
    78   38  162 1    
    79   38  163 1    
    80   39   40 am   BACKBONE|DICT|INTERRES
    81   39  164 1    
    82   40   41 2    
    83   40   42 1    
    84   42   43 1    
    85   42   44 1    
    86   42  165 1    
    87   43  166 1    
    88   43  167 1    
    89   43  168 1    
    90   44   45 am   BACKBONE|DICT|INTERRES
    91   44  169 1    
    92   45   46 2    
    93   45   47 1    
    94   47   48 1    
    95   47   49 1    
    96   47  170 1    
    97   48  171 1    
    98   48  172 1    
    99   48  173 1    
   100   49   50 am   BACKBONE|DICT|INTERRES
   101   49  174 1    
   102   50   51 2    
   103   50   52 1    
   104   52   53 1    
   105   52   54 1    
   106   52  175 1    
   107   53  176 1    
   108   53  177 1    
   109   53  178 1    
   110   54   55 am   BACKBONE|DICT|INTERRES
   111   54  179 1    
   112   55   56 2    
   113   55   57 1    
   114   57   58 1    
   115   57   59 1    
   116   57  180 1    
   117   58  181 1    
   118   58  182 1    
   119   58  183 1    
   120   59   60 am   BACKBONE|DICT|INTERRES
   121   59  184 1    
   122   60   61 2    
   123   60   62 1    
   124   62   63 1    
   125   62   64 1    
   126   62  185 1    
   127   63  186 1    
   128   63  187 1    
   129   63  188 1    
   130   64   65 am   BACKBONE|DICT|INTERRES
   131   64  189 1    
   132   65   66 2    
   133   67   68 2    
   134   67   69 am   BACKBONE|DICT|INTERRES
   135   69   70 1    
   136   69  190 1    
   137   70   71 1    
   138   70   72 1    
   139   70  191 1    
   140   71  192 1    
   141   71  193 1    
   142   71  194 1    
   143   72   73 2    
   144   72   74 am   BACKBONE|DICT|INTERRES
   145   74   75 1    
   146   74  195 1    
   147   75   76 1    
   148   75   77 1    
   149   75  196 1    
   150   76  197 1    
   151   76  198 1    
   152   76  199 1    
   153   77   78 2    
   154   77   79 am   BACKBONE|DICT|INTERRES
   155   79   80 1    
   156   79  200 1    
   157   80   81 1    
   158   80   82 1    
   159   80  201 1    
   160   81  202 1    
   161   81  203 1    
   162   81  204 1    
   163   82   83 2    
   164   82   84 am   BACKBONE|DICT|INTERRES
   165   84   85 1    
   166   84  205 1    
   167   85   86 1    
   168   85   87 1    
   169   85  206 1    
   170   86  207 1    
   171   86  208 1    
   172   86  209 1    
   173   87   88 2    
   174   87   89 am   BACKBONE|DICT|INTERRES
   175   89   90 1    
   176   89  210 1    
   177   90   91 1    
   178   90   92 1    
   179   90  211 1    
   180   91  212 1    
   181   91  213 1    
   182   91  214 1    
   183   92   93 2    
   184   92   94 am   BACKBONE|DICT|INTERRES
   185   94   95 1    
   186   94  215 1    
   187   95   96 1    
   188   95   97 1    
   189   95  216 1    
   190   96  217 1    
   191   96  218 1    
   192   96  219 1    
   193   97   98 2    
   194   97   99 am   BACKBONE|DICT|INTERRES
   195   99  100 1    
   196   99  220 1    
   197  100  101 1    
   198  100  102 1    
   199  100  221 1    
   200  101  222 1    
   201  101  223 1    
   202  101  224 1    
   203  102  103 2    
   204  102  104 am   BACKBONE|DICT|INTERRES
   205  104  105 1    
   206  104  225 1    
   207  105  106 1    
   208  105  107 1    
   209  105  226 1    
   210  106  227 1    
   211  106  228 1    
   212  106  229 1    
   213  107  108 2    
   214  107  109 am   BACKBONE|DICT|INTERRES
   215  109  110 1    
   216  109  230 1    
   217  110  111 1    
   218  110  112 1    
   219  110  231 1    
   220  111  232 1    
   221  111  233 1    
   222  111  234 1    
   223  112  113 2    
   224  112  114 am   BACKBONE|DICT|INTERRES
   225  114  115 1    
   226  114  235 1    
   227  115  116 1    
   228  115  117 1    
   229  115  236 1    
   230  116  237 1    
   231  116  238 1    
   232  116  239 1    
   233  117  118 2    
   234  117  119 am   BACKBONE|DICT|INTERRES
   235  119  120 1    
   236  119  240 1    
   237  120  121 1    
   238  120  124 1    
   239  120  241 1    
   240  121  122 am   BACKBONE|DICT|INTERRES
   241  121  123 2    
   242  122  242 1    
   243  122  243 1    
   244  124  125 1    
   245  124  244 1    
   246  124  245 1    
   247  125  126 1    
   248  126  246 1    
   249  126  247 1    
@<TRIPOS>SUBSTRUCTURE
     1 UNK         1 GROUP             0       ****    0 ROOT    
