@<TRIPOS>MOLECULE
3R540
247   249    1
SMALL
USER_CHARGES


@<TRIPOS>ATOM
      1 CA         -2.4214  -13.5914  -47.9997 C.3       0 UNK        -0.1800 
      2 C          -1.3840  -13.5456  -49.1130 C.2       0 UNK         0.5000 
      3 O          -1.6835  -13.0612  -50.2039 O.2       0 UNK        -0.5000 
      4 N          -0.1665  -14.0321  -48.8379 N.am      1 UNK        -0.5000 
      5 CA          0.9762  -14.0174  -49.7623 C.3       1 UNK         0.1400 
      6 C6          2.1395  -14.9088  -49.2610 C.3       23 UNK        -0.0398 
      7 S7          1.7090  -16.6818  -49.2202 S.3       23 UNK        -0.2404 
      8 C8          2.9015  -17.3409  -50.4254 C.3       23 UNK        -0.0205 
      9 C9          2.7760  -18.8485  -50.5705 C.ar      23 UNK        -0.0193 
     10 C10         2.0394  -19.3959  -51.6238 C.ar      23 UNK        -0.1150 
     11 C11         1.9429  -20.7816  -51.7747 C.ar      23 UNK        -0.0193 
     12 C12         2.5735  -21.6197  -50.8518 C.ar      23 UNK        -0.1150 
     13 C13         3.3183  -21.0889  -49.7943 C.ar      23 UNK        -0.0193 
     14 C14         3.4235  -19.6978  -49.6683 C.ar      23 UNK        -0.1150 
     15 C15         4.0341  -22.0495  -48.8456 C.3       23 UNK        -0.0205 
     16 S16         4.2498  -21.4582  -47.1309 S.3       23 UNK        -0.2404 
     17 C17         2.5405  -21.1086  -46.6018 C.3       23 UNK        -0.0398 
     18 CA          1.7705  -22.3716  -46.1328 C.3       11 UNK         0.1400 
     19 N           0.9310  -22.0920  -44.9679 N.am      11 UNK        -0.5000 
     20 C           0.3661  -23.0203  -44.1850 C.2       10 UNK         0.5000 
     21 O           0.5719  -24.2289  -44.2956 O.2       10 UNK        -0.5000 
     22 CA         -0.6280  -22.5134  -43.1216 C.3       10 UNK         0.1400 
     23 CB          0.0968  -22.1517  -41.8167 C.3       10 UNK        -0.1800 
     24 N          -1.4145  -21.3660  -43.5812 N.am      10 UNK        -0.5000 
     25 C          -2.2752  -21.4087  -44.6088 C.2       9 UNK         0.5000 
     26 O          -2.5257  -22.4281  -45.2488 O.2       9 UNK        -0.5000 
     27 CA         -2.9374  -20.0843  -45.0178 C.3       9 UNK         0.1400 
     28 CB         -4.1135  -19.7713  -44.0792 C.3       9 UNK        -0.1800 
     29 N          -1.9928  -18.9648  -45.0442 N.am      9 UNK        -0.5000 
     30 C          -0.9266  -18.8836  -45.8552 C.2       8 UNK         0.5000 
     31 O          -0.6489  -19.7309  -46.6996 O.2       8 UNK        -0.5000 
     32 CA          0.0295  -17.6954  -45.6566 C.3       8 UNK         0.1400 
     33 CB         -0.5111  -16.4252  -46.3216 C.3       8 UNK        -0.1800 
     34 N           0.2996  -17.4242  -44.2487 N.am      8 UNK        -0.5000 
     35 C           0.8876  -18.2786  -43.4019 C.2       7 UNK         0.5000 
     36 O           1.3135  -19.3862  -43.7284 O.2       7 UNK        -0.5000 
     37 CA          0.9630  -17.8334  -41.9333 C.3       7 UNK         0.1400 
     38 CB          2.1425  -16.8750  -41.7102 C.3       7 UNK        -0.1800 
     39 N          -0.2797  -17.1917  -41.5040 N.am      7 UNK        -0.5000 
     40 C          -1.4327  -17.8433  -41.3013 C.2       6 UNK         0.5000 
     41 O          -1.5606  -19.0623  -41.4249 O.2       6 UNK        -0.5000 
     42 CA         -2.6528  -16.9793  -40.9293 C.3       6 UNK         0.1400 
     43 CB         -2.6257  -16.6124  -39.4379 C.3       6 UNK        -0.1800 
     44 N          -2.7528  -15.7564  -41.7307 N.am      6 UNK        -0.5000 
     45 C          -3.0122  -15.7447  -43.0452 C.2       5 UNK         0.5000 
     46 O          -3.1854  -16.7609  -43.7131 O.2       5 UNK        -0.5000 
     47 CA         -3.0540  -14.3776  -43.7502 C.3       5 UNK         0.1400 
     48 CB         -4.4423  -13.7381  -43.6035 C.3       5 UNK        -0.1800 
     49 N          -2.0306  -13.4176  -43.3277 N.am      5 UNK        -0.5000 
     50 C          -0.7091  -13.6386  -43.2656 C.2       4 UNK         0.5000 
     51 O          -0.1876  -14.7463  -43.4018 O.2       4 UNK        -0.5000 
     52 CA          0.1646  -12.3851  -43.0539 C.3       4 UNK         0.1400 
     53 CB          1.6754  -12.6859  -43.1445 C.3       4 UNK        -0.1800 
     54 N          -0.2004  -11.2923  -43.9677 N.am      4 UNK        -0.5000 
     55 C          -0.2052  -11.3340  -45.3098 C.2       3 UNK         0.5000 
     56 O           0.0954  -12.3341  -45.9702 O.2       3 UNK        -0.5000 
     57 CA         -0.6354  -10.0516  -46.0595 C.3       3 UNK         0.1400 
     58 CB         -0.4860   -8.7484  -45.2419 C.3       3 UNK        -0.1800 
     59 N           0.0516   -9.9721  -47.3528 N.am      3 UNK        -0.5000 
     60 C           1.3732   -9.8417  -47.5458 C.2       2 UNK         0.5000 
     61 O           2.1712   -9.4616  -46.6873 O.2       2 UNK        -0.5000 
     62 CA          1.8786  -10.3679  -48.8958 C.3       2 UNK         0.1400 
     63 CB          3.4018  -10.2062  -49.0828 C.3       2 UNK        -0.1800 
     64 N           1.4941  -11.7760  -48.9388 N.am      2 UNK        -0.5000 
     65 C           1.4841  -12.5800  -50.0066 C.2       1 UNK         0.5000 
     66 O           1.8374  -12.2344  -51.1346 O.2       1 UNK        -0.5000 
     67 C           0.9354  -22.9865  -47.2766 C.2       11 UNK         0.5000 
     68 O           1.2605  -24.0696  -47.7634 O.2       11 UNK        -0.5000 
     69 N          -0.1451  -22.2930  -47.6613 N.am      12 UNK        -0.5000 
     70 CA         -1.0464  -22.6449  -48.7590 C.3       12 UNK         0.1400 
     71 CB         -2.0662  -21.5157  -48.9460 C.3       12 UNK        -0.1800 
     72 C          -1.7632  -23.9939  -48.5798 C.2       12 UNK         0.5000 
     73 O          -2.0504  -24.6616  -49.5742 O.2       12 UNK        -0.5000 
     74 N          -1.9919  -24.4023  -47.3241 N.am      13 UNK        -0.5000 
     75 CA         -2.5556  -25.6968  -46.9409 C.3       13 UNK         0.1400 
     76 CB         -2.7151  -25.7532  -45.4146 C.3       13 UNK        -0.1800 
     77 C          -1.7436  -26.9082  -47.4408 C.2       13 UNK         0.5000 
     78 O          -2.3342  -27.9624  -47.6742 O.2       13 UNK        -0.5000 
     79 N          -0.4297  -26.7369  -47.6576 N.am      14 UNK        -0.5000 
     80 CA          0.4452  -27.7494  -48.2578 C.3       14 UNK         0.1400 
     81 CB          1.9113  -27.3295  -48.0765 C.3       14 UNK        -0.1800 
     82 C           0.1376  -28.0078  -49.7480 C.2       14 UNK         0.5000 
     83 O           0.4009  -29.1066  -50.2373 O.2       14 UNK        -0.5000 
     84 N          -0.4339  -27.0066  -50.4306 N.am      15 UNK        -0.5000 
     85 CA         -0.9219  -27.0856  -51.8085 C.3       15 UNK         0.1400 
     86 CB         -0.5387  -25.7824  -52.5303 C.3       15 UNK        -0.1800 
     87 C          -2.4485  -27.3085  -51.8666 C.2       15 UNK         0.5000 
     88 O          -3.0022  -27.3782  -52.9644 O.2       15 UNK        -0.5000 
     89 N          -3.1000  -27.3934  -50.6949 N.am      16 UNK        -0.5000 
     90 CA         -4.5479  -27.4634  -50.4692 C.3       16 UNK         0.1400 
     91 CB         -5.1234  -28.7923  -51.0015 C.3       16 UNK        -0.1800 
     92 C          -5.3052  -26.2204  -50.9897 C.2       16 UNK         0.5000 
     93 O          -6.4534  -26.3353  -51.4232 O.2       16 UNK        -0.5000 
     94 N          -4.6484  -25.0557  -50.9381 N.am      17 UNK        -0.5000 
     95 CA         -5.1721  -23.7666  -51.3806 C.3       17 UNK         0.1400 
     96 CB         -4.1164  -23.1116  -52.2875 C.3       17 UNK        -0.1800 
     97 C          -5.4781  -22.8618  -50.1754 C.2       17 UNK         0.5000 
     98 O          -5.0360  -23.1374  -49.0576 O.2       17 UNK        -0.5000 
     99 N          -6.2071  -21.7710  -50.4370 N.am      18 UNK        -0.5000 
    100 CA        -6.3669  -20.6492  -49.5121 C.3       18 UNK         0.1400 
    101 CB        -7.6901  -19.9301  -49.8176 C.3       18 UNK        -0.1800 
    102 C         -5.1782  -19.6792  -49.6461 C.2       18 UNK         0.5000 
    103 O         -4.5170  -19.6628  -50.6879 O.2       18 UNK        -0.5000 
    104 N         -4.9578  -18.8680  -48.6027 N.am      19 UNK        -0.5000 
    105 CA        -3.8356  -17.9359  -48.4346 C.3       19 UNK         0.1400 
    106 CB        -4.1029  -17.0677  -47.1941 C.3       19 UNK        -0.1800 
    107 C         -3.5476  -17.0309  -49.6467 C.2       19 UNK         0.5000 
    108 O         -2.4034  -16.9488  -50.0899 O.2       19 UNK        -0.5000 
    109 N         -4.5997  -16.3770  -50.1538 N.am      20 UNK        -0.5000 
    110 CA        -4.5266  -15.4572  -51.2899 C.3       20 UNK         0.1400 
    111 CB        -5.5797  -14.3556  -51.0921 C.3       20 UNK        -0.1800 
    112 C         -4.7286  -16.1585  -52.6473 C.2       20 UNK         0.5000 
    113 O         -4.4241  -15.5609  -53.6802 O.2       20 UNK        -0.5000 
    114 N         -5.2564  -17.3907  -52.6360 N.am      21 UNK        -0.5000 
    115 CA        -5.5228  -18.1834  -53.8379 C.3       21 UNK         0.1400 
    116 CB        -6.6394  -19.1962  -53.5440 C.3       21 UNK        -0.1800 
    117 C         -4.2674  -18.9081  -54.3515 C.2       21 UNK         0.5000 
    118 O         -4.1549  -19.1354  -55.5567 O.2       21 UNK        -0.5000 
    119 N         -3.3631  -19.2690  -53.4322 N.am      22 UNK        -0.5000 
    120 CA        -2.0847  -19.9338  -53.7121 C.3       22 UNK         0.1400 
    121 C         -1.1471  -19.0806  -54.6130 C.2       22 UNK         0.5000 
    122 N         -0.6346  -19.6403  -55.7009 N.am      22 UNK        -0.7600 
    123 O         -0.8534  -17.9264  -54.3119 O.2       22 UNK        -0.5000 
    124 C124       -1.3794  -20.3461  -52.3941 C.3       23 UNK        -0.0398 
    125 S125       -0.4763  -21.9233  -52.5467 S.3       23 UNK        -0.2404 
    126 C126        1.2072  -21.3777  -52.9641 C.3       23 UNK        -0.0205 
    127 H127       -2.0152  -14.0221  -47.0853 H         1 UNK         0.0600 
    128 H128       -3.2810  -14.1846  -48.3102 H         1 UNK         0.0600 
    129 H129       -2.7676  -12.5838  -47.7701 H         1 UNK         0.0600 
    130 H130        0.0181  -14.4058  -47.9186 H         1 UNK         0.3000 
    131 H131        0.6356  -14.4087  -50.7236 H         1 UNK         0.0600 
    132 H132        3.0200  -14.7751  -49.8925 H         1 UNK         0.0800 
    133 H133        2.4464  -14.6107  -48.2569 H         1 UNK         0.0800 
    134 H134        3.9150  -17.0883  -50.1097 H         1 UNK         0.0800 
    135 H135        2.7468  -16.8543  -51.3898 H         1 UNK         0.0800 
    136 H136        1.5548  -18.7423  -52.3360 H         1 UNK         0.1150 
    137 H137        2.4996  -22.6917  -50.9723 H         1 UNK         0.1150 
    138 H138        4.0090  -19.2677  -48.8684 H         1 UNK         0.1150 
    139 H139        3.5135  -23.0072  -48.8166 H         1 UNK         0.0800 
    140 H140        5.0216  -22.2574  -49.2591 H         1 UNK         0.0800 
    141 H141        2.0047  -20.5511  -47.3720 H         1 UNK         0.0800 
    142 H142        2.6397  -20.4065  -45.7736 H         1 UNK         0.0800 
    143 H143        2.4963  -23.1244  -45.8172 H         1 UNK         0.0600 
    144 H144        0.7463  -21.1162  -44.7632 H         1 UNK         0.3000 
    145 H145       -1.3240  -23.3275  -42.9083 H         1 UNK         0.0600 
    146 H146        0.6560  -23.0055  -41.4321 H         1 UNK         0.0600 
    147 H147        0.8035  -21.3343  -41.9592 H         1 UNK         0.0600 
    148 H148       -0.6104  -21.8503  -41.0436 H         1 UNK         0.0600 
    149 H149       -1.2842  -20.4920  -43.0852 H         1 UNK         0.3000 
    150 H150       -3.3340  -20.2086  -46.0271 H         1 UNK         0.0600 
    151 H151       -4.8075  -20.6113  -44.0288 H         1 UNK         0.0600 
    152 H152       -4.6822  -18.9076  -44.4203 H         1 UNK         0.0600 
    153 H153       -3.7740  -19.5652  -43.0637 H         1 UNK         0.0600 
    154 H154       -2.1938  -18.1950  -44.4109 H         1 UNK         0.3000 
    155 H155        0.9766  -17.9516  -46.1363 H         1 UNK         0.0600 
    156 H156       -1.3969  -16.0592  -45.8070 H         1 UNK         0.0600 
    157 H157        0.2340  -15.6298  -46.3029 H         1 UNK         0.0600 
    158 H158       -0.7779  -16.6081  -47.3635 H         1 UNK         0.0600 
    159 H159        0.0148  -16.5124  -43.8969 H         1 UNK         0.3000 
    160 H160        1.1244  -18.7222  -41.3194 H         1 UNK         0.0600 
    161 H161        2.0400  -15.9628  -42.2988 H         1 UNK         0.0600 
    162 H162        3.0843  -17.3450  -41.9961 H         1 UNK         0.0600 
    163 H163        2.2263  -16.5901  -40.6614 H         1 UNK         0.0600 
    164 H164       -0.2786  -16.1825  -41.4637 H         1 UNK         0.3000 
    165 H165       -3.5478  -17.5776  -41.1139 H         1 UNK         0.0600 
    166 H166       -3.5300  -16.0772  -39.1475 H         1 UNK         0.0600 
    167 H167       -2.5658  -17.5075  -38.8173 H         1 UNK         0.0600 
    168 H168       -1.7693  -15.9838  -39.1914 H         1 UNK         0.0600 
    169 H169       -2.6084  -14.8774  -41.2562 H         1 UNK         0.3000 
    170 H170       -2.8900  -14.5622  -44.8126 H         1 UNK         0.0600 
    171 H171       -5.2253  -14.4236  -43.9311 H         1 UNK         0.0600 
    172 H172       -4.6537  -13.4680  -42.5682 H         1 UNK         0.0600 
    173 H173       -4.5284  -12.8370  -44.2110 H         1 UNK         0.0600 
    174 H174       -2.3492  -12.4693  -43.1940 H         1 UNK         0.3000 
    175 H175       -0.0416  -12.0322  -42.0425 H         1 UNK         0.0600 
    176 H176        1.9502  -13.0973  -44.1164 H         1 UNK         0.0600 
    177 H177        2.2671  -11.7849  -42.9833 H         1 UNK         0.0600 
    178 H178        1.9749  -13.4106  -42.3868 H         1 UNK         0.0600 
    179 H179       -0.4651  -10.4243  -43.5236 H         1 UNK         0.3000 
    180 H180       -1.6945  -10.1767  -46.2888 H         1 UNK         0.0600 
    181 H181        0.5190   -8.6277  -44.8367 H         1 UNK         0.0600 
    182 H182       -1.1836   -8.7270  -44.4042 H         1 UNK         0.0600 
    183 H183       -0.7026   -7.8748  -45.8568 H         1 UNK         0.0600 
    184 H184       -0.4917  -10.3074  -48.1358 H         1 UNK         0.3000 
    185 H185        1.3600   -9.8250  -49.6884 H         1 UNK         0.0600 
    186 H186        3.6961   -9.1600  -48.9919 H         1 UNK         0.0600 
    187 H187        3.9604  -10.7728  -48.3368 H         1 UNK         0.0600 
    188 H188        3.7223  -10.5450  -50.0677 H         1 UNK         0.0600 
    189 H189        1.1530  -12.1455  -48.0578 H         1 UNK         0.3000 
    190 H190       -0.3381  -21.4001  -47.2087 H         1 UNK         0.3000 
    191 H191       -0.4415  -22.7169  -49.6642 H         1 UNK         0.0600 
    192 H192       -2.6750  -21.3731  -48.0532 H         1 UNK         0.0600 
    193 H193       -2.7442  -21.7380  -49.7678 H         1 UNK         0.0600 
    194 H194       -1.5747  -20.5702  -49.1759 H         1 UNK         0.0600 
    195 H195       -1.8111  -23.7481  -46.5691 H         1 UNK         0.3000 
    196 H196       -3.5481  -25.7630  -47.3912 H         1 UNK         0.0600 
    197 H197       -3.1238  -26.7135  -45.0973 H         1 UNK         0.0600 
    198 H198       -3.3976  -24.9807  -45.0608 H         1 UNK         0.0600 
    199 H199       -1.7602  -25.6171  -44.9062 H         1 UNK         0.0600 
    200 H200       -0.0135  -25.8305  -47.4741 H         1 UNK         0.3000 
    201 H201        0.2922  -28.6877  -47.7206 H         1 UNK         0.0600 
    202 H202        2.1435  -27.1401  -47.0283 H         1 UNK         0.0600 
    203 H203        2.1440  -26.4262  -48.6412 H         1 UNK         0.0600 
    204 H204        2.5858  -28.1132  -48.4236 H         1 UNK         0.0600 
    205 H205       -0.6502  -26.1434  -49.9444 H         1 UNK         0.3000 
    206 H206       -0.4477  -27.9185  -52.3310 H         1 UNK         0.0600 
    207 H207        0.5364  -25.6072  -52.4890 H         1 UNK         0.0600 
    208 H208       -0.8213  -25.8175  -53.5830 H         1 UNK         0.0600 
    209 H209       -1.0355  -24.9182  -52.0882 H         1 UNK         0.0600 
    210 H210       -2.5405  -27.3473  -49.8544 H         1 UNK         0.3000 
    211 H211       -4.6819  -27.4609  -49.3866 H         1 UNK         0.0600 
    212 H212       -5.0891  -28.8427  -52.0900 H         1 UNK         0.0600 
    213 H213       -6.1648  -28.9154  -50.7019 H         1 UNK         0.0600 
    214 H214       -4.5715  -29.6458  -50.6079 H         1 UNK         0.0600 
    215 H215       -3.7322  -25.0255  -50.4988 H         1 UNK         0.3000 
    216 H216       -6.0927  -23.8968  -51.9530 H         1 UNK         0.0600 
    217 H217       -4.4352  -22.1272  -52.6325 H         1 UNK         0.0600 
    218 H218       -3.9263  -23.7201  -53.1718 H         1 UNK         0.0600 
    219 H219       -3.1684  -22.9855  -51.7651 H         1 UNK         0.0600 
    220 H220       -6.5036  -21.6045  -51.3866 H         1 UNK         0.3000 
    221 H221       -6.4021  -21.0223  -48.4862 H         1 UNK         0.0600 
    222 H222       -7.7007  -19.5003  -50.8187 H         1 UNK         0.0600 
    223 H223       -8.5356  -20.6139  -49.7392 H         1 UNK         0.0600 
    224 H224       -7.8671  -19.1173  -49.1122 H         1 UNK         0.0600 
    225 H225       -5.5820  -18.9375  -47.8124 H         1 UNK         0.3000 
    226 H226       -2.9403  -18.5335  -48.2524 H         1 UNK         0.0600 
    227 H227       -4.1579  -17.6700  -46.2906 H         1 UNK         0.0600 
    228 H228       -3.3106  -16.3366  -47.0451 H         1 UNK         0.0600 
    229 H229       -5.0391  -16.5150  -47.2794 H         1 UNK         0.0600 
    230 H230       -5.5061  -16.5063  -49.7282 H         1 UNK         0.3000 
    231 H231       -3.5438  -14.9809  -51.3119 H         1 UNK         0.0600 
    232 H232       -5.5410  -13.6272  -51.9031 H         1 UNK         0.0600 
    233 H233       -5.4098  -13.8120  -50.1624 H         1 UNK         0.0600 
    234 H234       -6.5908  -14.7637  -51.0647 H         1 UNK         0.0600 
    235 H235       -5.4094  -17.8448  -51.7468 H         1 UNK         0.3000 
    236 H236       -5.8735  -17.5191  -54.6308 H         1 UNK         0.0600 
    237 H237       -7.5438  -18.6981  -53.1946 H         1 UNK         0.0600 
    238 H238       -6.9033  -19.7545  -54.4431 H         1 UNK         0.0600 
    239 H239       -6.3347  -19.9205  -52.7895 H         1 UNK         0.0600 
    240 H240       -3.5699  -19.0822  -52.4579 H         1 UNK         0.3000 
    241 H241       -2.3485  -20.8421  -54.2581 H         1 UNK         0.0600 
    242 H242       -0.8658  -20.5847  -55.9673 H         1 UNK         0.3800 
    243 H243       -0.0207  -19.0976  -56.2879 H         1 UNK         0.3800 
    244 H244       -0.7366  -19.5572  -52.0019 H         1 UNK         0.0800 
    245 H245       -2.1258  -20.5105  -51.6191 H         1 UNK         0.0800 
    246 H246        1.7650  -22.2391  -53.3343 H         1 UNK         0.0800 
    247 H247        1.1779  -20.6675  -53.7903 H         1 UNK         0.0800 
@<TRIPOS>BOND
     1    1    2 1    
     2    1  127 1    
     3    1  128 1    
     4    1  129 1    
     5    2    3 2    
     6    2    4 am   BACKBONE|DICT|INTERRES
     7    4    5 1    
     8    4  130 1    
     9    5    6 1    
    10    5   65 1    
    11    5  131 1    
    12    6    7 1    
    13    6  132 1    
    14    6  133 1    
    15    7    8 1    
    16    8    9 1    
    17    8  134 1    
    18    8  135 1    
    19    9   10 ar   
    20    9   14 ar   
    21   10   11 ar   
    22   10  136 1    
    23   11   12 ar   
    24   11  126 1    
    25   12   13 ar   
    26   12  137 1    
    27   13   14 ar   
    28   13   15 1    
    29   14  138 1    
    30   15   16 1    
    31   15  139 1    
    32   15  140 1    
    33   16   17 1    
    34   17   18 1    
    35   17  141 1    
    36   17  142 1    
    37   18   19 1    
    38   18   67 1    
    39   18  143 1    
    40   19   20 am   BACKBONE|DICT|INTERRES
    41   19  144 1    
    42   20   21 2    
    43   20   22 1    
    44   22   23 1    
    45   22   24 1    
    46   22  145 1    
    47   23  146 1    
    48   23  147 1    
    49   23  148 1    
    50   24   25 am   BACKBONE|DICT|INTERRES
    51   24  149 1    
    52   25   26 2    
    53   25   27 1    
    54   27   28 1    
    55   27   29 1    
    56   27  150 1    
    57   28  151 1    
    58   28  152 1    
    59   28  153 1    
    60   29   30 am   BACKBONE|DICT|INTERRES
    61   29  154 1    
    62   30   31 2    
    63   30   32 1    
    64   32   33 1    
    65   32   34 1    
    66   32  155 1    
    67   33  156 1    
    68   33  157 1    
    69   33  158 1    
    70   34   35 am   BACKBONE|DICT|INTERRES
    71   34  159 1    
    72   35   36 2    
    73   35   37 1    
    74   37   38 1    
    75   37   39 1    
    76   37  160 1    
    77   38  161 1    
    78   38  162 1    
    79   38  163 1    
    80   39   40 am   BACKBONE|DICT|INTERRES
    81   39  164 1    
    82   40   41 2    
    83   40   42 1    
    84   42   43 1    
    85   42   44 1    
    86   42  165 1    
    87   43  166 1    
    88   43  167 1    
    89   43  168 1    
    90   44   45 am   BACKBONE|DICT|INTERRES
    91   44  169 1    
    92   45   46 2    
    93   45   47 1    
    94   47   48 1    
    95   47   49 1    
    96   47  170 1    
    97   48  171 1    
    98   48  172 1    
    99   48  173 1    
   100   49   50 am   BACKBONE|DICT|INTERRES
   101   49  174 1    
   102   50   51 2    
   103   50   52 1    
   104   52   53 1    
   105   52   54 1    
   106   52  175 1    
   107   53  176 1    
   108   53  177 1    
   109   53  178 1    
   110   54   55 am   BACKBONE|DICT|INTERRES
   111   54  179 1    
   112   55   56 2    
   113   55   57 1    
   114   57   58 1    
   115   57   59 1    
   116   57  180 1    
   117   58  181 1    
   118   58  182 1    
   119   58  183 1    
   120   59   60 am   BACKBONE|DICT|INTERRES
   121   59  184 1    
   122   60   61 2    
   123   60   62 1    
   124   62   63 1    
   125   62   64 1    
   126   62  185 1    
   127   63  186 1    
   128   63  187 1    
   129   63  188 1    
   130   64   65 am   BACKBONE|DICT|INTERRES
   131   64  189 1    
   132   65   66 2    
   133   67   68 2    
   134   67   69 am   BACKBONE|DICT|INTERRES
   135   69   70 1    
   136   69  190 1    
   137   70   71 1    
   138   70   72 1    
   139   70  191 1    
   140   71  192 1    
   141   71  193 1    
   142   71  194 1    
   143   72   73 2    
   144   72   74 am   BACKBONE|DICT|INTERRES
   145   74   75 1    
   146   74  195 1    
   147   75   76 1    
   148   75   77 1    
   149   75  196 1    
   150   76  197 1    
   151   76  198 1    
   152   76  199 1    
   153   77   78 2    
   154   77   79 am   BACKBONE|DICT|INTERRES
   155   79   80 1    
   156   79  200 1    
   157   80   81 1    
   158   80   82 1    
   159   80  201 1    
   160   81  202 1    
   161   81  203 1    
   162   81  204 1    
   163   82   83 2    
   164   82   84 am   BACKBONE|DICT|INTERRES
   165   84   85 1    
   166   84  205 1    
   167   85   86 1    
   168   85   87 1    
   169   85  206 1    
   170   86  207 1    
   171   86  208 1    
   172   86  209 1    
   173   87   88 2    
   174   87   89 am   BACKBONE|DICT|INTERRES
   175   89   90 1    
   176   89  210 1    
   177   90   91 1    
   178   90   92 1    
   179   90  211 1    
   180   91  212 1    
   181   91  213 1    
   182   91  214 1    
   183   92   93 2    
   184   92   94 am   BACKBONE|DICT|INTERRES
   185   94   95 1    
   186   94  215 1    
   187   95   96 1    
   188   95   97 1    
   189   95  216 1    
   190   96  217 1    
   191   96  218 1    
   192   96  219 1    
   193   97   98 2    
   194   97   99 am   BACKBONE|DICT|INTERRES
   195   99  100 1    
   196   99  220 1    
   197  100  101 1    
   198  100  102 1    
   199  100  221 1    
   200  101  222 1    
   201  101  223 1    
   202  101  224 1    
   203  102  103 2    
   204  102  104 am   BACKBONE|DICT|INTERRES
   205  104  105 1    
   206  104  225 1    
   207  105  106 1    
   208  105  107 1    
   209  105  226 1    
   210  106  227 1    
   211  106  228 1    
   212  106  229 1    
   213  107  108 2    
   214  107  109 am   BACKBONE|DICT|INTERRES
   215  109  110 1    
   216  109  230 1    
   217  110  111 1    
   218  110  112 1    
   219  110  231 1    
   220  111  232 1    
   221  111  233 1    
   222  111  234 1    
   223  112  113 2    
   224  112  114 am   BACKBONE|DICT|INTERRES
   225  114  115 1    
   226  114  235 1    
   227  115  116 1    
   228  115  117 1    
   229  115  236 1    
   230  116  237 1    
   231  116  238 1    
   232  116  239 1    
   233  117  118 2    
   234  117  119 am   BACKBONE|DICT|INTERRES
   235  119  120 1    
   236  119  240 1    
   237  120  121 1    
   238  120  124 1    
   239  120  241 1    
   240  121  122 am   BACKBONE|DICT|INTERRES
   241  121  123 2    
   242  122  242 1    
   243  122  243 1    
   244  124  125 1    
   245  124  244 1    
   246  124  245 1    
   247  125  126 1    
   248  126  246 1    
   249  126  247 1    
@<TRIPOS>SUBSTRUCTURE
     1 UNK         1 GROUP             0       ****    0 ROOT    
