@<TRIPOS>MOLECULE
3R540
247   249    1
SMALL
USER_CHARGES


@<TRIPOS>ATOM
      1 CA          0.7968   -9.7190  -50.2127 C.3       0 UNK        -0.1800 
      2 C           0.2533  -10.2172  -48.8811 C.2       0 UNK         0.5000 
      3 O          -0.2413   -9.4174  -48.0870 O.2       0 UNK        -0.5000 
      4 N           0.3535  -11.5319  -48.6365 N.am      1 UNK        -0.5000 
      5 CA         -0.1242  -12.2382  -47.4357 C.3       1 UNK         0.1400 
      6 C6         -1.6682  -12.1971  -47.2608 C.3       23 UNK        -0.0398 
      7 S7         -2.5213  -13.0491  -48.6287 S.3       23 UNK        -0.2404 
      8 C8         -2.6304  -14.7197  -47.9192 C.3       23 UNK        -0.0205 
      9 C9         -2.9420  -15.7644  -48.9771 C.ar      23 UNK        -0.0193 
     10 C10        -1.9457  -16.1799  -49.8640 C.ar      23 UNK        -0.1150 
     11 C11        -2.1897  -17.1832  -50.8057 C.ar      23 UNK        -0.0193 
     12 C12        -3.4691  -17.7561  -50.8642 C.ar      23 UNK        -0.1150 
     13 C13        -4.4804  -17.3371  -49.9921 C.ar      23 UNK        -0.0193 
     14 C14        -4.2095  -16.3434  -49.0487 C.ar      23 UNK        -0.1150 
     15 C15        -5.8755  -17.9376  -50.0818 C.3       23 UNK        -0.0205 
     16 S16        -5.9145  -19.7038  -49.6498 S.3       23 UNK        -0.2404 
     17 C17        -5.5736  -19.7030  -47.8548 C.3       23 UNK        -0.0398 
     18 CA         -4.6953  -20.9200  -47.4822 C.3       11 UNK         0.1400 
     19 N          -3.3410  -20.8156  -48.0351 N.am      11 UNK        -0.5000 
     20 C          -2.5291  -21.8590  -48.2343 C.2       10 UNK         0.5000 
     21 O          -2.8273  -23.0177  -47.9421 O.2       10 UNK        -0.5000 
     22 CA         -1.1432  -21.5564  -48.8290 C.3       10 UNK         0.1400 
     23 CB         -1.2567  -21.4642  -50.3572 C.3       10 UNK        -0.1800 
     24 N          -0.4945  -20.3415  -48.3174 N.am      10 UNK        -0.5000 
     25 C          -0.2942  -20.0357  -47.0273 C.2       9 UNK         0.5000 
     26 O          -0.7526  -20.6908  -46.0891 O.2       9 UNK        -0.5000 
     27 CA          0.5263  -18.7652  -46.7407 C.3       9 UNK         0.1400 
     28 CB         -0.3617  -17.5207  -46.8445 C.3       9 UNK        -0.1800 
     29 N           1.1243  -18.8073  -45.4077 N.am      9 UNK        -0.5000 
     30 C           2.2060  -19.5297  -45.0843 C.2       8 UNK         0.5000 
     31 O           2.8598  -20.1710  -45.9082 O.2       8 UNK        -0.5000 
     32 CA          2.6404  -19.5459  -43.6050 C.3       8 UNK         0.1400 
     33 CB          4.0952  -19.0758  -43.4415 C.3       8 UNK        -0.1800 
     34 N           1.7700  -18.7227  -42.7619 N.am      8 UNK        -0.5000 
     35 C           0.7972  -19.2051  -41.9756 C.2       7 UNK         0.5000 
     36 O           0.5546  -20.4054  -41.8491 O.2       7 UNK        -0.5000 
     37 CA         -0.0602  -18.1855  -41.2000 C.3       7 UNK         0.1400 
     38 CB          0.4288  -18.0660  -39.7495 C.3       7 UNK        -0.1800 
     39 N          -0.0961  -16.8584  -41.8224 N.am      7 UNK        -0.5000 
     40 C          -0.7639  -16.5887  -42.9539 C.2       6 UNK         0.5000 
     41 O          -1.3987  -17.4436  -43.5691 O.2       6 UNK        -0.5000 
     42 CA         -0.6933  -15.1656  -43.5403 C.3       6 UNK         0.1400 
     43 CB         -2.0939  -14.6031  -43.8566 C.3       6 UNK        -0.1800 
     44 N           0.1177  -14.2265  -42.7613 N.am      6 UNK        -0.5000 
     45 C          -0.1807  -13.5841  -41.6240 C.2       5 UNK         0.5000 
     46 O          -1.2528  -13.6878  -41.0266 O.2       5 UNK        -0.5000 
     47 CA          0.9528  -12.6969  -41.0599 C.3       5 UNK         0.1400 
     48 CB          0.6819  -12.1982  -39.6252 C.3       5 UNK        -0.1800 
     49 N           2.2660  -13.3506  -41.1511 N.am      5 UNK        -0.5000 
     50 C           2.6146  -14.5227  -40.5958 C.2       4 UNK         0.5000 
     51 O           1.8784  -15.1679  -39.8500 O.2       4 UNK        -0.5000 
     52 CA          3.9938  -15.0886  -40.9998 C.3       4 UNK         0.1400 
     53 CB          4.1643  -16.5777  -40.6377 C.3       4 UNK        -0.1800 
     54 N           4.2979  -14.8658  -42.4181 N.am      4 UNK        -0.5000 
     55 C           3.5656  -15.2445  -43.4755 C.2       3 UNK         0.5000 
     56 O           2.5401  -15.9251  -43.3995 O.2       3 UNK        -0.5000 
     57 CA          4.0388  -14.7223  -44.8455 C.3       3 UNK         0.1400 
     58 CB          3.7394  -15.7372  -45.9640 C.3       3 UNK        -0.1800 
     59 N           3.4376  -13.4371  -45.2190 N.am      3 UNK        -0.5000 
     60 C           3.4225  -12.2892  -44.5211 C.2       2 UNK         0.5000 
     61 O           3.8738  -12.1614  -43.3828 O.2       2 UNK        -0.5000 
     62 CA          2.8058  -11.0594  -45.2165 C.3       2 UNK         0.1400 
     63 CB          3.9118  -10.1426  -45.7606 C.3       2 UNK        -0.1800 
     64 N           1.9038  -11.4127  -46.3141 N.am      2 UNK        -0.5000 
     65 C           0.6450  -11.8429  -46.1525 C.2       1 UNK         0.5000 
     66 O           0.1154  -11.9628  -45.0477 O.2       1 UNK        -0.5000 
     67 C          -4.7266  -21.2491  -45.9726 C.2       11 UNK         0.5000 
     68 O          -5.7911  -21.6120  -45.4707 O.2       11 UNK        -0.5000 
     69 N          -3.5779  -21.1680  -45.2875 N.am      12 UNK        -0.5000 
     70 CA         -3.4048  -21.5982  -43.9028 C.3       12 UNK         0.1400 
     71 CB         -2.7570  -20.4621  -43.0956 C.3       12 UNK        -0.1800 
     72 C          -2.5484  -22.8733  -43.8382 C.2       12 UNK         0.5000 
     73 O          -2.9846  -23.8724  -43.2665 O.2       12 UNK        -0.5000 
     74 N          -1.3440  -22.8177  -44.4205 N.am      13 UNK        -0.5000 
     75 CA         -0.2995  -23.8315  -44.2778 C.3       13 UNK         0.1400 
     76 CB          1.0526  -23.2054  -44.6471 C.3       13 UNK        -0.1800 
     77 C          -0.5406  -25.1038  -45.1052 C.2       13 UNK         0.5000 
     78 O          -0.1604  -26.1875  -44.6603 O.2       13 UNK        -0.5000 
     79 N          -1.1577  -24.9566  -46.2840 N.am      14 UNK        -0.5000 
     80 CA         -1.4593  -26.0544  -47.2070 C.3       14 UNK         0.1400 
     81 CB         -0.8900  -25.7140  -48.5973 C.3       14 UNK        -0.1800 
     82 C          -2.9703  -26.3388  -47.2754 C.2       14 UNK         0.5000 
     83 O          -3.4013  -27.0780  -48.1598 O.2       14 UNK        -0.5000 
     84 N          -3.7579  -25.7221  -46.3790 N.am      15 UNK        -0.5000 
     85 CA         -5.2218  -25.8042  -46.2821 C.3       15 UNK         0.1400 
     86 CB         -5.6438  -27.1942  -45.7637 C.3       15 UNK        -0.1800 
     87 C          -5.9474  -25.4098  -47.5895 C.2       15 UNK         0.5000 
     88 O          -7.0086  -25.9543  -47.8974 O.2       15 UNK        -0.5000 
     89 N          -5.3361  -24.4819  -48.3402 N.am      16 UNK        -0.5000 
     90 CA         -5.7439  -23.9682  -49.6493 C.3       16 UNK         0.1400 
     91 CB         -7.1490  -23.3312  -49.6036 C.3       16 UNK        -0.1800 
     92 C          -5.5858  -24.9706  -50.8110 C.2       16 UNK         0.5000 
     93 O          -6.0734  -24.6907  -51.9059 O.2       16 UNK        -0.5000 
     94 N          -4.8668  -26.0859  -50.6066 N.am      17 UNK        -0.5000 
     95 CA         -4.5592  -27.0527  -51.6681 C.3       17 UNK         0.1400 
     96 CB         -4.0151  -28.3485  -51.0495 C.3       17 UNK        -0.1800 
     97 C          -3.5660  -26.4946  -52.7069 C.2       17 UNK         0.5000 
     98 O          -3.6554  -26.8394  -53.8853 O.2       17 UNK        -0.5000 
     99 N          -2.6556  -25.6240  -52.2503 N.am      18 UNK        -0.5000 
    100 CA        -1.6451  -24.9511  -53.0691 C.3       18 UNK         0.1400 
    101 CB        -0.3471  -24.8439  -52.2506 C.3       18 UNK        -0.1800 
    102 C         -2.0997  -23.5629  -53.5657 C.2       18 UNK         0.5000 
    103 O         -1.3304  -22.8934  -54.2559 O.2       18 UNK        -0.5000 
    104 N         -3.3280  -23.1406  -53.2215 N.am      19 UNK        -0.5000 
    105 CA        -3.8706  -21.8055  -53.5063 C.3       19 UNK         0.1400 
    106 CB        -5.2107  -21.6234  -52.7830 C.3       19 UNK        -0.1800 
    107 C         -4.0181  -21.4712  -55.0033 C.2       19 UNK         0.5000 
    108 O         -4.0977  -20.2945  -55.3518 O.2       19 UNK        -0.5000 
    109 N         -4.0093  -22.4941  -55.8685 N.am      20 UNK        -0.5000 
    110 CA        -3.9898  -22.3609  -57.3267 C.3       20 UNK         0.1400 
    111 CB        -4.1456  -23.7550  -57.9530 C.3       20 UNK        -0.1800 
    112 C         -2.7243  -21.6625  -57.8708 C.2       20 UNK         0.5000 
    113 O         -2.7747  -21.0967  -58.9636 O.2       20 UNK        -0.5000 
    114 N         -1.6212  -21.7034  -57.1086 N.am      21 UNK        -0.5000 
    115 CA        -0.3655  -21.0265  -57.4355 C.3       21 UNK         0.1400 
    116 CB         0.7889  -21.7739  -56.7489 C.3       21 UNK        -0.1800 
    117 C         -0.3555  -19.5379  -57.0304 C.2       21 UNK         0.5000 
    118 O          0.5105  -18.7976  -57.4996 O.2       21 UNK        -0.5000 
    119 N         -1.2814  -19.1265  -56.1552 N.am      22 UNK        -0.5000 
    120 CA        -1.3881  -17.7596  -55.6234 C.3       22 UNK         0.1400 
    121 C         -1.9990  -16.7681  -56.6511 C.2       22 UNK         0.5000 
    122 N         -1.6038  -15.5028  -56.6075 N.am      22 UNK        -0.7600 
    123 O         -2.8524  -17.1201  -57.4627 O.2       22 UNK        -0.5000 
    124 C124       -2.1761  -17.7260  -54.2888 C.3       23 UNK        -0.0398 
    125 S125       -1.4202  -18.8058  -53.0245 S.3       23 UNK        -0.2404 
    126 C126       -1.0232  -17.6209  -51.6959 C.3       23 UNK        -0.0205 
    127 H127        0.0028   -9.2401  -50.7857 H         1 UNK         0.0600 
    128 H128        1.2068  -10.5310  -50.8138 H         1 UNK         0.0600 
    129 H129        1.5871   -8.9872  -50.0453 H         1 UNK         0.0600 
    130 H130        0.7650  -12.1245  -49.3442 H         1 UNK         0.3000 
    131 H131        0.1501  -13.2826  -47.5914 H         1 UNK         0.0600 
    132 H132       -2.0282  -11.1693  -47.2062 H         1 UNK         0.0800 
    133 H133       -1.9779  -12.6670  -46.3276 H         1 UNK         0.0800 
    134 H134       -3.3874  -14.7268  -47.1334 H         1 UNK         0.0800 
    135 H135       -1.6868  -14.9765  -47.4371 H         1 UNK         0.0800 
    136 H136       -0.9635  -15.7321  -49.8020 H         1 UNK         0.1150 
    137 H137       -3.6942  -18.5347  -51.5779 H         1 UNK         0.1150 
    138 H138       -4.9850  -16.0209  -48.3680 H         1 UNK         0.1150 
    139 H139       -6.5783  -17.3988  -49.4444 H         1 UNK         0.0800 
    140 H140       -6.2405  -17.8216  -51.1031 H         1 UNK         0.0800 
    141 H141       -6.5358  -19.7382  -47.3408 H         1 UNK         0.0800 
    142 H142       -5.0929  -18.7719  -47.5522 H         1 UNK         0.0800 
    143 H143       -5.1619  -21.7867  -47.9463 H         1 UNK         0.0600 
    144 H144       -3.0277  -19.8936  -48.3014 H         1 UNK         0.3000 
    145 H145       -0.4945  -22.3990  -48.5819 H         1 UNK         0.0600 
    146 H146       -0.2765  -21.3986  -50.8297 H         1 UNK         0.0600 
    147 H147       -1.7584  -22.3409  -50.7663 H         1 UNK         0.0600 
    148 H148       -1.8371  -20.5926  -50.6609 H         1 UNK         0.0600 
    149 H149       -0.1000  -19.7320  -49.0182 H         1 UNK         0.3000 
    150 H150        1.3246  -18.6871  -47.4818 H         1 UNK         0.0600 
    151 H151       -0.7489  -17.4216  -47.8553 H         1 UNK         0.0600 
    152 H152        0.1955  -16.6121  -46.6172 H         1 UNK         0.0600 
    153 H153       -1.2193  -17.5733  -46.1737 H         1 UNK         0.0600 
    154 H154        0.5948  -18.3770  -44.6630 H         1 UNK         0.3000 
    155 H155        2.6043  -20.5859  -43.2778 H         1 UNK         0.0600 
    156 H156        4.2303  -18.0477  -43.7704 H         1 UNK         0.0600 
    157 H157        4.7765  -19.6968  -44.0243 H         1 UNK         0.0600 
    158 H158        4.4137  -19.1401  -42.4012 H         1 UNK         0.0600 
    159 H159        1.9021  -17.7171  -42.8310 H         1 UNK         0.3000 
    160 H160       -1.0817  -18.5711  -41.1742 H         1 UNK         0.0600 
    161 H161        1.4767  -17.7713  -39.6999 H         1 UNK         0.0600 
    162 H162        0.3361  -19.0203  -39.2297 H         1 UNK         0.0600 
    163 H163       -0.1545  -17.3329  -39.1921 H         1 UNK         0.0600 
    164 H164        0.4305  -16.1226  -41.3690 H         1 UNK         0.3000 
    165 H165       -0.1663  -15.2651  -44.4900 H         1 UNK         0.0600 
    166 H166       -2.7502  -14.6388  -42.9868 H         1 UNK         0.0600 
    167 H167       -2.0407  -13.5681  -44.1908 H         1 UNK         0.0600 
    168 H168       -2.5744  -15.1804  -44.6471 H         1 UNK         0.0600 
    169 H169        1.0562  -14.1094  -43.1162 H         1 UNK         0.3000 
    170 H170        1.0020  -11.8210  -41.7087 H         1 UNK         0.0600 
    171 H171       -0.2312  -11.6031  -39.5859 H         1 UNK         0.0600 
    172 H172        0.5633  -13.0232  -38.9223 H         1 UNK         0.0600 
    173 H173        1.4953  -11.5670  -39.2676 H         1 UNK         0.0600 
    174 H174        2.9328  -12.9096  -41.7785 H         1 UNK         0.3000 
    175 H175        4.7329  -14.5228  -40.4311 H         1 UNK         0.0600 
    176 H176        3.4152  -17.1987  -41.1255 H         1 UNK         0.0600 
    177 H177        5.1473  -16.9456  -40.9311 H         1 UNK         0.0600 
    178 H178        4.0671  -16.7331  -39.5627 H         1 UNK         0.0600 
    179 H179        5.0819  -14.2519  -42.5934 H         1 UNK         0.3000 
    180 H180        5.1205  -14.5824  -44.8009 H         1 UNK         0.0600 
    181 H181        2.6675  -15.8944  -46.0929 H         1 UNK         0.0600 
    182 H182        4.1875  -16.7069  -45.7464 H         1 UNK         0.0600 
    183 H183        4.1456  -15.4042  -46.9191 H         1 UNK         0.0600 
    184 H184        3.0234  -13.4091  -46.1380 H         1 UNK         0.3000 
    185 H185        2.2438  -10.5029  -44.4632 H         1 UNK         0.0600 
    186 H186        4.5104  -10.6412  -46.5241 H         1 UNK         0.0600 
    187 H187        3.4923   -9.2375  -46.2004 H         1 UNK         0.0600 
    188 H188        4.5889   -9.8312  -44.9640 H         1 UNK         0.0600 
    189 H189        2.2649  -11.3202  -47.2526 H         1 UNK         0.3000 
    190 H190       -2.7328  -20.8916  -45.7756 H         1 UNK         0.3000 
    191 H191       -4.3678  -21.8247  -43.4407 H         1 UNK         0.0600 
    192 H192       -2.5802  -20.7638  -42.0626 H         1 UNK         0.0600 
    193 H193       -3.3974  -19.5803  -43.0737 H         1 UNK         0.0600 
    194 H194       -1.7977  -20.1618  -43.5183 H         1 UNK         0.0600 
    195 H195       -1.0769  -21.9692  -44.9175 H         1 UNK         0.3000 
    196 H196       -0.2558  -24.1268  -43.2271 H         1 UNK         0.0600 
    197 H197        1.0680  -22.8542  -45.6798 H         1 UNK         0.0600 
    198 H198        1.2727  -22.3570  -44.0013 H         1 UNK         0.0600 
    199 H199        1.8653  -23.9233  -44.5297 H         1 UNK         0.0600 
    200 H200       -1.4765  -24.0383  -46.5679 H         1 UNK         0.3000 
    201 H201       -0.9853  -26.9795  -46.8741 H         1 UNK         0.0600 
    202 H202       -1.3917  -24.8582  -49.0463 H         1 UNK         0.0600 
    203 H203       -1.0039  -26.5540  -49.2838 H         1 UNK         0.0600 
    204 H204        0.1746  -25.4866  -48.5422 H         1 UNK         0.0600 
    205 H205       -3.3059  -25.1296  -45.6970 H         1 UNK         0.3000 
    206 H206       -5.5209  -25.0658  -45.5366 H         1 UNK         0.0600 
    207 H207       -5.1302  -27.4403  -44.8343 H         1 UNK         0.0600 
    208 H208       -6.7145  -27.2293  -45.5594 H         1 UNK         0.0600 
    209 H209       -5.4222  -27.9792  -46.4875 H         1 UNK         0.0600 
    210 H210       -4.4445  -24.1248  -48.0070 H         1 UNK         0.3000 
    211 H211       -5.0356  -23.1693  -49.8673 H         1 UNK         0.0600 
    212 H212       -7.3456  -22.7578  -50.5103 H         1 UNK         0.0600 
    213 H213       -7.2516  -22.6459  -48.7626 H         1 UNK         0.0600 
    214 H214       -7.9336  -24.0833  -49.5206 H         1 UNK         0.0600 
    215 H215       -4.4941  -26.2874  -49.6839 H         1 UNK         0.3000 
    216 H216       -5.4883  -27.2928  -52.1895 H         1 UNK         0.0600 
    217 H217       -3.0517  -28.1903  -50.5636 H         1 UNK         0.0600 
    218 H218       -3.8730  -29.1140  -51.8132 H         1 UNK         0.0600 
    219 H219       -4.7035  -28.7524  -50.3068 H         1 UNK         0.0600 
    220 H220       -2.6600  -25.4058  -51.2652 H         1 UNK         0.3000 
    221 H221       -1.4305  -25.5509  -53.9559 H         1 UNK         0.0600 
    222 H222        0.0090  -25.8292  -51.9494 H         1 UNK         0.0600 
    223 H223       -0.4820  -24.2490  -51.3480 H         1 UNK         0.0600 
    224 H224        0.4490  -24.3787  -52.8334 H         1 UNK         0.0600 
    225 H225       -3.9306  -23.7727  -52.7146 H         1 UNK         0.3000 
    226 H226       -3.1704  -21.0829  -53.0871 H         1 UNK         0.0600 
    227 H227       -5.9651  -22.3205  -53.1485 H         1 UNK         0.0600 
    228 H228       -5.1000  -21.7701  -51.7106 H         1 UNK         0.0600 
    229 H229       -5.5994  -20.6144  -52.9277 H         1 UNK         0.0600 
    230 H230       -3.9434  -23.4302  -55.4969 H         1 UNK         0.3000 
    231 H231       -4.8493  -21.7541  -57.6188 H         1 UNK         0.0600 
    232 H232       -3.3229  -24.4148  -57.6744 H         1 UNK         0.0600 
    233 H233       -4.1640  -23.6947  -59.0420 H         1 UNK         0.0600 
    234 H234       -5.0768  -24.2273  -57.6396 H         1 UNK         0.0600 
    235 H235       -1.6538  -22.1798  -56.2133 H         1 UNK         0.3000 
    236 H236       -0.2034  -21.0756  -58.5143 H         1 UNK         0.0600 
    237 H237        0.8110  -22.8235  -57.0421 H         1 UNK         0.0600 
    238 H238        1.7520  -21.3401  -57.0208 H         1 UNK         0.0600 
    239 H239        0.7057  -21.7303  -55.6622 H         1 UNK         0.0600 
    240 H240       -2.0032  -19.7703  -55.8604 H         1 UNK         0.3000 
    241 H241       -0.3734  -17.4176  -55.4087 H         1 UNK         0.0600 
    242 H242       -2.0010  -14.8443  -57.2600 H         1 UNK         0.3800 
    243 H243       -0.9074  -15.1858  -55.9506 H         1 UNK         0.3800 
    244 H244       -3.2095  -18.0394  -54.4397 H         1 UNK         0.0800 
    245 H245       -2.2292  -16.7063  -53.9039 H         1 UNK         0.0800 
    246 H246       -0.5484  -16.7425  -52.1357 H         1 UNK         0.0800 
    247 H247       -0.2707  -18.0846  -51.0573 H         1 UNK         0.0800 
@<TRIPOS>BOND
     1    1    2 1    
     2    1  127 1    
     3    1  128 1    
     4    1  129 1    
     5    2    3 2    
     6    2    4 am   BACKBONE|DICT|INTERRES
     7    4    5 1    
     8    4  130 1    
     9    5    6 1    
    10    5   65 1    
    11    5  131 1    
    12    6    7 1    
    13    6  132 1    
    14    6  133 1    
    15    7    8 1    
    16    8    9 1    
    17    8  134 1    
    18    8  135 1    
    19    9   10 ar   
    20    9   14 ar   
    21   10   11 ar   
    22   10  136 1    
    23   11   12 ar   
    24   11  126 1    
    25   12   13 ar   
    26   12  137 1    
    27   13   14 ar   
    28   13   15 1    
    29   14  138 1    
    30   15   16 1    
    31   15  139 1    
    32   15  140 1    
    33   16   17 1    
    34   17   18 1    
    35   17  141 1    
    36   17  142 1    
    37   18   19 1    
    38   18   67 1    
    39   18  143 1    
    40   19   20 am   BACKBONE|DICT|INTERRES
    41   19  144 1    
    42   20   21 2    
    43   20   22 1    
    44   22   23 1    
    45   22   24 1    
    46   22  145 1    
    47   23  146 1    
    48   23  147 1    
    49   23  148 1    
    50   24   25 am   BACKBONE|DICT|INTERRES
    51   24  149 1    
    52   25   26 2    
    53   25   27 1    
    54   27   28 1    
    55   27   29 1    
    56   27  150 1    
    57   28  151 1    
    58   28  152 1    
    59   28  153 1    
    60   29   30 am   BACKBONE|DICT|INTERRES
    61   29  154 1    
    62   30   31 2    
    63   30   32 1    
    64   32   33 1    
    65   32   34 1    
    66   32  155 1    
    67   33  156 1    
    68   33  157 1    
    69   33  158 1    
    70   34   35 am   BACKBONE|DICT|INTERRES
    71   34  159 1    
    72   35   36 2    
    73   35   37 1    
    74   37   38 1    
    75   37   39 1    
    76   37  160 1    
    77   38  161 1    
    78   38  162 1    
    79   38  163 1    
    80   39   40 am   BACKBONE|DICT|INTERRES
    81   39  164 1    
    82   40   41 2    
    83   40   42 1    
    84   42   43 1    
    85   42   44 1    
    86   42  165 1    
    87   43  166 1    
    88   43  167 1    
    89   43  168 1    
    90   44   45 am   BACKBONE|DICT|INTERRES
    91   44  169 1    
    92   45   46 2    
    93   45   47 1    
    94   47   48 1    
    95   47   49 1    
    96   47  170 1    
    97   48  171 1    
    98   48  172 1    
    99   48  173 1    
   100   49   50 am   BACKBONE|DICT|INTERRES
   101   49  174 1    
   102   50   51 2    
   103   50   52 1    
   104   52   53 1    
   105   52   54 1    
   106   52  175 1    
   107   53  176 1    
   108   53  177 1    
   109   53  178 1    
   110   54   55 am   BACKBONE|DICT|INTERRES
   111   54  179 1    
   112   55   56 2    
   113   55   57 1    
   114   57   58 1    
   115   57   59 1    
   116   57  180 1    
   117   58  181 1    
   118   58  182 1    
   119   58  183 1    
   120   59   60 am   BACKBONE|DICT|INTERRES
   121   59  184 1    
   122   60   61 2    
   123   60   62 1    
   124   62   63 1    
   125   62   64 1    
   126   62  185 1    
   127   63  186 1    
   128   63  187 1    
   129   63  188 1    
   130   64   65 am   BACKBONE|DICT|INTERRES
   131   64  189 1    
   132   65   66 2    
   133   67   68 2    
   134   67   69 am   BACKBONE|DICT|INTERRES
   135   69   70 1    
   136   69  190 1    
   137   70   71 1    
   138   70   72 1    
   139   70  191 1    
   140   71  192 1    
   141   71  193 1    
   142   71  194 1    
   143   72   73 2    
   144   72   74 am   BACKBONE|DICT|INTERRES
   145   74   75 1    
   146   74  195 1    
   147   75   76 1    
   148   75   77 1    
   149   75  196 1    
   150   76  197 1    
   151   76  198 1    
   152   76  199 1    
   153   77   78 2    
   154   77   79 am   BACKBONE|DICT|INTERRES
   155   79   80 1    
   156   79  200 1    
   157   80   81 1    
   158   80   82 1    
   159   80  201 1    
   160   81  202 1    
   161   81  203 1    
   162   81  204 1    
   163   82   83 2    
   164   82   84 am   BACKBONE|DICT|INTERRES
   165   84   85 1    
   166   84  205 1    
   167   85   86 1    
   168   85   87 1    
   169   85  206 1    
   170   86  207 1    
   171   86  208 1    
   172   86  209 1    
   173   87   88 2    
   174   87   89 am   BACKBONE|DICT|INTERRES
   175   89   90 1    
   176   89  210 1    
   177   90   91 1    
   178   90   92 1    
   179   90  211 1    
   180   91  212 1    
   181   91  213 1    
   182   91  214 1    
   183   92   93 2    
   184   92   94 am   BACKBONE|DICT|INTERRES
   185   94   95 1    
   186   94  215 1    
   187   95   96 1    
   188   95   97 1    
   189   95  216 1    
   190   96  217 1    
   191   96  218 1    
   192   96  219 1    
   193   97   98 2    
   194   97   99 am   BACKBONE|DICT|INTERRES
   195   99  100 1    
   196   99  220 1    
   197  100  101 1    
   198  100  102 1    
   199  100  221 1    
   200  101  222 1    
   201  101  223 1    
   202  101  224 1    
   203  102  103 2    
   204  102  104 am   BACKBONE|DICT|INTERRES
   205  104  105 1    
   206  104  225 1    
   207  105  106 1    
   208  105  107 1    
   209  105  226 1    
   210  106  227 1    
   211  106  228 1    
   212  106  229 1    
   213  107  108 2    
   214  107  109 am   BACKBONE|DICT|INTERRES
   215  109  110 1    
   216  109  230 1    
   217  110  111 1    
   218  110  112 1    
   219  110  231 1    
   220  111  232 1    
   221  111  233 1    
   222  111  234 1    
   223  112  113 2    
   224  112  114 am   BACKBONE|DICT|INTERRES
   225  114  115 1    
   226  114  235 1    
   227  115  116 1    
   228  115  117 1    
   229  115  236 1    
   230  116  237 1    
   231  116  238 1    
   232  116  239 1    
   233  117  118 2    
   234  117  119 am   BACKBONE|DICT|INTERRES
   235  119  120 1    
   236  119  240 1    
   237  120  121 1    
   238  120  124 1    
   239  120  241 1    
   240  121  122 am   BACKBONE|DICT|INTERRES
   241  121  123 2    
   242  122  242 1    
   243  122  243 1    
   244  124  125 1    
   245  124  244 1    
   246  124  245 1    
   247  125  126 1    
   248  126  246 1    
   249  126  247 1    
@<TRIPOS>SUBSTRUCTURE
     1 UNK         1 GROUP             0       ****    0 ROOT    
