@<TRIPOS>MOLECULE
3R540
247   249    1
SMALL
USER_CHARGES


@<TRIPOS>ATOM
      1 CA          6.4320  -10.9798  -47.5178 C.3       0 UNK        -0.1800 
      2 C           6.5848  -12.4941  -47.5228 C.2       0 UNK         0.5000 
      3 O           7.6678  -13.0020  -47.2317 O.2       0 UNK        -0.5000 
      4 N           5.5055  -13.2153  -47.8521 N.am      1 UNK        -0.5000 
      5 CA          5.4561  -14.6837  -47.9052 C.3       1 UNK         0.1400 
      6 C6          4.2012  -15.1917  -48.6531 C.3       23 UNK        -0.0398 
      7 S7          4.1877  -14.6760  -50.4030 S.3       23 UNK        -0.2404 
      8 C8          4.7372  -16.2008  -51.2367 C.3       23 UNK        -0.0205 
      9 C9          3.6945  -17.3060  -51.1494 C.ar      23 UNK        -0.0193 
     10 C10         2.4884  -17.1820  -51.8444 C.ar      23 UNK        -0.1150 
     11 C11         1.5134  -18.1779  -51.7572 C.ar      23 UNK        -0.0193 
     12 C12         1.7589  -19.3121  -50.9779 C.ar      23 UNK        -0.1150 
     13 C13         2.9642  -19.4545  -50.2841 C.ar      23 UNK        -0.0193 
     14 C14         3.9302  -18.4479  -50.3762 C.ar      23 UNK        -0.1150 
     15 C15         3.2341  -20.7125  -49.4682 C.3       23 UNK        -0.0205 
     16 S16         3.3380  -20.4170  -47.6695 S.3       23 UNK        -0.2404 
     17 C17         1.7121  -19.7062  -47.2418 C.3       23 UNK        -0.0398 
     18 CA          0.5889  -20.7666  -47.0668 C.3       11 UNK         0.1400 
     19 N          -0.3102  -20.4657  -45.9461 N.am      11 UNK        -0.5000 
     20 C          -1.3197  -21.2479  -45.5313 C.2       10 UNK         0.5000 
     21 O          -1.5486  -22.3687  -45.9854 O.2       10 UNK        -0.5000 
     22 CA         -2.2799  -20.6529  -44.4834 C.3       10 UNK         0.1400 
     23 CB         -1.7390  -20.8457  -43.0594 C.3       10 UNK        -0.1800 
     24 N          -2.5632  -19.2370  -44.7297 N.am      10 UNK        -0.5000 
     25 C          -3.2062  -18.7791  -45.8142 C.2       9 UNK         0.5000 
     26 O          -3.7013  -19.5130  -46.6688 O.2       9 UNK        -0.5000 
     27 CA         -3.2590  -17.2529  -46.0113 C.3       9 UNK         0.1400 
     28 CB         -4.4261  -16.6388  -45.2250 C.3       9 UNK        -0.1800 
     29 N          -2.0060  -16.5926  -45.6409 N.am      9 UNK        -0.5000 
     30 C          -0.8334  -16.7801  -46.2638 C.2       8 UNK         0.5000 
     31 O          -0.7011  -17.4848  -47.2641 O.2       8 UNK        -0.5000 
     32 CA          0.4093  -16.1282  -45.6260 C.3       8 UNK         0.1400 
     33 CB          0.5479  -14.6575  -46.0440 C.3       8 UNK        -0.1800 
     34 N           0.3988  -16.2316  -44.1654 N.am      8 UNK        -0.5000 
     35 C           0.4927  -17.3886  -43.4944 C.2       7 UNK         0.5000 
     36 O           0.6674  -18.4760  -44.0422 O.2       7 UNK        -0.5000 
     37 CA          0.3000  -17.3337  -41.9682 C.3       7 UNK         0.1400 
     38 CB          1.6122  -17.0139  -41.2387 C.3       7 UNK        -0.1800 
     39 N          -0.7235  -16.3643  -41.5834 N.am      7 UNK        -0.5000 
     40 C          -2.0371  -16.5428  -41.7778 C.2       6 UNK         0.5000 
     41 O          -2.5217  -17.5644  -42.2634 O.2       6 UNK        -0.5000 
     42 CA         -2.9551  -15.3638  -41.4060 C.3       6 UNK         0.1400 
     43 CB         -3.3059  -15.4017  -39.9113 C.3       6 UNK        -0.1800 
     44 N          -2.3598  -14.0663  -41.7318 N.am      6 UNK        -0.5000 
     45 C          -2.1142  -13.6386  -42.9785 C.2       5 UNK         0.5000 
     46 O          -2.4062  -14.2777  -43.9876 O.2       5 UNK        -0.5000 
     47 CA         -1.3708  -12.2979  -43.1202 C.3       5 UNK         0.1400 
     48 CB         -2.3663  -11.1288  -43.1431 C.3       5 UNK        -0.1800 
     49 N          -0.3801  -12.0741  -42.0637 N.am      5 UNK        -0.5000 
     50 C           0.7067  -12.8311  -41.8669 C.2       4 UNK         0.5000 
     51 O           0.9901  -13.8196  -42.5496 O.2       4 UNK        -0.5000 
     52 CA          1.5883  -12.4518  -40.6725 C.3       4 UNK         0.1400 
     53 CB          1.0482  -13.0852  -39.3787 C.3       4 UNK        -0.1800 
     54 N           2.9485  -12.9210  -40.9096 N.am      4 UNK        -0.5000 
     55 C           4.0610  -12.3040  -40.4949 C.2       3 UNK         0.5000 
     56 O           4.0529  -11.2611  -39.8388 O.2       3 UNK        -0.5000 
     57 CA          5.4161  -12.9527  -40.8487 C.3       3 UNK         0.1400 
     58 CB          6.0645  -13.5538  -39.5910 C.3       3 UNK        -0.1800 
     59 N           5.3401  -13.9959  -41.8752 N.am      3 UNK        -0.5000 
     60 C           5.1426  -13.7763  -43.1802 C.2       2 UNK         0.5000 
     61 O           4.9657  -12.6580  -43.6721 O.2       2 UNK        -0.5000 
     62 CA          5.1328  -15.0234  -44.0759 C.3       2 UNK         0.1400 
     63 CB          3.9098  -15.9102  -43.7878 C.3       2 UNK        -0.1800 
     64 N           5.1198  -14.6034  -45.4700 N.am      2 UNK        -0.5000 
     65 C           5.5322  -15.3368  -46.5091 C.2       1 UNK         0.5000 
     66 O           5.9578  -16.4880  -46.4046 O.2       1 UNK        -0.5000 
     67 C          -0.2020  -20.9477  -48.3766 C.2       11 UNK         0.5000 
     68 O          -0.0192  -21.9503  -49.0636 O.2       11 UNK        -0.5000 
     69 N          -1.0945  -19.9938  -48.6779 N.am      12 UNK        -0.5000 
     70 CA         -1.9687  -20.0130  -49.8494 C.3       12 UNK         0.1400 
     71 CB         -2.7403  -18.6880  -49.9415 C.3       12 UNK        -0.1800 
     72 C          -2.9247  -21.2164  -49.8675 C.2       12 UNK         0.5000 
     73 O          -3.0790  -21.8455  -50.9156 O.2       12 UNK        -0.5000 
     74 N          -3.5240  -21.5351  -48.7141 N.am      13 UNK        -0.5000 
     75 CA         -4.3812  -22.7055  -48.5311 C.3       13 UNK         0.1400 
     76 CB         -5.0424  -22.6531  -47.1467 C.3       13 UNK        -0.1800 
     77 C          -3.6210  -24.0290  -48.7310 C.2       13 UNK         0.5000 
     78 O          -4.1367  -24.9273  -49.3947 O.2       13 UNK        -0.5000 
     79 N          -2.3949  -24.1129  -48.1952 N.am      14 UNK        -0.5000 
     80 CA         -1.4933  -25.2532  -48.3643 C.3       14 UNK         0.1400 
     81 CB         -0.3068  -25.1217  -47.3975 C.3       14 UNK        -0.1800 
     82 C          -1.0025  -25.4176  -49.8149 C.2       14 UNK         0.5000 
     83 O          -0.9481  -26.5441  -50.3080 O.2       14 UNK        -0.5000 
     84 N          -0.6780  -24.2971  -50.4753 N.am      15 UNK        -0.5000 
     85 CA         -0.2446  -24.2376  -51.8721 C.3       15 UNK         0.1400 
     86 CB          0.2789  -22.8280  -52.1891 C.3       15 UNK        -0.1800 
     87 C          -1.3495  -24.6514  -52.8606 C.2       15 UNK         0.5000 
     88 O          -1.0645  -25.3688  -53.8202 O.2       15 UNK        -0.5000 
     89 N          -2.5905  -24.2197  -52.5962 N.am      16 UNK        -0.5000 
     90 CA         -3.7794  -24.6477  -53.3364 C.3       16 UNK         0.1400 
     91 CB         -4.9479  -23.7029  -53.0161 C.3       16 UNK        -0.1800 
     92 C          -4.1919  -26.0972  -53.0227 C.2       16 UNK         0.5000 
     93 O          -4.7522  -26.7667  -53.8910 O.2       16 UNK        -0.5000 
     94 N          -3.9496  -26.5234  -51.7739 N.am      17 UNK        -0.5000 
     95 CA         -4.4608  -27.7354  -51.1244 C.3       17 UNK         0.1400 
     96 CB         -3.9069  -29.0090  -51.7957 C.3       17 UNK        -0.1800 
     97 C          -6.0021  -27.7178  -51.0133 C.2       17 UNK         0.5000 
     98 O          -6.6438  -28.7678  -51.0830 O.2       17 UNK        -0.5000 
     99 N          -6.5644  -26.5120  -50.8632 N.am      18 UNK        -0.5000 
    100 CA        -7.9844  -26.1852  -50.9112 C.3       18 UNK         0.1400 
    101 CB        -8.5424  -26.4450  -52.3278 C.3       18 UNK        -0.1800 
    102 C         -8.1557  -24.7044  -50.5362 C.2       18 UNK         0.5000 
    103 O         -7.1695  -23.9735  -50.4213 O.2       18 UNK        -0.5000 
    104 N         -9.4136  -24.2676  -50.4057 N.am      19 UNK        -0.5000 
    105 CA        -9.8028  -22.8833  -50.1116 C.3       19 UNK         0.1400 
    106 CB       -11.2635  -22.8827  -49.6304 C.3       19 UNK        -0.1800 
    107 C         -9.6126  -21.8984  -51.2897 C.2       19 UNK         0.5000 
    108 O         -9.8951  -20.7106  -51.1287 O.2       19 UNK        -0.5000 
    109 N         -9.1550  -22.3948  -52.4494 N.am      20 UNK        -0.5000 
    110 CA        -8.9296  -21.6350  -53.6833 C.3       20 UNK         0.1400 
    111 CB        -8.6044  -22.6183  -54.8187 C.3       20 UNK        -0.1800 
    112 C         -7.8399  -20.5460  -53.5804 C.2       20 UNK         0.5000 
    113 O         -7.8979  -19.5827  -54.3444 O.2       20 UNK        -0.5000 
    114 N         -6.9060  -20.7115  -52.6302 N.am      21 UNK        -0.5000 
    115 CA        -5.8137  -19.8056  -52.2619 C.3       21 UNK         0.1400 
    116 CB        -6.3558  -18.4545  -51.7528 C.3       21 UNK        -0.1800 
    117 C         -4.7592  -19.6289  -53.3755 C.2       21 UNK         0.5000 
    118 O         -4.9393  -18.8264  -54.2931 O.2       21 UNK        -0.5000 
    119 N         -3.6486  -20.3598  -53.2316 N.am      22 UNK        -0.5000 
    120 CA        -2.4811  -20.3912  -54.1231 C.3       22 UNK         0.1400 
    121 C         -2.7357  -21.0727  -55.5019 C.2       22 UNK         0.5000 
    122 N         -1.7460  -21.0859  -56.3850 N.am      22 UNK        -0.7600 
    123 O         -3.7995  -21.6230  -55.7755 O.2       22 UNK        -0.5000 
    124 C124       -1.7671  -19.0074  -54.2322 C.3       23 UNK        -0.0398 
    125 S125        0.0250  -19.1313  -53.9009 S.3       23 UNK        -0.2404 
    126 C126        0.1825  -18.0136  -52.4731 C.3       23 UNK        -0.0205 
    127 H127        7.1472  -10.5278  -48.2051 H         1 UNK         0.0600 
    128 H128        6.6222  -10.5878  -46.5186 H         1 UNK         0.0600 
    129 H129        5.4303  -10.6720  -47.8188 H         1 UNK         0.0600 
    130 H130        4.6513  -12.7401  -48.1067 H         1 UNK         0.3000 
    131 H131        6.3356  -15.0254  -48.4557 H         1 UNK         0.0600 
    132 H132        4.1320  -16.2789  -48.5983 H         1 UNK         0.0800 
    133 H133        3.2937  -14.8139  -48.1787 H         1 UNK         0.0800 
    134 H134        4.9325  -15.9782  -52.2866 H         1 UNK         0.0800 
    135 H135        5.6881  -16.5243  -50.8103 H         1 UNK         0.0800 
    136 H136        2.3050  -16.2980  -52.4393 H         1 UNK         0.1150 
    137 H137        1.0119  -20.0895  -50.9218 H         1 UNK         0.1150 
    138 H138        4.8632  -18.5553  -49.8407 H         1 UNK         0.1150 
    139 H139        2.4813  -21.4751  -49.6665 H         1 UNK         0.0800 
    140 H140        4.1803  -21.1427  -49.7991 H         1 UNK         0.0800 
    141 H141        1.4503  -18.9249  -47.9576 H         1 UNK         0.0800 
    142 H142        1.8692  -19.1795  -46.3006 H         1 UNK         0.0800 
    143 H143        1.0488  -21.7280  -46.8288 H         1 UNK         0.0600 
    144 H144       -0.1575  -19.5853  -45.4648 H         1 UNK         0.3000 
    145 H145       -3.2249  -21.1950  -44.5567 H         1 UNK         0.0600 
    146 H146       -2.4342  -20.4537  -42.3168 H         1 UNK         0.0600 
    147 H147       -1.5921  -21.9041  -42.8412 H         1 UNK         0.0600 
    148 H148       -0.7809  -20.3483  -42.9164 H         1 UNK         0.0600 
    149 H149       -2.2456  -18.5752  -44.0301 H         1 UNK         0.3000 
    150 H150       -3.4315  -17.0636  -47.0727 H         1 UNK         0.0600 
    151 H151       -5.3732  -17.0981  -45.5108 H         1 UNK         0.0600 
    152 H152       -4.5116  -15.5694  -45.4184 H         1 UNK         0.0600 
    153 H153       -4.3060  -16.7755  -44.1506 H         1 UNK         0.0600 
    154 H154       -2.0497  -15.9350  -44.8673 H         1 UNK         0.3000 
    155 H155        1.2887  -16.6623  -45.9918 H         1 UNK         0.0600 
    156 H156        0.6238  -14.5679  -47.1283 H         1 UNK         0.0600 
    157 H157        1.4442  -14.2079  -45.6158 H         1 UNK         0.0600 
    158 H158       -0.3092  -14.0648  -45.7257 H         1 UNK         0.0600 
    159 H159        0.3157  -15.3675  -43.6402 H         1 UNK         0.3000 
    160 H160       -0.0265  -18.3237  -41.6428 H         1 UNK         0.0600 
    161 H161        1.9766  -16.0152  -41.4750 H         1 UNK         0.0600 
    162 H162        2.3916  -17.7267  -41.5104 H         1 UNK         0.0600 
    163 H163        1.4835  -17.0723  -40.1579 H         1 UNK         0.0600 
    164 H164       -0.4001  -15.4771  -41.2287 H         1 UNK         0.3000 
    165 H165       -3.8798  -15.4677  -41.9776 H         1 UNK         0.0600 
    166 H166       -4.0148  -14.6149  -39.6528 H         1 UNK         0.0600 
    167 H167       -3.7666  -16.3535  -39.6432 H         1 UNK         0.0600 
    168 H168       -2.4216  -15.2768  -39.2850 H         1 UNK         0.0600 
    169 H169       -2.0935  -13.4761  -40.9579 H         1 UNK         0.3000 
    170 H170       -0.8419  -12.3132  -44.0752 H         1 UNK         0.0600 
    171 H171       -3.1043  -11.2605  -43.9357 H         1 UNK         0.0600 
    172 H172       -2.9086  -11.0414  -42.2007 H         1 UNK         0.0600 
    173 H173       -1.8588  -10.1820  -43.3282 H         1 UNK         0.0600 
    174 H174       -0.5464  -11.2868  -41.4532 H         1 UNK         0.3000 
    175 H175        1.5809  -11.3637  -40.5780 H         1 UNK         0.0600 
    176 H176        1.0418  -14.1745  -39.4365 H         1 UNK         0.0600 
    177 H177        1.6556  -12.8012  -38.5191 H         1 UNK         0.0600 
    178 H178        0.0278  -12.7589  -39.1747 H         1 UNK         0.0600 
    179 H179        3.0214  -13.7346  -41.5048 H         1 UNK         0.3000 
    180 H180        6.0664  -12.1570  -41.2184 H         1 UNK         0.0600 
    181 H181        5.4632  -14.3643  -39.1772 H         1 UNK         0.0600 
    182 H182        6.1806  -12.8004  -38.8107 H         1 UNK         0.0600 
    183 H183        7.0576  -13.9477  -39.8081 H         1 UNK         0.0600 
    184 H184        5.4714  -14.9441  -41.5535 H         1 UNK         0.3000 
    185 H185        6.0486  -15.5859  -43.8818 H         1 UNK         0.0600 
    186 H186        3.9694  -16.3350  -42.7868 H         1 UNK         0.0600 
    187 H187        2.9845  -15.3387  -43.8556 H         1 UNK         0.0600 
    188 H188        3.8394  -16.7456  -44.4845 H         1 UNK         0.0600 
    189 H189        4.8491  -13.6381  -45.6119 H         1 UNK         0.3000 
    190 H190       -1.1529  -19.1769  -48.0756 H         1 UNK         0.3000 
    191 H191       -1.3314  -20.1000  -50.7294 H         1 UNK         0.0600 
    192 H192       -2.0724  -17.8312  -49.8503 H         1 UNK         0.0600 
    193 H193       -3.2474  -18.6004  -50.9013 H         1 UNK         0.0600 
    194 H194       -3.4965  -18.6010  -49.1616 H         1 UNK         0.0600 
    195 H195       -3.3948  -20.9272  -47.9093 H         1 UNK         0.3000 
    196 H196       -5.1687  -22.6575  -49.2851 H         1 UNK         0.0600 
    197 H197       -5.7177  -23.4981  -47.0064 H         1 UNK         0.0600 
    198 H198       -5.6297  -21.7427  -47.0256 H         1 UNK         0.0600 
    199 H199       -4.3037  -22.6837  -46.3455 H         1 UNK         0.0600 
    200 H200       -2.0526  -23.3438  -47.6264 H         1 UNK         0.3000 
    201 H201       -2.0456  -26.1570  -48.0983 H         1 UNK         0.0600 
    202 H202       -0.6455  -25.0873  -46.3620 H         1 UNK         0.0600 
    203 H203        0.2722  -24.2178  -47.5886 H         1 UNK         0.0600 
    204 H204        0.3700  -25.9718  -47.4910 H         1 UNK         0.0600 
    205 H205       -0.6755  -23.4171  -49.9639 H         1 UNK         0.3000 
    206 H206        0.5832  -24.9392  -51.9946 H         1 UNK         0.0600 
    207 H207        1.1691  -22.6010  -51.6028 H         1 UNK         0.0600 
    208 H208        0.5498  -22.7319  -53.2413 H         1 UNK         0.0600 
    209 H209       -0.4656  -22.0644  -51.9678 H         1 UNK         0.0600 
    210 H210       -2.7356  -23.5890  -51.8141 H         1 UNK         0.3000 
    211 H211       -3.5725  -24.5853  -54.4070 H         1 UNK         0.0600 
    212 H212       -5.0486  -23.5350  -51.9439 H         1 UNK         0.0600 
    213 H213       -5.8953  -24.1063  -53.3746 H         1 UNK         0.0600 
    214 H214       -4.8132  -22.7388  -53.4990 H         1 UNK         0.0600 
    215 H215       -3.5344  -25.8581  -51.1319 H         1 UNK         0.3000 
    216 H216       -4.0819  -27.7115  -50.1018 H         1 UNK         0.0600 
    217 H217       -4.1623  -29.8966  -51.2161 H         1 UNK         0.0600 
    218 H218       -2.8199  -28.9719  -51.8700 H         1 UNK         0.0600 
    219 H219       -4.3086  -29.1491  -52.7993 H         1 UNK         0.0600 
    220 H220       -5.9649  -25.7041  -50.7266 H         1 UNK         0.3000 
    221 H221       -8.5157  -26.7952  -50.1785 H         1 UNK         0.0600 
    222 H222       -8.0046  -25.8674  -53.0811 H         1 UNK         0.0600 
    223 H223       -8.4673  -27.4967  -52.6032 H         1 UNK         0.0600 
    224 H224       -9.5974  -26.1789  -52.3995 H         1 UNK         0.0600 
    225 H225      -10.1723  -24.9227  -50.5300 H         1 UNK         0.3000 
    226 H226       -9.1772  -22.5210  -49.2931 H         1 UNK         0.0600 
    227 H227      -11.3923  -23.5244  -48.7586 H         1 UNK         0.0600 
    228 H228      -11.5835  -21.8808  -49.3411 H         1 UNK         0.0600 
    229 H229      -11.9428  -23.2320  -50.4090 H         1 UNK         0.0600 
    230 H230       -8.9552  -23.3823  -52.4870 H         1 UNK         0.3000 
    231 H231       -9.8658  -21.1301  -53.9308 H         1 UNK         0.0600 
    232 H232       -7.6864  -23.1719  -54.6226 H         1 UNK         0.0600 
    233 H233       -8.4721  -22.0919  -55.7649 H         1 UNK         0.0600 
    234 H234       -9.4092  -23.3399  -54.9603 H         1 UNK         0.0600 
    235 H235       -6.9669  -21.5570  -52.0802 H         1 UNK         0.3000 
    236 H236       -5.3228  -20.2795  -51.4114 H         1 UNK         0.0600 
    237 H237       -7.0495  -18.5969  -50.9241 H         1 UNK         0.0600 
    238 H238       -5.5454  -17.8197  -51.3937 H         1 UNK         0.0600 
    239 H239       -6.8774  -17.9005  -52.5335 H         1 UNK         0.0600 
    240 H240       -3.5883  -21.0031  -52.4462 H         1 UNK         0.3000 
    241 H241       -1.8160  -21.0870  -53.6130 H         1 UNK         0.0600 
    242 H242       -1.8911  -21.5345  -57.2761 H         1 UNK         0.3800 
    243 H243       -0.8541  -20.6607  -56.1819 H         1 UNK         0.3800 
    244 H244       -1.9169  -18.5496  -55.2115 H         1 UNK         0.0800 
    245 H245       -2.1988  -18.2945  -53.5290 H         1 UNK         0.0800 
    246 H246        0.0530  -16.9853  -52.8145 H         1 UNK         0.0800 
    247 H247       -0.6209  -18.1979  -51.7637 H         1 UNK         0.0800 
@<TRIPOS>BOND
     1    1    2 1    
     2    1  127 1    
     3    1  128 1    
     4    1  129 1    
     5    2    3 2    
     6    2    4 am   BACKBONE|DICT|INTERRES
     7    4    5 1    
     8    4  130 1    
     9    5    6 1    
    10    5   65 1    
    11    5  131 1    
    12    6    7 1    
    13    6  132 1    
    14    6  133 1    
    15    7    8 1    
    16    8    9 1    
    17    8  134 1    
    18    8  135 1    
    19    9   10 ar   
    20    9   14 ar   
    21   10   11 ar   
    22   10  136 1    
    23   11   12 ar   
    24   11  126 1    
    25   12   13 ar   
    26   12  137 1    
    27   13   14 ar   
    28   13   15 1    
    29   14  138 1    
    30   15   16 1    
    31   15  139 1    
    32   15  140 1    
    33   16   17 1    
    34   17   18 1    
    35   17  141 1    
    36   17  142 1    
    37   18   19 1    
    38   18   67 1    
    39   18  143 1    
    40   19   20 am   BACKBONE|DICT|INTERRES
    41   19  144 1    
    42   20   21 2    
    43   20   22 1    
    44   22   23 1    
    45   22   24 1    
    46   22  145 1    
    47   23  146 1    
    48   23  147 1    
    49   23  148 1    
    50   24   25 am   BACKBONE|DICT|INTERRES
    51   24  149 1    
    52   25   26 2    
    53   25   27 1    
    54   27   28 1    
    55   27   29 1    
    56   27  150 1    
    57   28  151 1    
    58   28  152 1    
    59   28  153 1    
    60   29   30 am   BACKBONE|DICT|INTERRES
    61   29  154 1    
    62   30   31 2    
    63   30   32 1    
    64   32   33 1    
    65   32   34 1    
    66   32  155 1    
    67   33  156 1    
    68   33  157 1    
    69   33  158 1    
    70   34   35 am   BACKBONE|DICT|INTERRES
    71   34  159 1    
    72   35   36 2    
    73   35   37 1    
    74   37   38 1    
    75   37   39 1    
    76   37  160 1    
    77   38  161 1    
    78   38  162 1    
    79   38  163 1    
    80   39   40 am   BACKBONE|DICT|INTERRES
    81   39  164 1    
    82   40   41 2    
    83   40   42 1    
    84   42   43 1    
    85   42   44 1    
    86   42  165 1    
    87   43  166 1    
    88   43  167 1    
    89   43  168 1    
    90   44   45 am   BACKBONE|DICT|INTERRES
    91   44  169 1    
    92   45   46 2    
    93   45   47 1    
    94   47   48 1    
    95   47   49 1    
    96   47  170 1    
    97   48  171 1    
    98   48  172 1    
    99   48  173 1    
   100   49   50 am   BACKBONE|DICT|INTERRES
   101   49  174 1    
   102   50   51 2    
   103   50   52 1    
   104   52   53 1    
   105   52   54 1    
   106   52  175 1    
   107   53  176 1    
   108   53  177 1    
   109   53  178 1    
   110   54   55 am   BACKBONE|DICT|INTERRES
   111   54  179 1    
   112   55   56 2    
   113   55   57 1    
   114   57   58 1    
   115   57   59 1    
   116   57  180 1    
   117   58  181 1    
   118   58  182 1    
   119   58  183 1    
   120   59   60 am   BACKBONE|DICT|INTERRES
   121   59  184 1    
   122   60   61 2    
   123   60   62 1    
   124   62   63 1    
   125   62   64 1    
   126   62  185 1    
   127   63  186 1    
   128   63  187 1    
   129   63  188 1    
   130   64   65 am   BACKBONE|DICT|INTERRES
   131   64  189 1    
   132   65   66 2    
   133   67   68 2    
   134   67   69 am   BACKBONE|DICT|INTERRES
   135   69   70 1    
   136   69  190 1    
   137   70   71 1    
   138   70   72 1    
   139   70  191 1    
   140   71  192 1    
   141   71  193 1    
   142   71  194 1    
   143   72   73 2    
   144   72   74 am   BACKBONE|DICT|INTERRES
   145   74   75 1    
   146   74  195 1    
   147   75   76 1    
   148   75   77 1    
   149   75  196 1    
   150   76  197 1    
   151   76  198 1    
   152   76  199 1    
   153   77   78 2    
   154   77   79 am   BACKBONE|DICT|INTERRES
   155   79   80 1    
   156   79  200 1    
   157   80   81 1    
   158   80   82 1    
   159   80  201 1    
   160   81  202 1    
   161   81  203 1    
   162   81  204 1    
   163   82   83 2    
   164   82   84 am   BACKBONE|DICT|INTERRES
   165   84   85 1    
   166   84  205 1    
   167   85   86 1    
   168   85   87 1    
   169   85  206 1    
   170   86  207 1    
   171   86  208 1    
   172   86  209 1    
   173   87   88 2    
   174   87   89 am   BACKBONE|DICT|INTERRES
   175   89   90 1    
   176   89  210 1    
   177   90   91 1    
   178   90   92 1    
   179   90  211 1    
   180   91  212 1    
   181   91  213 1    
   182   91  214 1    
   183   92   93 2    
   184   92   94 am   BACKBONE|DICT|INTERRES
   185   94   95 1    
   186   94  215 1    
   187   95   96 1    
   188   95   97 1    
   189   95  216 1    
   190   96  217 1    
   191   96  218 1    
   192   96  219 1    
   193   97   98 2    
   194   97   99 am   BACKBONE|DICT|INTERRES
   195   99  100 1    
   196   99  220 1    
   197  100  101 1    
   198  100  102 1    
   199  100  221 1    
   200  101  222 1    
   201  101  223 1    
   202  101  224 1    
   203  102  103 2    
   204  102  104 am   BACKBONE|DICT|INTERRES
   205  104  105 1    
   206  104  225 1    
   207  105  106 1    
   208  105  107 1    
   209  105  226 1    
   210  106  227 1    
   211  106  228 1    
   212  106  229 1    
   213  107  108 2    
   214  107  109 am   BACKBONE|DICT|INTERRES
   215  109  110 1    
   216  109  230 1    
   217  110  111 1    
   218  110  112 1    
   219  110  231 1    
   220  111  232 1    
   221  111  233 1    
   222  111  234 1    
   223  112  113 2    
   224  112  114 am   BACKBONE|DICT|INTERRES
   225  114  115 1    
   226  114  235 1    
   227  115  116 1    
   228  115  117 1    
   229  115  236 1    
   230  116  237 1    
   231  116  238 1    
   232  116  239 1    
   233  117  118 2    
   234  117  119 am   BACKBONE|DICT|INTERRES
   235  119  120 1    
   236  119  240 1    
   237  120  121 1    
   238  120  124 1    
   239  120  241 1    
   240  121  122 am   BACKBONE|DICT|INTERRES
   241  121  123 2    
   242  122  242 1    
   243  122  243 1    
   244  124  125 1    
   245  124  244 1    
   246  124  245 1    
   247  125  126 1    
   248  126  246 1    
   249  126  247 1    
@<TRIPOS>SUBSTRUCTURE
     1 UNK         1 GROUP             0       ****    0 ROOT    
