@<TRIPOS>MOLECULE
3R540
247   249    1
SMALL
USER_CHARGES


@<TRIPOS>ATOM
      1 CA         -6.0148  -14.6029  -47.4294 C.3       0 UNK        -0.1800 
      2 C          -4.5088  -14.4068  -47.3353 C.2       0 UNK         0.5000 
      3 O          -4.0528  -13.3384  -46.9263 O.2       0 UNK        -0.5000 
      4 N          -3.7336  -15.4394  -47.6963 N.am      1 UNK        -0.5000 
      5 CA         -2.2614  -15.4295  -47.7295 C.3       1 UNK         0.1400 
      6 C6         -1.6653  -16.6853  -48.4148 C.3       23 UNK        -0.0398 
      7 S7         -2.4477  -17.0665  -50.0183 S.3       23 UNK        -0.2404 
      8 C8         -1.7855  -18.7317  -50.3600 C.3       23 UNK        -0.0205 
      9 C9         -0.2889  -18.7574  -50.6540 C.ar      23 UNK        -0.0193 
     10 C10         0.3011  -17.7899  -51.4729 C.ar      23 UNK        -0.1150 
     11 C11         1.6612  -17.8494  -51.7779 C.ar      23 UNK        -0.0193 
     12 C12         2.4378  -18.8853  -51.2550 C.ar      23 UNK        -0.1150 
     13 C13         1.8669  -19.8766  -50.4507 C.ar      23 UNK        -0.0193 
     14 C14         0.4983  -19.7979  -50.1509 C.ar      23 UNK        -0.1150 
     15 C15         2.7772  -21.0063  -49.9591 C.3       23 UNK        -0.0205 
     16 S16         1.9454  -22.4676  -49.2464 S.3       23 UNK        -0.2404 
     17 C17         1.6422  -21.8698  -47.5533 C.3       23 UNK        -0.0398 
     18 CA          0.7030  -22.7812  -46.7323 C.3       11 UNK         0.1400 
     19 N           0.7907  -22.4750  -45.3038 N.am      11 UNK        -0.5000 
     20 C           0.2181  -23.1837  -44.3221 C.2       10 UNK         0.5000 
     21 O          -0.4068  -24.2272  -44.5056 O.2       10 UNK        -0.5000 
     22 CA          0.3125  -22.5942  -42.9029 C.3       10 UNK         0.1400 
     23 CB          1.6578  -22.9410  -42.2487 C.3       10 UNK        -0.1800 
     24 N           0.1184  -21.1434  -42.8899 N.am      10 UNK        -0.5000 
     25 C          -1.0138  -20.5271  -43.2590 C.2       9 UNK         0.5000 
     26 O          -2.0377  -21.1209  -43.5957 O.2       9 UNK        -0.5000 
     27 CA         -0.9760  -18.9898  -43.3053 C.3       9 UNK         0.1400 
     28 CB         -1.0787  -18.4092  -41.8835 C.3       9 UNK        -0.1800 
     29 N           0.2292  -18.4923  -43.9749 N.am      9 UNK        -0.5000 
     30 C           0.5235  -18.7007  -45.2678 C.2       8 UNK         0.5000 
     31 O          -0.2402  -19.2537  -46.0577 O.2       8 UNK        -0.5000 
     32 CA          1.9275  -18.2880  -45.7498 C.3       8 UNK         0.1400 
     33 CB          1.9472  -16.8525  -46.2869 C.3       8 UNK        -0.1800 
     34 N           2.9342  -18.4312  -44.7003 N.am      8 UNK        -0.5000 
     35 C           3.3951  -19.6080  -44.2551 C.2       7 UNK         0.5000 
     36 O           3.0495  -20.6939  -44.7185 O.2       7 UNK        -0.5000 
     37 CA          4.3605  -19.5596  -43.0566 C.3       7 UNK         0.1400 
     38 CB          5.7970  -19.2891  -43.5278 C.3       7 UNK        -0.1800 
     39 N           3.9704  -18.5437  -42.0771 N.am      7 UNK        -0.5000 
     40 C           2.8477  -18.5932  -41.3455 C.2       6 UNK         0.5000 
     41 O           2.0728  -19.5490  -41.3604 O.2       6 UNK        -0.5000 
     42 CA          2.5073  -17.3464  -40.5040 C.3       6 UNK         0.1400 
     43 CB          3.0839  -17.4789  -39.0871 C.3       6 UNK        -0.1800 
     44 N           2.9878  -16.1000  -41.1106 N.am      6 UNK        -0.5000 
     45 C           2.5399  -15.5980  -42.2692 C.2       5 UNK         0.5000 
     46 O           1.6279  -16.1050  -42.9265 O.2       5 UNK        -0.5000 
     47 CA          3.3051  -14.3900  -42.8251 C.3       5 UNK         0.1400 
     48 CB          4.6436  -14.8669  -43.4307 C.3       5 UNK        -0.1800 
     49 N           2.4982  -13.7180  -43.8419 N.am      5 UNK        -0.5000 
     50 C           2.7958  -12.5458  -44.4183 C.2       4 UNK         0.5000 
     51 O           3.7694  -11.8575  -44.1087 O.2       4 UNK        -0.5000 
     52 CA          1.8516  -12.0520  -45.5274 C.3       4 UNK         0.1400 
     53 CB          2.1106  -12.8073  -46.8408 C.3       4 UNK        -0.1800 
     54 N           0.4436  -12.1747  -45.1535 N.am      4 UNK        -0.5000 
     55 C          -0.1892  -11.3222  -44.3320 C.2       3 UNK         0.5000 
     56 O           0.3549  -10.3424  -43.8208 O.2       3 UNK        -0.5000 
     57 CA         -1.6797  -11.5864  -44.0305 C.3       3 UNK         0.1400 
     58 CB         -2.5716  -10.7134  -44.9262 C.3       3 UNK        -0.1800 
     59 N          -2.0693  -12.9846  -44.1997 N.am      3 UNK        -0.5000 
     60 C          -1.6394  -13.9936  -43.4299 C.2       2 UNK         0.5000 
     61 O          -0.9492  -13.8341  -42.4233 O.2       2 UNK        -0.5000 
     62 CA         -2.0237  -15.4220  -43.8631 C.3       2 UNK         0.1400 
     63 CB         -3.1941  -15.9330  -43.0077 C.3       2 UNK        -0.1800 
     64 N          -2.3850  -15.5681  -45.2750 N.am      2 UNK        -0.5000 
     65 C          -1.6299  -15.2380  -46.3336 C.2       1 UNK         0.5000 
     66 O          -0.5017  -14.7581  -46.2392 O.2       1 UNK        -0.5000 
     67 C          -0.7552  -22.7377  -47.2412 C.2       11 UNK         0.5000 
     68 O          -1.1925  -23.6831  -47.8966 O.2       11 UNK        -0.5000 
     69 N          -1.5000  -21.6792  -46.8860 N.am      12 UNK        -0.5000 
     70 CA         -2.9266  -21.5304  -47.1832 C.3       12 UNK         0.1400 
     71 CB         -3.4173  -20.1469  -46.7318 C.3       12 UNK        -0.1800 
     72 C          -3.7903  -22.6377  -46.5562 C.2       12 UNK         0.5000 
     73 O          -4.6706  -23.1682  -47.2317 O.2       12 UNK        -0.5000 
     74 N          -3.5017  -22.9920  -45.2964 N.am      13 UNK        -0.5000 
     75 CA         -4.1570  -24.0822  -44.5732 C.3       13 UNK         0.1400 
     76 CB         -3.7276  -24.0565  -43.0987 C.3       13 UNK        -0.1800 
     77 C          -3.8896  -25.4626  -45.2026 C.2       13 UNK         0.5000 
     78 O          -4.8181  -26.2632  -45.3147 O.2       13 UNK        -0.5000 
     79 N          -2.6412  -25.7040  -45.6279 N.am      14 UNK        -0.5000 
     80 CA         -2.2180  -26.9198  -46.3251 C.3       14 UNK         0.1400 
     81 CB         -0.6840  -26.9640  -46.3981 C.3       14 UNK        -0.1800 
     82 C          -2.8365  -27.0466  -47.7298 C.2       14 UNK         0.5000 
     83 O          -3.2613  -28.1388  -48.1090 O.2       14 UNK        -0.5000 
     84 N          -2.8952  -25.9281  -48.4663 N.am      15 UNK        -0.5000 
     85 CA         -3.5316  -25.8264  -49.7816 C.3       15 UNK         0.1400 
     86 CB         -3.1151  -24.5008  -50.4377 C.3       15 UNK        -0.1800 
     87 C          -5.0680  -25.9302  -49.7217 C.2       15 UNK         0.5000 
     88 O          -5.6854  -26.3355  -50.7073 O.2       15 UNK        -0.5000 
     89 N          -5.6512  -25.5354  -48.5816 N.am      16 UNK        -0.5000 
     90 CA         -7.0702  -25.4927  -48.2139 C.3       16 UNK         0.1400 
     91 CB         -7.7261  -26.8838  -48.2981 C.3       16 UNK        -0.1800 
     92 C          -7.8744  -24.4323  -48.9875 C.2       16 UNK         0.5000 
     93 O          -8.5385  -23.6020  -48.3662 O.2       16 UNK        -0.5000 
     94 N          -7.7895  -24.4637  -50.3225 N.am      17 UNK        -0.5000 
     95 CA         -8.3893  -23.4774  -51.2213 C.3       17 UNK         0.1400 
     96 CB         -8.5041  -24.0864  -52.6273 C.3       17 UNK        -0.1800 
     97 C          -7.5840  -22.1657  -51.2718 C.2       17 UNK         0.5000 
     98 O          -8.1688  -21.1086  -51.5082 O.2       17 UNK        -0.5000 
     99 N          -6.2598  -22.2693  -51.0660 N.am      18 UNK        -0.5000 
    100 CA        -5.2636  -21.1879  -51.0816 C.3       18 UNK         0.1400 
    101 CB        -5.4889  -20.2289  -49.8952 C.3       18 UNK        -0.1800 
    102 C         -5.1622  -20.4495  -52.4363 C.2       18 UNK         0.5000 
    103 O         -4.7359  -19.2951  -52.4814 O.2       18 UNK        -0.5000 
    104 N         -5.5326  -21.1329  -53.5275 N.am      19 UNK        -0.5000 
    105 CA        -5.5898  -20.6092  -54.8940 C.3       19 UNK         0.1400 
    106 CB        -6.6463  -21.4111  -55.6762 C.3       19 UNK        -0.1800 
    107 C         -4.2089  -20.6053  -55.5856 C.2       19 UNK         0.5000 
    108 O         -4.0714  -21.1045  -56.7044 O.2       19 UNK        -0.5000 
    109 N         -3.2005  -20.0569  -54.8997 N.am      20 UNK        -0.5000 
    110 CA        -1.8419  -19.8834  -55.4062 C.3       20 UNK         0.1400 
    111 CB        -0.9008  -19.6469  -54.2171 C.3       20 UNK        -0.1800 
    112 C         -1.7725  -18.7006  -56.3875 C.2       20 UNK         0.5000 
    113 O         -2.4189  -17.6756  -56.1548 O.2       20 UNK        -0.5000 
    114 N         -0.9550  -18.8380  -57.4403 N.am      21 UNK        -0.5000 
    115 CA        -0.7493  -17.8194  -58.4790 C.3       21 UNK         0.1400 
    116 CB         0.1102  -18.4159  -59.6040 C.3       21 UNK        -0.1800 
    117 C         -0.1201  -16.5127  -57.9531 C.2       21 UNK         0.5000 
    118 O         -0.3745  -15.4440  -58.5097 O.2       21 UNK        -0.5000 
    119 N          0.6661  -16.6265  -56.8776 N.am      22 UNK        -0.5000 
    120 CA         1.2244  -15.5143  -56.0960 C.3       22 UNK         0.1400 
    121 C          0.2140  -14.8306  -55.1243 C.2       22 UNK         0.5000 
    122 N         -1.0174  -15.3075  -54.9772 N.am      22 UNK        -0.7600 
    123 O          0.5527  -13.8310  -54.4968 O.2       22 UNK        -0.5000 
    124 C124        2.5365  -15.9343  -55.3787 C.3       23 UNK        -0.0398 
    125 S125        2.3745  -17.4684  -54.3987 S.3       23 UNK        -0.2404 
    126 C126        2.2782  -16.8163  -52.7046 C.3       23 UNK        -0.0205 
    127 H127       -6.4470  -13.8645  -48.1047 H         1 UNK         0.0600 
    128 H128       -6.4712  -14.4773  -46.4475 H         1 UNK         0.0600 
    129 H129       -6.2722  -15.5953  -47.8005 H         1 UNK         0.0600 
    130 H130       -4.1655  -16.2825  -48.0473 H         1 UNK         0.3000 
    131 H131       -1.9678  -14.5619  -48.3244 H         1 UNK         0.0600 
    132 H132       -1.7478  -17.5555  -47.7650 H         1 UNK         0.0800 
    133 H133       -0.5984  -16.5428  -48.5930 H         1 UNK         0.0800 
    134 H134       -2.3067  -19.1383  -51.2268 H         1 UNK         0.0800 
    135 H135       -2.0248  -19.3870  -49.5220 H         1 UNK         0.0800 
    136 H136       -0.3039  -17.0001  -51.8956 H         1 UNK         0.1150 
    137 H137        3.4891  -18.9350  -51.5027 H         1 UNK         0.1150 
    138 H138        0.0248  -20.5535  -49.5430 H         1 UNK         0.1150 
    139 H139        3.3754  -21.3565  -50.8017 H         1 UNK         0.0800 
    140 H140        3.4836  -20.6030  -49.2321 H         1 UNK         0.0800 
    141 H141        1.2620  -20.8496  -47.5848 H         1 UNK         0.0800 
    142 H142        2.6163  -21.8132  -47.0664 H         1 UNK         0.0800 
    143 H143        1.0532  -23.8094  -46.8470 H         1 UNK         0.0600 
    144 H144        1.3466  -21.6653  -45.0486 H         1 UNK         0.3000 
    145 H145       -0.4823  -23.0421  -42.3030 H         1 UNK         0.0600 
    146 H146        1.7031  -22.5733  -41.2234 H         1 UNK         0.0600 
    147 H147        2.4971  -22.5097  -42.7943 H         1 UNK         0.0600 
    148 H148        1.8078  -24.0208  -42.2151 H         1 UNK         0.0600 
    149 H149        0.8987  -20.5784  -42.5683 H         1 UNK         0.3000 
    150 H150       -1.8352  -18.6458  -43.8838 H         1 UNK         0.0600 
    151 H151       -2.0886  -18.5362  -41.4925 H         1 UNK         0.0600 
    152 H152       -0.8474  -17.3457  -41.8536 H         1 UNK         0.0600 
    153 H153       -0.4059  -18.9055  -41.1856 H         1 UNK         0.0600 
    154 H154        0.8831  -17.9593  -43.4135 H         1 UNK         0.3000 
    155 H155        2.2029  -18.9479  -46.5741 H         1 UNK         0.0600 
    156 H156        1.2542  -16.7416  -47.1203 H         1 UNK         0.0600 
    157 H157        2.9370  -16.5795  -46.6525 H         1 UNK         0.0600 
    158 H158        1.6620  -16.1302  -45.5238 H         1 UNK         0.0600 
    159 H159        3.2264  -17.5855  -44.2355 H         1 UNK         0.3000 
    160 H160        4.3365  -20.5357  -42.5672 H         1 UNK         0.0600 
    161 H161        5.8896  -18.3130  -44.0058 H         1 UNK         0.0600 
    162 H162        6.1178  -20.0407  -44.2504 H         1 UNK         0.0600 
    163 H163        6.4979  -19.3223  -42.6935 H         1 UNK         0.0600 
    164 H164        4.5666  -17.7344  -41.9931 H         1 UNK         0.3000 
    165 H165        1.4199  -17.2864  -40.4261 H         1 UNK         0.0600 
    166 H166        2.7858  -16.6385  -38.4599 H         1 UNK         0.0600 
    167 H167        2.7235  -18.3877  -38.6031 H         1 UNK         0.0600 
    168 H168        4.1737  -17.5220  -39.0969 H         1 UNK         0.0600 
    169 H169        3.7418  -15.6295  -40.6306 H         1 UNK         0.3000 
    170 H170        3.4933  -13.6926  -42.0065 H         1 UNK         0.0600 
    171 H171        4.4842  -15.5200  -44.2897 H         1 UNK         0.0600 
    172 H172        5.2585  -14.0304  -43.7614 H         1 UNK         0.0600 
    173 H173        5.2373  -15.4201  -42.7023 H         1 UNK         0.0600 
    174 H174        1.6579  -14.2163  -44.1083 H         1 UNK         0.3000 
    175 H175        2.0705  -10.9972  -45.7081 H         1 UNK         0.0600 
    176 H176        1.9527  -13.8800  -46.7318 H         1 UNK         0.0600 
    177 H177        1.4560  -12.4521  -47.6368 H         1 UNK         0.0600 
    178 H178        3.1386  -12.6627  -47.1751 H         1 UNK         0.0600 
    179 H179       -0.0534  -12.9813  -45.5192 H         1 UNK         0.3000 
    180 H180       -1.8601  -11.3070  -42.9904 H         1 UNK         0.0600 
    181 H181       -3.6252  -10.8376  -44.6753 H         1 UNK         0.0600 
    182 H182       -2.4474  -10.9632  -45.9809 H         1 UNK         0.0600 
    183 H183       -2.3315   -9.6560  -44.8074 H         1 UNK         0.0600 
    184 H184       -2.6385  -13.2009  -45.0082 H         1 UNK         0.3000 
    185 H185       -1.1477  -16.0470  -43.6931 H         1 UNK         0.0600 
    186 H186       -4.0909  -15.3306  -43.1582 H         1 UNK         0.0600 
    187 H187       -3.4443  -16.9663  -43.2460 H         1 UNK         0.0600 
    188 H188       -2.9499  -15.8943  -41.9453 H         1 UNK         0.0600 
    189 H189       -3.3099  -15.9263  -45.4618 H         1 UNK         0.3000 
    190 H190       -1.0624  -20.9135  -46.3796 H         1 UNK         0.3000 
    191 H191       -3.0464  -21.5952  -48.2665 H         1 UNK         0.0600 
    192 H192       -2.9211  -19.3576  -47.2890 H         1 UNK         0.0600 
    193 H193       -3.2316  -19.9748  -45.6722 H         1 UNK         0.0600 
    194 H194       -4.4890  -20.0335  -46.8975 H         1 UNK         0.0600 
    195 H195       -2.7974  -22.4632  -44.7894 H         1 UNK         0.3000 
    196 H196       -5.2337  -23.9044  -44.6133 H         1 UNK         0.0600 
    197 H197       -3.9742  -23.1021  -42.6332 H         1 UNK         0.0600 
    198 H198       -2.6551  -24.2147  -42.9872 H         1 UNK         0.0600 
    199 H199       -4.2353  -24.8372  -42.5309 H         1 UNK         0.0600 
    200 H200       -1.9196  -25.0131  -45.4420 H         1 UNK         0.3000 
    201 H201       -2.5524  -27.7768  -45.7369 H         1 UNK         0.0600 
    202 H202       -0.2425  -26.9568  -45.4014 H         1 UNK         0.0600 
    203 H203       -0.2812  -26.1125  -46.9471 H         1 UNK         0.0600 
    204 H204       -0.3421  -27.8704  -46.8991 H         1 UNK         0.0600 
    205 H205       -2.4507  -25.0850  -48.1102 H         1 UNK         0.3000 
    206 H206       -3.1684  -26.6470  -50.4035 H         1 UNK         0.0600 
    207 H207       -3.4161  -23.6457  -49.8319 H         1 UNK         0.0600 
    208 H208       -2.0339  -24.4500  -50.5685 H         1 UNK         0.0600 
    209 H209       -3.5674  -24.3878  -51.4237 H         1 UNK         0.0600 
    210 H210       -5.0412  -25.1113  -47.8915 H         1 UNK         0.3000 
    211 H211       -7.0842  -25.1917  -47.1650 H         1 UNK         0.0600 
    212 H212       -7.7692  -27.2585  -49.3209 H         1 UNK         0.0600 
    213 H213       -8.7487  -26.8528  -47.9206 H         1 UNK         0.0600 
    214 H214       -7.1792  -27.6109  -47.6974 H         1 UNK         0.0600 
    215 H215       -7.2079  -25.1871  -50.7370 H         1 UNK         0.3000 
    216 H216       -9.3948  -23.2408  -50.8669 H         1 UNK         0.0600 
    217 H217       -8.9547  -23.3790  -53.3249 H         1 UNK         0.0600 
    218 H218       -9.1315  -24.9779  -52.6193 H         1 UNK         0.0600 
    219 H219       -7.5289  -24.3671  -53.0272 H         1 UNK         0.0600 
    220 H220       -5.8999  -23.1919  -50.8729 H         1 UNK         0.3000 
    221 H221       -4.2941  -21.6642  -50.9335 H         1 UNK         0.0600 
    222 H222       -6.3982  -19.6402  -50.0188 H         1 UNK         0.0600 
    223 H223       -5.5728  -20.7797  -48.9585 H         1 UNK         0.0600 
    224 H224       -4.6595  -19.5292  -49.7893 H         1 UNK         0.0600 
    225 H225       -5.8309  -22.0889  -53.4065 H         1 UNK         0.3000 
    226 H226       -5.9269  -19.5711  -54.8568 H         1 UNK         0.0600 
    227 H227       -7.6197  -21.3614  -55.1874 H         1 UNK         0.0600 
    228 H228       -6.7723  -21.0158  -56.6850 H         1 UNK         0.0600 
    229 H229       -6.3695  -22.4623  -55.7656 H         1 UNK         0.0600 
    230 H230       -3.4198  -19.6222  -54.0102 H         1 UNK         0.3000 
    231 H231       -1.5357  -20.7981  -55.9183 H         1 UNK         0.0600 
    232 H232       -1.1487  -18.7226  -53.6946 H         1 UNK         0.0600 
    233 H233        0.1361  -19.5709  -54.5453 H         1 UNK         0.0600 
    234 H234       -0.9533  -20.4634  -53.4965 H         1 UNK         0.0600 
    235 H235       -0.4487  -19.7040  -57.5576 H         1 UNK         0.3000 
    236 H236       -1.7270  -17.5657  -58.8940 H         1 UNK         0.0600 
    237 H237        1.0948  -18.7154  -59.2426 H         1 UNK         0.0600 
    238 H238       -0.3676  -19.2911  -60.0447 H         1 UNK         0.0600 
    239 H239        0.2613  -17.6920  -60.4060 H         1 UNK         0.0600 
    240 H240        0.8146  -17.5449  -56.4856 H         1 UNK         0.3000 
    241 H241        1.4983  -14.7305  -56.8046 H         1 UNK         0.0600 
    242 H242       -1.6493  -14.8389  -54.3485 H         1 UNK         0.3800 
    243 H243       -1.3422  -16.1192  -55.4905 H         1 UNK         0.3800 
    244 H244        2.9267  -15.1276  -54.7557 H         1 UNK         0.0800 
    245 H245        3.3067  -16.1139  -56.1298 H         1 UNK         0.0800 
    246 H246        1.6845  -15.9012  -52.6896 H         1 UNK         0.0800 
    247 H247        3.2769  -16.5455  -52.3589 H         1 UNK         0.0800 
@<TRIPOS>BOND
     1    1    2 1    
     2    1  127 1    
     3    1  128 1    
     4    1  129 1    
     5    2    3 2    
     6    2    4 am   BACKBONE|DICT|INTERRES
     7    4    5 1    
     8    4  130 1    
     9    5    6 1    
    10    5   65 1    
    11    5  131 1    
    12    6    7 1    
    13    6  132 1    
    14    6  133 1    
    15    7    8 1    
    16    8    9 1    
    17    8  134 1    
    18    8  135 1    
    19    9   10 ar   
    20    9   14 ar   
    21   10   11 ar   
    22   10  136 1    
    23   11   12 ar   
    24   11  126 1    
    25   12   13 ar   
    26   12  137 1    
    27   13   14 ar   
    28   13   15 1    
    29   14  138 1    
    30   15   16 1    
    31   15  139 1    
    32   15  140 1    
    33   16   17 1    
    34   17   18 1    
    35   17  141 1    
    36   17  142 1    
    37   18   19 1    
    38   18   67 1    
    39   18  143 1    
    40   19   20 am   BACKBONE|DICT|INTERRES
    41   19  144 1    
    42   20   21 2    
    43   20   22 1    
    44   22   23 1    
    45   22   24 1    
    46   22  145 1    
    47   23  146 1    
    48   23  147 1    
    49   23  148 1    
    50   24   25 am   BACKBONE|DICT|INTERRES
    51   24  149 1    
    52   25   26 2    
    53   25   27 1    
    54   27   28 1    
    55   27   29 1    
    56   27  150 1    
    57   28  151 1    
    58   28  152 1    
    59   28  153 1    
    60   29   30 am   BACKBONE|DICT|INTERRES
    61   29  154 1    
    62   30   31 2    
    63   30   32 1    
    64   32   33 1    
    65   32   34 1    
    66   32  155 1    
    67   33  156 1    
    68   33  157 1    
    69   33  158 1    
    70   34   35 am   BACKBONE|DICT|INTERRES
    71   34  159 1    
    72   35   36 2    
    73   35   37 1    
    74   37   38 1    
    75   37   39 1    
    76   37  160 1    
    77   38  161 1    
    78   38  162 1    
    79   38  163 1    
    80   39   40 am   BACKBONE|DICT|INTERRES
    81   39  164 1    
    82   40   41 2    
    83   40   42 1    
    84   42   43 1    
    85   42   44 1    
    86   42  165 1    
    87   43  166 1    
    88   43  167 1    
    89   43  168 1    
    90   44   45 am   BACKBONE|DICT|INTERRES
    91   44  169 1    
    92   45   46 2    
    93   45   47 1    
    94   47   48 1    
    95   47   49 1    
    96   47  170 1    
    97   48  171 1    
    98   48  172 1    
    99   48  173 1    
   100   49   50 am   BACKBONE|DICT|INTERRES
   101   49  174 1    
   102   50   51 2    
   103   50   52 1    
   104   52   53 1    
   105   52   54 1    
   106   52  175 1    
   107   53  176 1    
   108   53  177 1    
   109   53  178 1    
   110   54   55 am   BACKBONE|DICT|INTERRES
   111   54  179 1    
   112   55   56 2    
   113   55   57 1    
   114   57   58 1    
   115   57   59 1    
   116   57  180 1    
   117   58  181 1    
   118   58  182 1    
   119   58  183 1    
   120   59   60 am   BACKBONE|DICT|INTERRES
   121   59  184 1    
   122   60   61 2    
   123   60   62 1    
   124   62   63 1    
   125   62   64 1    
   126   62  185 1    
   127   63  186 1    
   128   63  187 1    
   129   63  188 1    
   130   64   65 am   BACKBONE|DICT|INTERRES
   131   64  189 1    
   132   65   66 2    
   133   67   68 2    
   134   67   69 am   BACKBONE|DICT|INTERRES
   135   69   70 1    
   136   69  190 1    
   137   70   71 1    
   138   70   72 1    
   139   70  191 1    
   140   71  192 1    
   141   71  193 1    
   142   71  194 1    
   143   72   73 2    
   144   72   74 am   BACKBONE|DICT|INTERRES
   145   74   75 1    
   146   74  195 1    
   147   75   76 1    
   148   75   77 1    
   149   75  196 1    
   150   76  197 1    
   151   76  198 1    
   152   76  199 1    
   153   77   78 2    
   154   77   79 am   BACKBONE|DICT|INTERRES
   155   79   80 1    
   156   79  200 1    
   157   80   81 1    
   158   80   82 1    
   159   80  201 1    
   160   81  202 1    
   161   81  203 1    
   162   81  204 1    
   163   82   83 2    
   164   82   84 am   BACKBONE|DICT|INTERRES
   165   84   85 1    
   166   84  205 1    
   167   85   86 1    
   168   85   87 1    
   169   85  206 1    
   170   86  207 1    
   171   86  208 1    
   172   86  209 1    
   173   87   88 2    
   174   87   89 am   BACKBONE|DICT|INTERRES
   175   89   90 1    
   176   89  210 1    
   177   90   91 1    
   178   90   92 1    
   179   90  211 1    
   180   91  212 1    
   181   91  213 1    
   182   91  214 1    
   183   92   93 2    
   184   92   94 am   BACKBONE|DICT|INTERRES
   185   94   95 1    
   186   94  215 1    
   187   95   96 1    
   188   95   97 1    
   189   95  216 1    
   190   96  217 1    
   191   96  218 1    
   192   96  219 1    
   193   97   98 2    
   194   97   99 am   BACKBONE|DICT|INTERRES
   195   99  100 1    
   196   99  220 1    
   197  100  101 1    
   198  100  102 1    
   199  100  221 1    
   200  101  222 1    
   201  101  223 1    
   202  101  224 1    
   203  102  103 2    
   204  102  104 am   BACKBONE|DICT|INTERRES
   205  104  105 1    
   206  104  225 1    
   207  105  106 1    
   208  105  107 1    
   209  105  226 1    
   210  106  227 1    
   211  106  228 1    
   212  106  229 1    
   213  107  108 2    
   214  107  109 am   BACKBONE|DICT|INTERRES
   215  109  110 1    
   216  109  230 1    
   217  110  111 1    
   218  110  112 1    
   219  110  231 1    
   220  111  232 1    
   221  111  233 1    
   222  111  234 1    
   223  112  113 2    
   224  112  114 am   BACKBONE|DICT|INTERRES
   225  114  115 1    
   226  114  235 1    
   227  115  116 1    
   228  115  117 1    
   229  115  236 1    
   230  116  237 1    
   231  116  238 1    
   232  116  239 1    
   233  117  118 2    
   234  117  119 am   BACKBONE|DICT|INTERRES
   235  119  120 1    
   236  119  240 1    
   237  120  121 1    
   238  120  124 1    
   239  120  241 1    
   240  121  122 am   BACKBONE|DICT|INTERRES
   241  121  123 2    
   242  122  242 1    
   243  122  243 1    
   244  124  125 1    
   245  124  244 1    
   246  124  245 1    
   247  125  126 1    
   248  126  246 1    
   249  126  247 1    
@<TRIPOS>SUBSTRUCTURE
     1 UNK         1 GROUP             0       ****    0 ROOT    
