@<TRIPOS>MOLECULE
3R540
247   249    1
SMALL
USER_CHARGES


@<TRIPOS>ATOM
      1 CA         -6.2718  -11.6026  -45.3183 C.3       0 UNK        -0.1800 
      2 C          -4.8056  -11.1959  -45.3601 C.2       0 UNK         0.5000 
      3 O          -4.4016  -10.2841  -44.6393 O.2       0 UNK        -0.5000 
      4 N          -4.0089  -11.8718  -46.1969 N.am      1 UNK        -0.5000 
      5 CA         -2.5688  -11.6391  -46.3720 C.3       1 UNK         0.1400 
      6 C6         -2.1016  -11.9671  -47.8128 C.3       23 UNK        -0.0398 
      7 S7         -2.5215  -13.6504  -48.3946 S.3       23 UNK        -0.2404 
      8 C8         -0.8744  -14.4100  -48.5207 C.3       23 UNK        -0.0205 
      9 C9         -0.9014  -15.6391  -49.4155 C.ar      23 UNK        -0.0193 
     10 C10        -0.6701  -15.5106  -50.7884 C.ar      23 UNK        -0.1150 
     11 C11        -0.6602  -16.6366  -51.6167 C.ar      23 UNK        -0.0193 
     12 C12        -0.8748  -17.9000  -51.0568 C.ar      23 UNK        -0.1150 
     13 C13        -1.1151  -18.0423  -49.6887 C.ar      23 UNK        -0.0193 
     14 C14        -1.1359  -16.9057  -48.8738 C.ar      23 UNK        -0.1150 
     15 C15        -1.3061  -19.4278  -49.0922 C.3       23 UNK        -0.0205 
     16 S16        -3.0137  -20.0266  -49.2543 S.3       23 UNK        -0.2404 
     17 C17        -3.3726  -20.6137  -47.5629 C.3       23 UNK        -0.0398 
     18 CA         -2.8817  -22.0620  -47.3225 C.3       11 UNK         0.1400 
     19 N          -1.4260  -22.1525  -47.1625 N.am      11 UNK        -0.5000 
     20 C          -0.7327  -23.2997  -47.1666 C.2       10 UNK         0.5000 
     21 O          -1.2442  -24.4047  -47.3318 O.2       10 UNK        -0.5000 
     22 CA          0.7750  -23.1995  -46.8925 C.3       10 UNK         0.1400 
     23 CB          1.5321  -22.7934  -48.1660 C.3       10 UNK        -0.1800 
     24 N           1.0623  -22.2557  -45.8123 N.am      10 UNK        -0.5000 
     25 C           0.7952  -22.4971  -44.5192 C.2       9 UNK         0.5000 
     26 O           0.3144  -23.5550  -44.1115 O.2       9 UNK        -0.5000 
     27 CA          1.0648  -21.3548  -43.5171 C.3       9 UNK         0.1400 
     28 CB          2.5154  -21.4084  -43.0165 C.3       9 UNK        -0.1800 
     29 N           0.7967  -20.0251  -44.0673 N.am      9 UNK        -0.5000 
     30 C          -0.3967  -19.6176  -44.5218 C.2       8 UNK         0.5000 
     31 O          -1.4197  -20.2973  -44.4498 O.2       8 UNK        -0.5000 
     32 CA         -0.4613  -18.2590  -45.2431 C.3       8 UNK         0.1400 
     33 CB         -0.9826  -17.1651  -44.3066 C.3       8 UNK        -0.1800 
     34 N           0.7953  -17.8114  -45.8507 N.am      8 UNK        -0.5000 
     35 C           1.5510  -18.5003  -46.7198 C.2       7 UNK         0.5000 
     36 O           1.2776  -19.6323  -47.1165 O.2       7 UNK        -0.5000 
     37 CA          2.8557  -17.8358  -47.1930 C.3       7 UNK         0.1400 
     38 CB          2.6262  -17.1263  -48.5368 C.3       7 UNK        -0.1800 
     39 N           3.4313  -16.8800  -46.2418 N.am      7 UNK        -0.5000 
     40 C           3.7771  -17.1278  -44.9681 C.2       6 UNK         0.5000 
     41 O           3.6146  -18.2168  -44.4152 O.2       6 UNK        -0.5000 
     42 CA          4.4014  -15.9612  -44.1751 C.3       6 UNK         0.1400 
     43 CB          5.9004  -16.2101  -43.9468 C.3       6 UNK        -0.1800 
     44 N           4.2339  -14.6615  -44.8342 N.am      6 UNK        -0.5000 
     45 C           3.1078  -13.9385  -44.8150 C.2       5 UNK         0.5000 
     46 O           2.0835  -14.2781  -44.2150 O.2       5 UNK        -0.5000 
     47 CA          3.1246  -12.6434  -45.6405 C.3       5 UNK         0.1400 
     48 CB          2.5032  -12.8861  -47.0252 C.3       5 UNK        -0.1800 
     49 N           2.3425  -11.6373  -44.9366 N.am      5 UNK        -0.5000 
     50 C           2.7994  -10.4646  -44.4827 C.2       4 UNK         0.5000 
     51 O           3.9168  -10.0128  -44.7369 O.2       4 UNK        -0.5000 
     52 CA          1.8618   -9.6914  -43.5358 C.3       4 UNK         0.1400 
     53 CB          0.7973   -8.9114  -44.3229 C.3       4 UNK        -0.1800 
     54 N           1.2080  -10.5885  -42.5818 N.am      4 UNK        -0.5000 
     55 C           1.8340  -11.2478  -41.5971 C.2       3 UNK         0.5000 
     56 O           3.0104  -11.0497  -41.2909 O.2       3 UNK        -0.5000 
     57 CA          1.0447  -12.3448  -40.8540 C.3       3 UNK         0.1400 
     58 CB          0.3318  -11.7860  -39.6073 C.3       3 UNK        -0.1800 
     59 N           0.1358  -13.1135  -41.7172 N.am      3 UNK        -0.5000 
     60 C          -1.0062  -12.7180  -42.2934 C.2       2 UNK         0.5000 
     61 O          -1.5174  -11.6085  -42.1268 O.2       2 UNK        -0.5000 
     62 CA         -1.6669  -13.7339  -43.2427 C.3       2 UNK         0.1400 
     63 CB         -2.6994  -14.5867  -42.4904 C.3       2 UNK        -0.1800 
     64 N          -2.3203  -13.0915  -44.3833 N.am      2 UNK        -0.5000 
     65 C          -1.6994  -12.3348  -45.2995 C.2       1 UNK         0.5000 
     66 O          -0.4800  -12.1659  -45.3144 O.2       1 UNK        -0.5000 
     67 C          -3.6226  -22.7157  -46.1406 C.2       11 UNK         0.5000 
     68 O          -4.6202  -23.3975  -46.3703 O.2       11 UNK        -0.5000 
     69 N          -3.1103  -22.5457  -44.9147 N.am      12 UNK        -0.5000 
     70 CA         -3.6245  -23.1980  -43.7101 C.3       12 UNK         0.1400 
     71 CB         -2.9089  -22.6313  -42.4747 C.3       12 UNK        -0.1800 
     72 C          -3.4960  -24.7325  -43.7634 C.2       12 UNK         0.5000 
     73 O          -4.4332  -25.4321  -43.3783 O.2       12 UNK        -0.5000 
     74 N          -2.3536  -25.2250  -44.2622 N.am      13 UNK        -0.5000 
     75 CA         -2.0746  -26.6505  -44.4338 C.3       13 UNK         0.1400 
     76 CB         -0.5680  -26.8486  -44.6622 C.3       13 UNK        -0.1800 
     77 C          -2.8868  -27.2872  -45.5774 C.2       13 UNK         0.5000 
     78 O          -3.4313  -28.3780  -45.4033 O.2       13 UNK        -0.5000 
     79 N          -2.9484  -26.6005  -46.7255 N.am      14 UNK        -0.5000 
     80 CA         -3.5772  -27.0852  -47.9565 C.3       14 UNK         0.1400 
     81 CB         -2.9030  -26.3915  -49.1498 C.3       14 UNK        -0.1800 
     82 C          -5.1018  -26.8712  -48.0151 C.2       14 UNK         0.5000 
     83 O          -5.7253  -27.3335  -48.9703 O.2       14 UNK        -0.5000 
     84 N          -5.6694  -26.1518  -47.0359 N.am      15 UNK        -0.5000 
     85 CA         -7.0681  -25.7111  -46.9617 C.3       15 UNK         0.1400 
     86 CB         -8.0291  -26.9102  -46.8202 C.3       15 UNK        -0.1800 
     87 C          -7.4237  -24.7702  -48.1325 C.2       15 UNK         0.5000 
     88 O          -8.3730  -25.0160  -48.8777 O.2       15 UNK        -0.5000 
     89 N          -6.6002  -23.7239  -48.2784 N.am      16 UNK        -0.5000 
     90 CA         -6.6291  -22.6400  -49.2677 C.3       16 UNK         0.1400 
     91 CB         -7.9759  -21.8913  -49.2473 C.3       16 UNK        -0.1800 
     92 C          -6.2221  -23.0409  -50.6995 C.2       16 UNK         0.5000 
     93 O          -6.0387  -22.1515  -51.5302 O.2       16 UNK        -0.5000 
     94 N          -6.0340  -24.3398  -50.9763 N.am      17 UNK        -0.5000 
     95 CA         -5.6699  -24.8626  -52.2993 C.3       17 UNK         0.1400 
     96 CB         -5.7738  -26.3942  -52.2885 C.3       17 UNK        -0.1800 
     97 C          -4.2791  -24.4127  -52.7925 C.2       17 UNK         0.5000 
     98 O          -4.0491  -24.3686  -54.0017 O.2       17 UNK        -0.5000 
     99 N          -3.3915  -24.0460  -51.8560 N.am      18 UNK        -0.5000 
    100 CA        -2.0587  -23.5039  -52.1271 C.3       18 UNK         0.1400 
    101 CB        -1.2580  -23.4272  -50.8191 C.3       18 UNK        -0.1800 
    102 C         -2.0729  -22.1245  -52.8112 C.2       18 UNK         0.5000 
    103 O         -1.0681  -21.7616  -53.4224 O.2       18 UNK        -0.5000 
    104 N         -3.1909  -21.3870  -52.7196 N.am      19 UNK        -0.5000 
    105 CA        -3.3683  -20.0564  -53.3073 C.3       19 UNK         0.1400 
    106 CB        -4.6767  -19.4398  -52.7920 C.3       19 UNK        -0.1800 
    107 C         -3.3412  -20.0419  -54.8468 C.2       19 UNK         0.5000 
    108 O         -3.0273  -19.0036  -55.4287 O.2       19 UNK        -0.5000 
    109 N         -3.6512  -21.1845  -55.4775 N.am      20 UNK        -0.5000 
    110 CA        -3.6210  -21.3657  -56.9298 C.3       20 UNK         0.1400 
    111 CB        -4.2863  -22.7039  -57.2854 C.3       20 UNK        -0.1800 
    112 C         -2.1952  -21.2947  -57.5095 C.2       20 UNK         0.5000 
    113 O         -2.0023  -20.7188  -58.5809 O.2       20 UNK        -0.5000 
    114 N         -1.2274  -21.8673  -56.7821 N.am      21 UNK        -0.5000 
    115 CA         0.1970  -21.8352  -57.1211 C.3       21 UNK         0.1400 
    116 CB         0.8207  -23.1836  -56.7276 C.3       21 UNK        -0.1800 
    117 C          0.9386  -20.6865  -56.4115 C.2       21 UNK         0.5000 
    118 O          1.9992  -20.2696  -56.8780 O.2       21 UNK        -0.5000 
    119 N          0.3808  -20.2210  -55.2879 N.am      22 UNK        -0.5000 
    120 CA         1.0112  -19.3463  -54.2940 C.3       22 UNK         0.1400 
    121 C          2.1732  -20.0565  -53.5405 C.2       22 UNK         0.5000 
    122 N          1.9381  -21.2715  -53.0583 N.am      22 UNK        -0.7600 
    123 O          3.2759  -19.5349  -53.3995 O.2       22 UNK        -0.5000 
    124 C124        1.3225  -17.9224  -54.8289 C.3       23 UNK        -0.0398 
    125 S125        1.3575  -16.6677  -53.5016 S.3       23 UNK        -0.2404 
    126 C126       -0.4126  -16.4848  -53.1106 C.3       23 UNK        -0.0205 
    127 H127       -6.5448  -11.9200  -44.3119 H         1 UNK         0.0600 
    128 H128       -6.4848  -12.4237  -46.0035 H         1 UNK         0.0600 
    129 H129       -6.9032  -10.7578  -45.5937 H         1 UNK         0.0600 
    130 H130       -4.3938  -12.6131  -46.7667 H         1 UNK         0.3000 
    131 H131       -2.3864  -10.5716  -46.2308 H         1 UNK         0.0600 
    132 H132       -1.0313  -11.7833  -47.9207 H         1 UNK         0.0800 
    133 H133       -2.5764  -11.2670  -48.5013 H         1 UNK         0.0800 
    134 H134       -0.5200  -14.6720  -47.5224 H         1 UNK         0.0800 
    135 H135       -0.1608  -13.6897  -48.9236 H         1 UNK         0.0800 
    136 H136       -0.4923  -14.5321  -51.2122 H         1 UNK         0.1150 
    137 H137       -0.8485  -18.7819  -51.6762 H         1 UNK         0.1150 
    138 H138       -1.3204  -17.0014  -47.8152 H         1 UNK         0.1150 
    139 H139       -0.6306  -20.1381  -49.5715 H         1 UNK         0.0800 
    140 H140       -1.0287  -19.4107  -48.0435 H         1 UNK         0.0800 
    141 H141       -4.4560  -20.5514  -47.4453 H         1 UNK         0.0800 
    142 H142       -2.9602  -19.9259  -46.8240 H         1 UNK         0.0800 
    143 H143       -3.1493  -22.6536  -48.2005 H         1 UNK         0.0600 
    144 H144       -0.9268  -21.2946  -46.9828 H         1 UNK         0.3000 
    145 H145        1.1292  -24.1872  -46.5897 H         1 UNK         0.0600 
    146 H146        2.6024  -22.7065  -47.9789 H         1 UNK         0.0600 
    147 H147        1.3982  -23.5402  -48.9495 H         1 UNK         0.0600 
    148 H148        1.1826  -21.8402  -48.5635 H         1 UNK         0.0600 
    149 H149        1.3921  -21.3368  -46.0903 H         1 UNK         0.3000 
    150 H150        0.4012  -21.5017  -42.6627 H         1 UNK         0.0600 
    151 H151        2.7443  -22.3827  -42.5827 H         1 UNK         0.0600 
    152 H152        2.6942  -20.6588  -42.2454 H         1 UNK         0.0600 
    153 H153        3.2260  -21.2316  -43.8250 H         1 UNK         0.0600 
    154 H154        1.5944  -19.4125  -44.1840 H         1 UNK         0.3000 
    155 H155       -1.1920  -18.3753  -46.0415 H         1 UNK         0.0600 
    156 H156       -0.2498  -16.9030  -43.5424 H         1 UNK         0.0600 
    157 H157       -1.8940  -17.4817  -43.7975 H         1 UNK         0.0600 
    158 H158       -1.2259  -16.2668  -44.8734 H         1 UNK         0.0600 
    159 H159        1.1274  -16.9012  -45.5665 H         1 UNK         0.3000 
    160 H160        3.5874  -18.6320  -47.3430 H         1 UNK         0.0600 
    161 H161        1.9444  -16.2811  -48.4343 H         1 UNK         0.0600 
    162 H162        2.1930  -17.8062  -49.2724 H         1 UNK         0.0600 
    163 H163        3.5622  -16.7541  -48.9533 H         1 UNK         0.0600 
    164 H164        3.6128  -15.9546  -46.5987 H         1 UNK         0.3000 
    165 H165        3.9092  -15.9290  -43.2006 H         1 UNK         0.0600 
    166 H166        6.3421  -15.4231  -43.3352 H         1 UNK         0.0600 
    167 H167        6.0657  -17.1544  -43.4262 H         1 UNK         0.0600 
    168 H168        6.4500  -16.2537  -44.8879 H         1 UNK         0.0600 
    169 H169        5.0335  -14.3140  -45.3448 H         1 UNK         0.3000 
    170 H170        4.1577  -12.3133  -45.7664 H         1 UNK         0.0600 
    171 H171        3.0742  -13.6236  -47.5903 H         1 UNK         0.0600 
    172 H172        1.4793  -13.2520  -46.9459 H         1 UNK         0.0600 
    173 H173        2.4836  -11.9685  -47.6133 H         1 UNK         0.0600 
    174 H174        1.3948  -11.9223  -44.7055 H         1 UNK         0.3000 
    175 H175        2.4646   -8.9745  -42.9745 H         1 UNK         0.0600 
    176 H176        0.1482   -9.5744  -44.8951 H         1 UNK         0.0600 
    177 H177        0.1681   -8.3219  -43.6559 H         1 UNK         0.0600 
    178 H178        1.2627   -8.2204  -45.0267 H         1 UNK         0.0600 
    179 H179        0.2278  -10.7972  -42.7371 H         1 UNK         0.3000 
    180 H180        1.7831  -13.0678  -40.5037 H         1 UNK         0.0600 
    181 H181       -0.2055  -12.5705  -39.0745 H         1 UNK         0.0600 
    182 H182       -0.3804  -10.9997  -39.8578 H         1 UNK         0.0600 
    183 H183        1.0533  -11.3558  -38.9118 H         1 UNK         0.0600 
    184 H184        0.4915  -14.0234  -41.9785 H         1 UNK         0.3000 
    185 H185       -0.8836  -14.3824  -43.6364 H         1 UNK         0.0600 
    186 H186       -3.4967  -13.9721  -42.0701 H         1 UNK         0.0600 
    187 H187       -3.1579  -15.3260  -43.1472 H         1 UNK         0.0600 
    188 H188       -2.2332  -15.1288  -41.6668 H         1 UNK         0.0600 
    189 H189       -3.3264  -13.1491  -44.4228 H         1 UNK         0.3000 
    190 H190       -2.3299  -21.9061  -44.7891 H         1 UNK         0.3000 
    191 H191       -4.6863  -22.9563  -43.6277 H         1 UNK         0.0600 
    192 H192       -3.2959  -23.0799  -41.5590 H         1 UNK         0.0600 
    193 H193       -3.0530  -21.5536  -42.3958 H         1 UNK         0.0600 
    194 H194       -1.8362  -22.8230  -42.5068 H         1 UNK         0.0600 
    195 H195       -1.6172  -24.5817  -44.5264 H         1 UNK         0.3000 
    196 H196       -2.3439  -27.1642  -43.5084 H         1 UNK         0.0600 
    197 H197       -0.2233  -26.3307  -45.5579 H         1 UNK         0.0600 
    198 H198        0.0103  -26.4730  -43.8179 H         1 UNK         0.0600 
    199 H199       -0.3253  -27.9055  -44.7789 H         1 UNK         0.0600 
    200 H200       -2.4286  -25.7288  -46.8039 H         1 UNK         0.3000 
    201 H201       -3.3964  -28.1584  -48.0449 H         1 UNK         0.0600 
    202 H202       -3.0999  -25.3193  -49.1456 H         1 UNK         0.0600 
    203 H203       -3.2618  -26.7925  -50.0973 H         1 UNK         0.0600 
    204 H204       -1.8225  -26.5353  -49.1304 H         1 UNK         0.0600 
    205 H205       -5.0554  -25.7703  -46.3285 H         1 UNK         0.3000 
    206 H206       -7.1531  -25.1157  -46.0513 H         1 UNK         0.0600 
    207 H207       -7.7499  -27.5398  -45.9754 H         1 UNK         0.0600 
    208 H208       -9.0505  -26.5692  -46.6481 H         1 UNK         0.0600 
    209 H209       -8.0423  -27.5347  -47.7137 H         1 UNK         0.0600 
    210 H210       -5.8496  -23.6478  -47.5915 H         1 UNK         0.3000 
    211 H211       -5.8664  -21.9335  -48.9391 H         1 UNK         0.0600 
    212 H212       -7.9331  -20.9966  -49.8697 H         1 UNK         0.0600 
    213 H213       -8.2344  -21.5710  -48.2381 H         1 UNK         0.0600 
    214 H214       -8.7916  -22.5081  -49.6251 H         1 UNK         0.0600 
    215 H215       -6.2257  -25.0201  -50.2537 H         1 UNK         0.3000 
    216 H216       -6.4016  -24.4817  -53.0149 H         1 UNK         0.0600 
    217 H217       -5.0592  -26.8430  -51.5996 H         1 UNK         0.0600 
    218 H218       -5.5758  -26.8060  -53.2789 H         1 UNK         0.0600 
    219 H219       -6.7715  -26.7207  -51.9944 H         1 UNK         0.0600 
    220 H220       -3.6730  -24.1033  -50.8900 H         1 UNK         0.3000 
    221 H221       -1.5463  -24.1936  -52.8010 H         1 UNK         0.0600 
    222 H222       -1.1419  -24.4095  -50.3630 H         1 UNK         0.0600 
    223 H223       -1.7372  -22.7695  -50.0953 H         1 UNK         0.0600 
    224 H224       -0.2546  -23.0372  -50.9956 H         1 UNK         0.0600 
    225 H225       -3.9862  -21.7596  -52.2148 H         1 UNK         0.3000 
    226 H226       -2.5445  -19.4301  -52.9672 H         1 UNK         0.0600 
    227 H227       -5.5463  -20.0065  -53.1266 H         1 UNK         0.0600 
    228 H228       -4.6982  -19.4048  -51.7031 H         1 UNK         0.0600 
    229 H229       -4.7939  -18.4166  -53.1510 H         1 UNK         0.0600 
    230 H230       -3.8964  -21.9927  -54.9215 H         1 UNK         0.3000 
    231 H231       -4.2056  -20.5628  -57.3838 H         1 UNK         0.0600 
    232 H232       -3.7627  -23.5476  -56.8336 H         1 UNK         0.0600 
    233 H233       -4.2950  -22.8616  -58.3647 H         1 UNK         0.0600 
    234 H234       -5.3215  -22.7322  -56.9447 H         1 UNK         0.0600 
    235 H235       -1.4784  -22.3148  -55.9121 H         1 UNK         0.3000 
    236 H236        0.3256  -21.7020  -58.1974 H         1 UNK         0.0600 
    237 H237        0.3403  -24.0085  -57.2541 H         1 UNK         0.0600 
    238 H238        1.8817  -23.2120  -56.9791 H         1 UNK         0.0600 
    239 H239        0.7321  -23.3712  -55.6565 H         1 UNK         0.0600 
    240 H240       -0.4519  -20.6898  -54.9530 H         1 UNK         0.3000 
    241 H241        0.2367  -19.2350  -53.5393 H         1 UNK         0.0600 
    242 H242        2.6682  -21.7671  -52.5726 H         1 UNK         0.3800 
    243 H243        1.0210  -21.6870  -53.1647 H         1 UNK         0.3800 
    244 H244        0.5671  -17.6184  -55.5550 H         1 UNK         0.0800 
    245 H245        2.2734  -17.9076  -55.3634 H         1 UNK         0.0800 
    246 H246       -0.7493  -15.5043  -53.4504 H         1 UNK         0.0800 
    247 H247       -1.0128  -17.2123  -53.6593 H         1 UNK         0.0800 
@<TRIPOS>BOND
     1    1    2 1    
     2    1  127 1    
     3    1  128 1    
     4    1  129 1    
     5    2    3 2    
     6    2    4 am   BACKBONE|DICT|INTERRES
     7    4    5 1    
     8    4  130 1    
     9    5    6 1    
    10    5   65 1    
    11    5  131 1    
    12    6    7 1    
    13    6  132 1    
    14    6  133 1    
    15    7    8 1    
    16    8    9 1    
    17    8  134 1    
    18    8  135 1    
    19    9   10 ar   
    20    9   14 ar   
    21   10   11 ar   
    22   10  136 1    
    23   11   12 ar   
    24   11  126 1    
    25   12   13 ar   
    26   12  137 1    
    27   13   14 ar   
    28   13   15 1    
    29   14  138 1    
    30   15   16 1    
    31   15  139 1    
    32   15  140 1    
    33   16   17 1    
    34   17   18 1    
    35   17  141 1    
    36   17  142 1    
    37   18   19 1    
    38   18   67 1    
    39   18  143 1    
    40   19   20 am   BACKBONE|DICT|INTERRES
    41   19  144 1    
    42   20   21 2    
    43   20   22 1    
    44   22   23 1    
    45   22   24 1    
    46   22  145 1    
    47   23  146 1    
    48   23  147 1    
    49   23  148 1    
    50   24   25 am   BACKBONE|DICT|INTERRES
    51   24  149 1    
    52   25   26 2    
    53   25   27 1    
    54   27   28 1    
    55   27   29 1    
    56   27  150 1    
    57   28  151 1    
    58   28  152 1    
    59   28  153 1    
    60   29   30 am   BACKBONE|DICT|INTERRES
    61   29  154 1    
    62   30   31 2    
    63   30   32 1    
    64   32   33 1    
    65   32   34 1    
    66   32  155 1    
    67   33  156 1    
    68   33  157 1    
    69   33  158 1    
    70   34   35 am   BACKBONE|DICT|INTERRES
    71   34  159 1    
    72   35   36 2    
    73   35   37 1    
    74   37   38 1    
    75   37   39 1    
    76   37  160 1    
    77   38  161 1    
    78   38  162 1    
    79   38  163 1    
    80   39   40 am   BACKBONE|DICT|INTERRES
    81   39  164 1    
    82   40   41 2    
    83   40   42 1    
    84   42   43 1    
    85   42   44 1    
    86   42  165 1    
    87   43  166 1    
    88   43  167 1    
    89   43  168 1    
    90   44   45 am   BACKBONE|DICT|INTERRES
    91   44  169 1    
    92   45   46 2    
    93   45   47 1    
    94   47   48 1    
    95   47   49 1    
    96   47  170 1    
    97   48  171 1    
    98   48  172 1    
    99   48  173 1    
   100   49   50 am   BACKBONE|DICT|INTERRES
   101   49  174 1    
   102   50   51 2    
   103   50   52 1    
   104   52   53 1    
   105   52   54 1    
   106   52  175 1    
   107   53  176 1    
   108   53  177 1    
   109   53  178 1    
   110   54   55 am   BACKBONE|DICT|INTERRES
   111   54  179 1    
   112   55   56 2    
   113   55   57 1    
   114   57   58 1    
   115   57   59 1    
   116   57  180 1    
   117   58  181 1    
   118   58  182 1    
   119   58  183 1    
   120   59   60 am   BACKBONE|DICT|INTERRES
   121   59  184 1    
   122   60   61 2    
   123   60   62 1    
   124   62   63 1    
   125   62   64 1    
   126   62  185 1    
   127   63  186 1    
   128   63  187 1    
   129   63  188 1    
   130   64   65 am   BACKBONE|DICT|INTERRES
   131   64  189 1    
   132   65   66 2    
   133   67   68 2    
   134   67   69 am   BACKBONE|DICT|INTERRES
   135   69   70 1    
   136   69  190 1    
   137   70   71 1    
   138   70   72 1    
   139   70  191 1    
   140   71  192 1    
   141   71  193 1    
   142   71  194 1    
   143   72   73 2    
   144   72   74 am   BACKBONE|DICT|INTERRES
   145   74   75 1    
   146   74  195 1    
   147   75   76 1    
   148   75   77 1    
   149   75  196 1    
   150   76  197 1    
   151   76  198 1    
   152   76  199 1    
   153   77   78 2    
   154   77   79 am   BACKBONE|DICT|INTERRES
   155   79   80 1    
   156   79  200 1    
   157   80   81 1    
   158   80   82 1    
   159   80  201 1    
   160   81  202 1    
   161   81  203 1    
   162   81  204 1    
   163   82   83 2    
   164   82   84 am   BACKBONE|DICT|INTERRES
   165   84   85 1    
   166   84  205 1    
   167   85   86 1    
   168   85   87 1    
   169   85  206 1    
   170   86  207 1    
   171   86  208 1    
   172   86  209 1    
   173   87   88 2    
   174   87   89 am   BACKBONE|DICT|INTERRES
   175   89   90 1    
   176   89  210 1    
   177   90   91 1    
   178   90   92 1    
   179   90  211 1    
   180   91  212 1    
   181   91  213 1    
   182   91  214 1    
   183   92   93 2    
   184   92   94 am   BACKBONE|DICT|INTERRES
   185   94   95 1    
   186   94  215 1    
   187   95   96 1    
   188   95   97 1    
   189   95  216 1    
   190   96  217 1    
   191   96  218 1    
   192   96  219 1    
   193   97   98 2    
   194   97   99 am   BACKBONE|DICT|INTERRES
   195   99  100 1    
   196   99  220 1    
   197  100  101 1    
   198  100  102 1    
   199  100  221 1    
   200  101  222 1    
   201  101  223 1    
   202  101  224 1    
   203  102  103 2    
   204  102  104 am   BACKBONE|DICT|INTERRES
   205  104  105 1    
   206  104  225 1    
   207  105  106 1    
   208  105  107 1    
   209  105  226 1    
   210  106  227 1    
   211  106  228 1    
   212  106  229 1    
   213  107  108 2    
   214  107  109 am   BACKBONE|DICT|INTERRES
   215  109  110 1    
   216  109  230 1    
   217  110  111 1    
   218  110  112 1    
   219  110  231 1    
   220  111  232 1    
   221  111  233 1    
   222  111  234 1    
   223  112  113 2    
   224  112  114 am   BACKBONE|DICT|INTERRES
   225  114  115 1    
   226  114  235 1    
   227  115  116 1    
   228  115  117 1    
   229  115  236 1    
   230  116  237 1    
   231  116  238 1    
   232  116  239 1    
   233  117  118 2    
   234  117  119 am   BACKBONE|DICT|INTERRES
   235  119  120 1    
   236  119  240 1    
   237  120  121 1    
   238  120  124 1    
   239  120  241 1    
   240  121  122 am   BACKBONE|DICT|INTERRES
   241  121  123 2    
   242  122  242 1    
   243  122  243 1    
   244  124  125 1    
   245  124  244 1    
   246  124  245 1    
   247  125  126 1    
   248  126  246 1    
   249  126  247 1    
@<TRIPOS>SUBSTRUCTURE
     1 UNK         1 GROUP             0       ****    0 ROOT    
