@<TRIPOS>MOLECULE
3R540
247   249    1
SMALL
USER_CHARGES


@<TRIPOS>ATOM
      1 CA         -6.2762  -17.6443  -45.9954 C.3       0 UNK        -0.1800 
      2 C          -6.1591  -16.7775  -47.2417 C.2       0 UNK         0.5000 
      3 O          -7.0877  -16.0337  -47.5608 O.2       0 UNK        -0.5000 
      4 N          -5.0223  -16.8702  -47.9401 N.am      1 UNK        -0.5000 
      5 CA         -4.6964  -16.0698  -49.1226 C.3       1 UNK         0.1400 
      6 C6         -3.6796  -16.8028  -50.0331 C.3       23 UNK        -0.0398 
      7 S7         -2.0617  -17.1684  -49.2841 S.3       23 UNK        -0.2404 
      8 C8         -1.3691  -18.2546  -50.5697 C.3       23 UNK        -0.0205 
      9 C9          0.0592  -18.6527  -50.2410 C.ar      23 UNK        -0.0193 
     10 C10         1.1027  -17.7565  -50.4772 C.ar      23 UNK        -0.1150 
     11 C11         2.4212  -18.0957  -50.1693 C.ar      23 UNK        -0.0193 
     12 C12         2.6906  -19.3462  -49.6080 C.ar      23 UNK        -0.1150 
     13 C13         1.6570  -20.2569  -49.3687 C.ar      23 UNK        -0.0193 
     14 C14         0.3427  -19.9086  -49.6991 C.ar      23 UNK        -0.1150 
     15 C15         1.9753  -21.6129  -48.7584 C.3       23 UNK        -0.0205 
     16 S16         1.7838  -21.5963  -46.9488 S.3       23 UNK        -0.2404 
     17 C17         0.0074  -21.9693  -46.7599 C.3       23 UNK        -0.0398 
     18 CA         -0.2420  -23.4150  -46.2695 C.3       11 UNK         0.1400 
     19 N           0.4527  -23.7262  -45.0180 N.am      11 UNK        -0.5000 
     20 C           0.6660  -24.9647  -44.5522 C.2       10 UNK         0.5000 
     21 O           0.3050  -25.9818  -45.1413 O.2       10 UNK        -0.5000 
     22 CA          1.3524  -25.0906  -43.1778 C.3       10 UNK         0.1400 
     23 CB          2.8782  -25.1375  -43.3442 C.3       10 UNK        -0.1800 
     24 N           1.0024  -24.0033  -42.2631 N.am      10 UNK        -0.5000 
     25 C          -0.2361  -23.7454  -41.8199 C.2       9 UNK         0.5000 
     26 O          -1.2072  -24.4615  -42.0649 O.2       9 UNK        -0.5000 
     27 CA         -0.4340  -22.4326  -41.0335 C.3       9 UNK         0.1400 
     28 CB         -0.3489  -22.6946  -39.5229 C.3       9 UNK        -0.1800 
     29 N           0.5148  -21.3695  -41.3955 N.am      9 UNK        -0.5000 
     30 C           0.6557  -20.8504  -42.6237 C.2       8 UNK         0.5000 
     31 O          -0.0115  -21.2198  -43.5920 O.2       8 UNK        -0.5000 
     32 CA          1.7491  -19.7862  -42.8068 C.3       8 UNK         0.1400 
     33 CB          3.1443  -20.3589  -42.4968 C.3       8 UNK        -0.1800 
     34 N           1.7419  -19.3008  -44.1859 N.am      8 UNK        -0.5000 
     35 C           1.9038  -18.0288  -44.5585 C.2       7 UNK         0.5000 
     36 O           2.0475  -17.0963  -43.7622 O.2       7 UNK        -0.5000 
     37 CA          1.8735  -17.7544  -46.0753 C.3       7 UNK         0.1400 
     38 CB          0.4274  -17.6221  -46.5715 C.3       7 UNK        -0.1800 
     39 N           2.5924  -16.5225  -46.3903 N.am      7 UNK        -0.5000 
     40 C           3.9268  -16.4103  -46.4252 C.2       6 UNK         0.5000 
     41 O           4.6993  -17.3689  -46.3896 O.2       6 UNK        -0.5000 
     42 CA          4.4915  -14.9784  -46.4470 C.3       6 UNK         0.1400 
     43 CB          4.3871  -14.3503  -47.8441 C.3       6 UNK        -0.1800 
     44 N           3.8007  -14.1343  -45.4720 N.am      6 UNK        -0.5000 
     45 C           4.0087  -14.1808  -44.1489 C.2       5 UNK         0.5000 
     46 O           4.9162  -14.8357  -43.6338 O.2       5 UNK        -0.5000 
     47 CA          3.0463  -13.3993  -43.2276 C.3       5 UNK         0.1400 
     48 CB          3.6877  -12.0912  -42.7235 C.3       5 UNK        -0.1800 
     49 N           1.7028  -13.1704  -43.7809 N.am      5 UNK        -0.5000 
     50 C           1.3373  -12.3657  -44.7867 C.2       4 UNK         0.5000 
     51 O           2.1120  -11.6318  -45.4042 O.2       4 UNK        -0.5000 
     52 CA         -0.1473  -12.4242  -45.1949 C.3       4 UNK         0.1400 
     53 CB         -0.9230  -11.2421  -44.5949 C.3       4 UNK        -0.1800 
     54 N          -0.3193  -12.4200  -46.6476 N.am      4 UNK        -0.5000 
     55 C           0.1978  -13.3188  -47.4941 C.2       3 UNK         0.5000 
     56 O           0.8510  -14.2987  -47.1271 O.2       3 UNK        -0.5000 
     57 CA         -0.0712  -13.0745  -48.9942 C.3       3 UNK         0.1400 
     58 CB          0.6104  -14.1174  -49.8896 C.3       3 UNK        -0.1800 
     59 N          -1.4995  -13.0833  -49.3034 N.am      3 UNK        -0.5000 
     60 C          -2.3595  -12.0807  -49.0872 C.2       2 UNK         0.5000 
     61 O          -2.0292  -11.0006  -48.5947 O.2       2 UNK        -0.5000 
     62 CA         -3.8327  -12.3169  -49.4805 C.3       2 UNK         0.1400 
     63 CB         -4.1777  -11.5186  -50.7470 C.3       2 UNK        -0.1800 
     64 N          -4.1871  -13.7264  -49.6930 N.am      2 UNK        -0.5000 
     65 C          -4.2421  -14.6472  -48.7194 C.2       1 UNK         0.5000 
     66 O          -3.9447  -14.3997  -47.5470 O.2       1 UNK        -0.5000 
     67 C          -1.7529  -23.6773  -46.1478 C.2       11 UNK         0.5000 
     68 O          -2.3714  -24.0969  -47.1255 O.2       11 UNK        -0.5000 
     69 N          -2.3201  -23.4454  -44.9559 N.am      12 UNK        -0.5000 
     70 CA         -3.7090  -23.7721  -44.6369 C.3       12 UNK         0.1400 
     71 CB         -4.1358  -23.0542  -43.3480 C.3       12 UNK        -0.1800 
     72 C          -3.9238  -25.2918  -44.5385 C.2       12 UNK         0.5000 
     73 O          -4.9065  -25.7978  -45.0796 O.2       12 UNK        -0.5000 
     74 N          -2.9746  -25.9950  -43.9035 N.am      13 UNK        -0.5000 
     75 CA         -2.9522  -27.4555  -43.7906 C.3       13 UNK         0.1400 
     76 CB         -1.8323  -27.8758  -42.8269 C.3       13 UNK        -0.1800 
     77 C          -2.7990  -28.1632  -45.1519 C.2       13 UNK         0.5000 
     78 O          -3.4759  -29.1621  -45.3974 O.2       13 UNK        -0.5000 
     79 N          -1.9382  -27.6164  -46.0217 N.am      14 UNK        -0.5000 
     80 CA         -1.7114  -28.0915  -47.3897 C.3       14 UNK         0.1400 
     81 CB         -0.3685  -27.5333  -47.8882 C.3       14 UNK        -0.1800 
     82 C          -2.8354  -27.7123  -48.3760 C.2       14 UNK         0.5000 
     83 O          -2.8558  -28.2407  -49.4880 O.2       14 UNK        -0.5000 
     84 N          -3.7182  -26.7865  -47.9716 N.am      15 UNK        -0.5000 
     85 CA         -4.7934  -26.1645  -48.7546 C.3       15 UNK         0.1400 
     86 CB         -5.8318  -27.2055  -49.2206 C.3       15 UNK        -0.1800 
     87 C          -4.2810  -25.2695  -49.9052 C.2       15 UNK         0.5000 
     88 O          -5.0318  -24.9644  -50.8317 O.2       15 UNK        -0.5000 
     89 N          -3.0260  -24.8135  -49.8009 N.am      16 UNK        -0.5000 
     90 CA         -2.4049  -23.8231  -50.6809 C.3       16 UNK         0.1400 
     91 CB         -0.8855  -23.8527  -50.4672 C.3       16 UNK        -0.1800 
     92 C          -2.9607  -22.4084  -50.4343 C.2       16 UNK         0.5000 
     93 O          -2.9974  -21.5948  -51.3562 O.2       16 UNK        -0.5000 
     94 N          -3.4425  -22.1589  -49.2075 N.am      17 UNK        -0.5000 
     95 CA         -4.1298  -20.9343  -48.7872 C.3       17 UNK         0.1400 
     96 CB         -4.3112  -20.9706  -47.2631 C.3       17 UNK        -0.1800 
     97 C          -5.4832  -20.6843  -49.4920 C.2       17 UNK         0.5000 
     98 O          -6.0555  -19.6102  -49.3200 O.2       17 UNK        -0.5000 
     99 N          -5.9727  -21.6571  -50.2757 N.am      18 UNK        -0.5000 
    100 CA        -7.1402  -21.5208  -51.1491 C.3       18 UNK         0.1400 
    101 CB        -7.6060  -22.9206  -51.5779 C.3       18 UNK        -0.1800 
    102 C         -6.8789  -20.6343  -52.3872 C.2       18 UNK         0.5000 
    103 O         -7.8399  -20.2080  -53.0300 O.2       18 UNK        -0.5000 
    104 N         -5.6018  -20.3742  -52.7086 N.am      19 UNK        -0.5000 
    105 CA        -5.1687  -19.4357  -53.7458 C.3       19 UNK         0.1400 
    106 CB        -3.6533  -19.5995  -53.9481 C.3       19 UNK        -0.1800 
    107 C         -5.5019  -17.9719  -53.3903 C.2       19 UNK         0.5000 
    108 O         -5.7832  -17.6600  -52.2322 O.2       19 UNK        -0.5000 
    109 N         -5.4358  -17.0831  -54.3891 N.am      20 UNK        -0.5000 
    110 CA        -5.6162  -15.6423  -54.1971 C.3       20 UNK         0.1400 
    111 CB        -5.8340  -14.9645  -55.5587 C.3       20 UNK        -0.1800 
    112 C         -4.4288  -15.0043  -53.4526 C.2       20 UNK         0.5000 
    113 O         -4.6352  -14.2354  -52.5132 O.2       20 UNK        -0.5000 
    114 N         -3.2089  -15.3640  -53.8655 N.am      21 UNK        -0.5000 
    115 CA        -1.9397  -14.8617  -53.3496 C.3       21 UNK         0.1400 
    116 CB        -1.6711  -13.4471  -53.9020 C.3       21 UNK        -0.1800 
    117 C         -0.8213  -15.8519  -53.7205 C.2       21 UNK         0.5000 
    118 O         -1.0998  -16.9025  -54.3050 O.2       21 UNK        -0.5000 
    119 N          0.4170  -15.5078  -53.3496 N.am      22 UNK        -0.5000 
    120 CA         1.6357  -16.2905  -53.6102 C.3       22 UNK         0.1400 
    121 C          1.9807  -16.4116  -55.1225 C.2       22 UNK         0.5000 
    122 N          2.5770  -17.5188  -55.5425 N.am      22 UNK        -0.7600 
    123 O          1.7498  -15.4955  -55.9090 O.2       22 UNK        -0.5000 
    124 C124        2.8314  -15.7187  -52.7980 C.3       23 UNK        -0.0398 
    125 S125        3.9812  -17.0041  -52.1952 S.3       23 UNK        -0.2404 
    126 C126        3.5506  -17.1095  -50.4253 C.3       23 UNK        -0.0205 
    127 H127       -6.9080  -18.5090  -46.1992 H         1 UNK         0.0600 
    128 H128       -6.7242  -17.0761  -45.1801 H         1 UNK         0.0600 
    129 H129       -5.3018  -18.0000  -45.6600 H         1 UNK         0.0600 
    130 H130       -4.2785  -17.4663  -47.6098 H         1 UNK         0.3000 
    131 H131       -5.6115  -15.9515  -49.7075 H         1 UNK         0.0600 
    132 H132       -4.1122  -17.7557  -50.3377 H         1 UNK         0.0800 
    133 H133       -3.5186  -16.2454  -50.9543 H         1 UNK         0.0800 
    134 H134       -1.9954  -19.1404  -50.6780 H         1 UNK         0.0800 
    135 H135       -1.3932  -17.7449  -51.5328 H         1 UNK         0.0800 
    136 H136        0.8845  -16.7925  -50.9057 H         1 UNK         0.1150 
    137 H137        3.7073  -19.6121  -49.3547 H         1 UNK         0.1150 
    138 H138       -0.4643  -20.6058  -49.5343 H         1 UNK         0.1150 
    139 H139        1.3528  -22.3894  -49.2013 H         1 UNK         0.0800 
    140 H140        3.0044  -21.8894  -48.9925 H         1 UNK         0.0800 
    141 H141       -0.5033  -21.8107  -47.7081 H         1 UNK         0.0800 
    142 H142       -0.4244  -21.2388  -46.0759 H         1 UNK         0.0800 
    143 H143        0.1397  -24.0934  -47.0355 H         1 UNK         0.0600 
    144 H144        0.7104  -22.9288  -44.4496 H         1 UNK         0.3000 
    145 H145        1.0259  -26.0293  -42.7261 H         1 UNK         0.0600 
    146 H146        3.3750  -25.3003  -42.3876 H         1 UNK         0.0600 
    147 H147        3.1733  -25.9535  -44.0054 H         1 UNK         0.0600 
    148 H148        3.2657  -24.2118  -43.7719 H         1 UNK         0.0600 
    149 H149        1.7428  -23.3669  -42.0086 H         1 UNK         0.3000 
    150 H150       -1.4382  -22.0691  -41.2614 H         1 UNK         0.0600 
    151 H151        0.6457  -23.0316  -39.2282 H         1 UNK         0.0600 
    152 H152       -1.0599  -23.4643  -39.2192 H         1 UNK         0.0600 
    153 H153       -0.5828  -21.7957  -38.9523 H         1 UNK         0.0600 
    154 H154        1.0978  -21.0202  -40.6485 H         1 UNK         0.3000 
    155 H155        1.5281  -18.9713  -42.1146 H         1 UNK         0.0600 
    156 H156        3.3803  -21.2098  -43.1376 H         1 UNK         0.0600 
    157 H157        3.2209  -20.6924  -41.4616 H         1 UNK         0.0600 
    158 H158        3.9183  -19.6059  -42.6472 H         1 UNK         0.0600 
    159 H159        1.5399  -20.0046  -44.8843 H         1 UNK         0.3000 
    160 H160        2.3500  -18.5846  -46.6004 H         1 UNK         0.0600 
    161 H161       -0.1150  -16.8413  -46.0367 H         1 UNK         0.0600 
    162 H162       -0.1207  -18.5564  -46.4455 H         1 UNK         0.0600 
    163 H163        0.4055  -17.3725  -47.6312 H         1 UNK         0.0600 
    164 H164        2.0257  -15.6816  -46.4546 H         1 UNK         0.3000 
    165 H165        5.5497  -15.0278  -46.1817 H         1 UNK         0.0600 
    166 H166        4.8165  -13.3485  -47.8585 H         1 UNK         0.0600 
    167 H167        4.9279  -14.9465  -48.5797 H         1 UNK         0.0600 
    168 H168        3.3525  -14.2745  -48.1741 H         1 UNK         0.0600 
    169 H169        3.0519  -13.5471  -45.8167 H         1 UNK         0.3000 
    170 H170        2.8880  -14.0361  -42.3557 H         1 UNK         0.0600 
    171 H171        4.6102  -12.2980  -42.1796 H         1 UNK         0.0600 
    172 H172        3.9415  -11.4169  -43.5415 H         1 UNK         0.0600 
    173 H173        3.0217  -11.5607  -42.0430 H         1 UNK         0.0600 
    174 H174        0.9872  -13.7564  -43.3733 H         1 UNK         0.3000 
    175 H175       -0.5818  -13.3525  -44.8180 H         1 UNK         0.0600 
    176 H176       -0.8377  -11.2297  -43.5075 H         1 UNK         0.0600 
    177 H177       -0.5479  -10.2869  -44.9652 H         1 UNK         0.0600 
    178 H178       -1.9843  -11.3027  -44.8370 H         1 UNK         0.0600 
    179 H179       -0.8515  -11.6543  -47.0455 H         1 UNK         0.3000 
    180 H180        0.3407  -12.0952  -49.2467 H         1 UNK         0.0600 
    181 H181        0.2644  -15.1197  -49.6412 H         1 UNK         0.0600 
    182 H182        1.6924  -14.0965  -49.7663 H         1 UNK         0.0600 
    183 H183        0.3987  -13.9311  -50.9413 H         1 UNK         0.0600 
    184 H184       -1.8760  -13.9533  -49.6471 H         1 UNK         0.3000 
    185 H185       -4.4487  -11.9366  -48.6630 H         1 UNK         0.0600 
    186 H186       -3.9947  -10.4532  -50.6015 H         1 UNK         0.0600 
    187 H187       -3.5783  -11.8407  -51.5990 H         1 UNK         0.0600 
    188 H188       -5.2284  -11.6338  -51.0138 H         1 UNK         0.0600 
    189 H189       -4.4323  -13.9793  -50.6484 H         1 UNK         0.3000 
    190 H190       -1.7429  -23.1003  -44.2017 H         1 UNK         0.3000 
    191 H191       -4.3416  -23.4060  -45.4464 H         1 UNK         0.0600 
    192 H192       -4.0097  -21.9751  -43.4390 H         1 UNK         0.0600 
    193 H193       -5.1882  -23.2413  -43.1313 H         1 UNK         0.0600 
    194 H194       -3.5617  -23.3872  -42.4840 H         1 UNK         0.0600 
    195 H195       -2.2262  -25.4896  -43.4396 H         1 UNK         0.3000 
    196 H196       -3.9052  -27.7688  -43.3594 H         1 UNK         0.0600 
    197 H197       -1.8297  -28.9565  -42.6800 H         1 UNK         0.0600 
    198 H198       -1.9599  -27.4138  -41.8476 H         1 UNK         0.0600 
    199 H199       -0.8492  -27.5941  -43.2037 H         1 UNK         0.0600 
    200 H200       -1.3523  -26.8470  -45.7103 H         1 UNK         0.3000 
    201 H201       -1.6437  -29.1811  -47.3729 H         1 UNK         0.0600 
    202 H202       -0.1414  -27.8904  -48.8935 H         1 UNK         0.0600 
    203 H203        0.4523  -27.8448  -47.2420 H         1 UNK         0.0600 
    204 H204       -0.3747  -26.4431  -47.9206 H         1 UNK         0.0600 
    205 H205       -3.6023  -26.4163  -47.0376 H         1 UNK         0.3000 
    206 H206       -5.3010  -25.4894  -48.0641 H         1 UNK         0.0600 
    207 H207       -6.1729  -27.8212  -48.3883 H         1 UNK         0.0600 
    208 H208       -6.7108  -26.7172  -49.6429 H         1 UNK         0.0600 
    209 H209       -5.4297  -27.8677  -49.9874 H         1 UNK         0.0600 
    210 H210       -2.5235  -25.0363  -48.9501 H         1 UNK         0.3000 
    211 H211       -2.6167  -24.0908  -51.7180 H         1 UNK         0.0600 
    212 H212       -0.6264  -23.6549  -49.4278 H         1 UNK         0.0600 
    213 H213       -0.3865  -23.1035  -51.0836 H         1 UNK         0.0600 
    214 H214       -0.4703  -24.8246  -50.7346 H         1 UNK         0.0600 
    215 H215       -3.3467  -22.8867  -48.5084 H         1 UNK         0.3000 
    216 H216       -3.4827  -20.0900  -49.0299 H         1 UNK         0.0600 
    217 H217       -4.7502  -20.0418  -46.8999 H         1 UNK         0.0600 
    218 H218       -3.3581  -21.0978  -46.7500 H         1 UNK         0.0600 
    219 H219       -4.9737  -21.7822  -46.9629 H         1 UNK         0.0600 
    220 H220       -5.4517  -22.5187  -50.3593 H         1 UNK         0.3000 
    221 H221       -7.9442  -21.0545  -50.5760 H         1 UNK         0.0600 
    222 H222       -6.8547  -23.4236  -52.1878 H         1 UNK         0.0600 
    223 H223       -7.8145  -23.5518  -50.7137 H         1 UNK         0.0600 
    224 H224       -8.5217  -22.8641  -52.1676 H         1 UNK         0.0600 
    225 H225       -4.8686  -20.7620  -52.1277 H         1 UNK         0.3000 
    226 H226       -5.6812  -19.6915  -54.6752 H         1 UNK         0.0600 
    227 H227       -3.2900  -18.9706  -54.7617 H         1 UNK         0.0600 
    228 H228       -3.0969  -19.3243  -53.0511 H         1 UNK         0.0600 
    229 H229       -3.3961  -20.6294  -54.1964 H         1 UNK         0.0600 
    230 H230       -5.2062  -17.3965  -55.3212 H         1 UNK         0.3000 
    231 H231       -6.5129  -15.4814  -53.5944 H         1 UNK         0.0600 
    232 H232       -4.9826  -15.1082  -56.2250 H         1 UNK         0.0600 
    233 H233       -5.9796  -13.8899  -55.4396 H         1 UNK         0.0600 
    234 H234       -6.7202  -15.3579  -56.0569 H         1 UNK         0.0600 
    235 H235       -3.1097  -16.0733  -54.5806 H         1 UNK         0.3000 
    236 H236       -1.9919  -14.8188  -52.2600 H         1 UNK         0.0600 
    237 H237       -2.4867  -12.7642  -53.6649 H         1 UNK         0.0600 
    238 H238       -0.7653  -13.0154  -53.4757 H         1 UNK         0.0600 
    239 H239       -1.5533  -13.4588  -54.9862 H         1 UNK         0.0600 
    240 H240        0.5605  -14.6001  -52.9355 H         1 UNK         0.3000 
    241 H241        1.4198  -17.2989  -53.2519 H         1 UNK         0.0600 
    242 H242        2.8038  -18.2672  -54.9056 H         1 UNK         0.3800 
    243 H243        2.8206  -17.6068  -56.5169 H         1 UNK         0.3800 
    244 H244        3.3979  -14.9920  -53.3835 H         1 UNK         0.0800 
    245 H245        2.4764  -15.1577  -51.9344 H         1 UNK         0.0800 
    246 H246        4.4412  -17.4125  -49.8724 H         1 UNK         0.0800 
    247 H247        3.2796  -16.1289  -50.0342 H         1 UNK         0.0800 
@<TRIPOS>BOND
     1    1    2 1    
     2    1  127 1    
     3    1  128 1    
     4    1  129 1    
     5    2    3 2    
     6    2    4 am   BACKBONE|DICT|INTERRES
     7    4    5 1    
     8    4  130 1    
     9    5    6 1    
    10    5   65 1    
    11    5  131 1    
    12    6    7 1    
    13    6  132 1    
    14    6  133 1    
    15    7    8 1    
    16    8    9 1    
    17    8  134 1    
    18    8  135 1    
    19    9   10 ar   
    20    9   14 ar   
    21   10   11 ar   
    22   10  136 1    
    23   11   12 ar   
    24   11  126 1    
    25   12   13 ar   
    26   12  137 1    
    27   13   14 ar   
    28   13   15 1    
    29   14  138 1    
    30   15   16 1    
    31   15  139 1    
    32   15  140 1    
    33   16   17 1    
    34   17   18 1    
    35   17  141 1    
    36   17  142 1    
    37   18   19 1    
    38   18   67 1    
    39   18  143 1    
    40   19   20 am   BACKBONE|DICT|INTERRES
    41   19  144 1    
    42   20   21 2    
    43   20   22 1    
    44   22   23 1    
    45   22   24 1    
    46   22  145 1    
    47   23  146 1    
    48   23  147 1    
    49   23  148 1    
    50   24   25 am   BACKBONE|DICT|INTERRES
    51   24  149 1    
    52   25   26 2    
    53   25   27 1    
    54   27   28 1    
    55   27   29 1    
    56   27  150 1    
    57   28  151 1    
    58   28  152 1    
    59   28  153 1    
    60   29   30 am   BACKBONE|DICT|INTERRES
    61   29  154 1    
    62   30   31 2    
    63   30   32 1    
    64   32   33 1    
    65   32   34 1    
    66   32  155 1    
    67   33  156 1    
    68   33  157 1    
    69   33  158 1    
    70   34   35 am   BACKBONE|DICT|INTERRES
    71   34  159 1    
    72   35   36 2    
    73   35   37 1    
    74   37   38 1    
    75   37   39 1    
    76   37  160 1    
    77   38  161 1    
    78   38  162 1    
    79   38  163 1    
    80   39   40 am   BACKBONE|DICT|INTERRES
    81   39  164 1    
    82   40   41 2    
    83   40   42 1    
    84   42   43 1    
    85   42   44 1    
    86   42  165 1    
    87   43  166 1    
    88   43  167 1    
    89   43  168 1    
    90   44   45 am   BACKBONE|DICT|INTERRES
    91   44  169 1    
    92   45   46 2    
    93   45   47 1    
    94   47   48 1    
    95   47   49 1    
    96   47  170 1    
    97   48  171 1    
    98   48  172 1    
    99   48  173 1    
   100   49   50 am   BACKBONE|DICT|INTERRES
   101   49  174 1    
   102   50   51 2    
   103   50   52 1    
   104   52   53 1    
   105   52   54 1    
   106   52  175 1    
   107   53  176 1    
   108   53  177 1    
   109   53  178 1    
   110   54   55 am   BACKBONE|DICT|INTERRES
   111   54  179 1    
   112   55   56 2    
   113   55   57 1    
   114   57   58 1    
   115   57   59 1    
   116   57  180 1    
   117   58  181 1    
   118   58  182 1    
   119   58  183 1    
   120   59   60 am   BACKBONE|DICT|INTERRES
   121   59  184 1    
   122   60   61 2    
   123   60   62 1    
   124   62   63 1    
   125   62   64 1    
   126   62  185 1    
   127   63  186 1    
   128   63  187 1    
   129   63  188 1    
   130   64   65 am   BACKBONE|DICT|INTERRES
   131   64  189 1    
   132   65   66 2    
   133   67   68 2    
   134   67   69 am   BACKBONE|DICT|INTERRES
   135   69   70 1    
   136   69  190 1    
   137   70   71 1    
   138   70   72 1    
   139   70  191 1    
   140   71  192 1    
   141   71  193 1    
   142   71  194 1    
   143   72   73 2    
   144   72   74 am   BACKBONE|DICT|INTERRES
   145   74   75 1    
   146   74  195 1    
   147   75   76 1    
   148   75   77 1    
   149   75  196 1    
   150   76  197 1    
   151   76  198 1    
   152   76  199 1    
   153   77   78 2    
   154   77   79 am   BACKBONE|DICT|INTERRES
   155   79   80 1    
   156   79  200 1    
   157   80   81 1    
   158   80   82 1    
   159   80  201 1    
   160   81  202 1    
   161   81  203 1    
   162   81  204 1    
   163   82   83 2    
   164   82   84 am   BACKBONE|DICT|INTERRES
   165   84   85 1    
   166   84  205 1    
   167   85   86 1    
   168   85   87 1    
   169   85  206 1    
   170   86  207 1    
   171   86  208 1    
   172   86  209 1    
   173   87   88 2    
   174   87   89 am   BACKBONE|DICT|INTERRES
   175   89   90 1    
   176   89  210 1    
   177   90   91 1    
   178   90   92 1    
   179   90  211 1    
   180   91  212 1    
   181   91  213 1    
   182   91  214 1    
   183   92   93 2    
   184   92   94 am   BACKBONE|DICT|INTERRES
   185   94   95 1    
   186   94  215 1    
   187   95   96 1    
   188   95   97 1    
   189   95  216 1    
   190   96  217 1    
   191   96  218 1    
   192   96  219 1    
   193   97   98 2    
   194   97   99 am   BACKBONE|DICT|INTERRES
   195   99  100 1    
   196   99  220 1    
   197  100  101 1    
   198  100  102 1    
   199  100  221 1    
   200  101  222 1    
   201  101  223 1    
   202  101  224 1    
   203  102  103 2    
   204  102  104 am   BACKBONE|DICT|INTERRES
   205  104  105 1    
   206  104  225 1    
   207  105  106 1    
   208  105  107 1    
   209  105  226 1    
   210  106  227 1    
   211  106  228 1    
   212  106  229 1    
   213  107  108 2    
   214  107  109 am   BACKBONE|DICT|INTERRES
   215  109  110 1    
   216  109  230 1    
   217  110  111 1    
   218  110  112 1    
   219  110  231 1    
   220  111  232 1    
   221  111  233 1    
   222  111  234 1    
   223  112  113 2    
   224  112  114 am   BACKBONE|DICT|INTERRES
   225  114  115 1    
   226  114  235 1    
   227  115  116 1    
   228  115  117 1    
   229  115  236 1    
   230  116  237 1    
   231  116  238 1    
   232  116  239 1    
   233  117  118 2    
   234  117  119 am   BACKBONE|DICT|INTERRES
   235  119  120 1    
   236  119  240 1    
   237  120  121 1    
   238  120  124 1    
   239  120  241 1    
   240  121  122 am   BACKBONE|DICT|INTERRES
   241  121  123 2    
   242  122  242 1    
   243  122  243 1    
   244  124  125 1    
   245  124  244 1    
   246  124  245 1    
   247  125  126 1    
   248  126  246 1    
   249  126  247 1    
@<TRIPOS>SUBSTRUCTURE
     1 UNK         1 GROUP             0       ****    0 ROOT    
