@<TRIPOS>MOLECULE
3R540
247   249    1
SMALL
USER_CHARGES


@<TRIPOS>ATOM
      1 CA          2.3327  -13.1678  -52.4563 C.3       0 UNK        -0.1800 
      2 C           2.2118  -13.3413  -50.9495 C.2       0 UNK         0.5000 
      3 O           2.9633  -12.7226  -50.1972 O.2       0 UNK        -0.5000 
      4 N           1.2636  -14.1765  -50.5142 N.am      1 UNK        -0.5000 
      5 CA          0.9638  -14.4822  -49.1120 C.3       1 UNK         0.1400 
      6 C6          0.7333  -16.0036  -48.9074 C.3       23 UNK        -0.0398 
      7 S7          2.2952  -16.9432  -48.8613 S.3       23 UNK        -0.2404 
      8 C8          2.6564  -17.2506  -50.6231 C.3       23 UNK        -0.0205 
      9 C9          1.7040  -18.2395  -51.2803 C.ar      23 UNK        -0.0193 
     10 C10         0.9676  -17.8731  -52.4101 C.ar      23 UNK        -0.1150 
     11 C11         0.1630  -18.8101  -53.0641 C.ar      23 UNK        -0.0193 
     12 C12         0.0754  -20.1122  -52.5625 C.ar      23 UNK        -0.1150 
     13 C13         0.8036  -20.4981  -51.4322 C.ar      23 UNK        -0.0193 
     14 C14         1.6176  -19.5479  -50.7998 C.ar      23 UNK        -0.1150 
     15 C15         0.6896  -21.9498  -50.9562 C.3       23 UNK        -0.0205 
     16 S16         1.8995  -22.4697  -49.6905 S.3       23 UNK        -0.2404 
     17 C17         1.1754  -21.7593  -48.1707 C.3       23 UNK        -0.0398 
     18 CA          0.7424  -22.8642  -47.1808 C.3       11 UNK         0.1400 
     19 N           0.7352  -22.4031  -45.7912 N.am      11 UNK        -0.5000 
     20 C           0.6930  -23.2287  -44.7356 C.2       10 UNK         0.5000 
     21 O           0.6477  -24.4558  -44.8294 O.2       10 UNK        -0.5000 
     22 CA          0.6566  -22.5779  -43.3423 C.3       10 UNK         0.1400 
     23 CB          2.0394  -22.0340  -42.9529 C.3       10 UNK        -0.1800 
     24 N          -0.3410  -21.5134  -43.2466 N.am      10 UNK        -0.5000 
     25 C          -1.6600  -21.7013  -43.3990 C.2       9 UNK         0.5000 
     26 O          -2.1787  -22.7989  -43.6040 O.2       9 UNK        -0.5000 
     27 CA         -2.5479  -20.4463  -43.3600 C.3       9 UNK         0.1400 
     28 CB         -2.8067  -20.0118  -41.9098 C.3       9 UNK        -0.1800 
     29 N          -1.9925  -19.3269  -44.1221 N.am      9 UNK        -0.5000 
     30 C          -1.7291  -19.3563  -45.4368 C.2       8 UNK         0.5000 
     31 O          -1.9191  -20.3373  -46.1506 O.2       8 UNK        -0.5000 
     32 CA         -1.0907  -18.1015  -46.0515 C.3       8 UNK         0.1400 
     33 CB         -2.1181  -16.9652  -46.1588 C.3       8 UNK        -0.1800 
     34 N           0.0820  -17.6606  -45.3014 N.am      8 UNK        -0.5000 
     35 C           1.1828  -18.4037  -45.1105 C.2       7 UNK         0.5000 
     36 O           1.3530  -19.5255  -45.5908 O.2       7 UNK        -0.5000 
     37 CA          2.2473  -17.8138  -44.1733 C.3       7 UNK         0.1400 
     38 CB          3.1413  -16.8126  -44.9213 C.3       7 UNK        -0.1800 
     39 N           1.6389  -17.1686  -43.0092 N.am      7 UNK        -0.5000 
     40 C           1.0180  -17.8269  -42.0195 C.2       6 UNK         0.5000 
     41 O           0.9240  -19.0535  -41.9658 O.2       6 UNK        -0.5000 
     42 CA          0.3580  -16.9659  -40.9264 C.3       6 UNK         0.1400 
     43 CB          1.4006  -16.4922  -39.9028 C.3       6 UNK        -0.1800 
     44 N          -0.3506  -15.8070  -41.4723 N.am      6 UNK        -0.5000 
     45 C          -1.4506  -15.8888  -42.2332 C.2       5 UNK         0.5000 
     46 O          -1.9987  -16.9497  -42.5270 O.2       5 UNK        -0.5000 
     47 CA         -2.0176  -14.5724  -42.7945 C.3       5 UNK         0.1400 
     48 CB         -3.0076  -13.9462  -41.8017 C.3       5 UNK        -0.1800 
     49 N          -1.0099  -13.5746  -43.1613 N.am      5 UNK        -0.5000 
     50 C           0.0131  -13.7576  -44.0064 C.2       4 UNK         0.5000 
     51 O           0.3062  -14.8497  -44.4962 O.2       4 UNK        -0.5000 
     52 CA          0.8176  -12.4935  -44.3712 C.3       4 UNK         0.1400 
     53 CB          2.0695  -12.8122  -45.2079 C.3       4 UNK        -0.1800 
     54 N          -0.0154  -11.5469  -45.1127 N.am      4 UNK        -0.5000 
     55 C          -0.9384  -10.7258  -44.5965 C.2       3 UNK         0.5000 
     56 O          -1.1398  -10.6238  -43.3852 O.2       3 UNK        -0.5000 
     57 CA         -1.8249   -9.9222  -45.5747 C.3       3 UNK         0.1400 
     58 CB         -1.3064   -8.4813  -45.7470 C.3       3 UNK        -0.1800 
     59 N          -2.0626  -10.5802  -46.8709 N.am      3 UNK        -0.5000 
     60 C          -1.1938  -10.8040  -47.8655 C.2       2 UNK         0.5000 
     61 O          -0.0265  -10.4078  -47.8654 O.2       2 UNK        -0.5000 
     62 CA         -1.6981  -11.6724  -49.0344 C.3       2 UNK         0.1400 
     63 CB         -2.0386  -10.8061  -50.2556 C.3       2 UNK        -0.1800 
     64 N          -0.6976  -12.6697  -49.4157 N.am      2 UNK        -0.5000 
     65 C          -0.2303  -13.6372  -48.6110 C.2       1 UNK         0.5000 
     66 O          -0.7002  -13.8535  -47.4954 O.2       1 UNK        -0.5000 
     67 C          -0.5940  -23.5204  -47.5833 C.2       11 UNK         0.5000 
     68 O          -0.5767  -24.5654  -48.2319 O.2       11 UNK        -0.5000 
     69 N          -1.7221  -22.9392  -47.1499 N.am      12 UNK        -0.5000 
     70 CA         -3.0674  -23.4816  -47.3411 C.3       12 UNK         0.1400 
     71 CB         -4.1075  -22.5033  -46.7776 C.3       12 UNK        -0.1800 
     72 C          -3.2421  -24.8698  -46.7050 C.2       12 UNK         0.5000 
     73 O          -3.7923  -25.7607  -47.3515 O.2       12 UNK        -0.5000 
     74 N          -2.7379  -25.0380  -45.4741 N.am      13 UNK        -0.5000 
     75 CA         -2.7248  -26.3098  -44.7532 C.3       13 UNK         0.1400 
     76 CB         -2.3103  -26.0735  -43.2932 C.3       13 UNK        -0.1800 
     77 C          -1.8148  -27.3586  -45.4168 C.2       13 UNK         0.5000 
     78 O          -2.2191  -28.5154  -45.5349 O.2       13 UNK        -0.5000 
     79 N          -0.6205  -26.9365  -45.8575 N.am      14 UNK        -0.5000 
     80 CA          0.3567  -27.7824  -46.5468 C.3       14 UNK         0.1400 
     81 CB          1.6886  -27.0285  -46.6806 C.3       14 UNK        -0.1800 
     82 C          -0.1341  -28.2693  -47.9228 C.2       14 UNK         0.5000 
     83 O           0.0410  -29.4436  -48.2506 O.2       14 UNK        -0.5000 
     84 N          -0.7549  -27.3660  -48.6925 N.am      15 UNK        -0.5000 
     85 CA         -1.3471  -27.6534  -49.9997 C.3       15 UNK         0.1400 
     86 CB         -1.5515  -26.3286  -50.7527 C.3       15 UNK        -0.1800 
     87 C          -2.6829  -28.4159  -49.9095 C.2       15 UNK         0.5000 
     88 O          -3.0879  -29.0275  -50.8988 O.2       15 UNK        -0.5000 
     89 N          -3.3485  -28.3352  -48.7466 N.am      16 UNK        -0.5000 
     90 CA         -4.7221  -28.7696  -48.4697 C.3       16 UNK         0.1400 
     91 CB         -4.8492  -30.3051  -48.5471 C.3       16 UNK        -0.1800 
     92 C          -5.7290  -28.0175  -49.3658 C.2       16 UNK         0.5000 
     93 O          -6.5844  -28.6326  -50.0061 O.2       16 UNK        -0.5000 
     94 N          -5.5634  -26.6914  -49.4246 N.am      17 UNK        -0.5000 
     95 CA         -6.2665  -25.7866  -50.3257 C.3       17 UNK         0.1400 
     96 CB         -5.5659  -25.7850  -51.7030 C.3       17 UNK        -0.1800 
     97 C          -6.3857  -24.4009  -49.6655 C.2       17 UNK         0.5000 
     98 O          -6.8830  -24.3107  -48.5420 O.2       17 UNK        -0.5000 
     99 N          -5.9472  -23.3499  -50.3654 N.am      18 UNK        -0.5000 
    100 CA        -5.9838  -21.9529  -49.9451 C.3       18 UNK         0.1400 
    101 CB        -7.2739  -21.2996  -50.4709 C.3       18 UNK        -0.1800 
    102 C         -4.7359  -21.2357  -50.4837 C.2       18 UNK         0.5000 
    103 O         -4.0503  -21.7721  -51.3588 O.2       18 UNK        -0.5000 
    104 N         -4.4744  -20.0328  -49.9650 N.am      19 UNK        -0.5000 
    105 CA        -3.3805  -19.1598  -50.3765 C.3       19 UNK         0.1400 
    106 CB        -2.1129  -19.5103  -49.5842 C.3       19 UNK        -0.1800 
    107 C         -3.7911  -17.7014  -50.1325 C.2       19 UNK         0.5000 
    108 O         -4.6039  -17.4330  -49.2440 O.2       19 UNK        -0.5000 
    109 N         -3.2083  -16.7960  -50.9193 N.am      20 UNK        -0.5000 
    110 CA        -3.4028  -15.3505  -50.9063 C.3       20 UNK         0.1400 
    111 CB        -4.8226  -14.9782  -51.3906 C.3       20 UNK        -0.1800 
    112 C         -2.2755  -14.7556  -51.7675 C.2       20 UNK         0.5000 
    113 O         -1.1325  -15.1955  -51.6340 O.2       20 UNK        -0.5000 
    114 N         -2.5878  -13.7974  -52.6505 N.am      21 UNK        -0.5000 
    115 CA        -1.6545  -13.2924  -53.6599 C.3       21 UNK         0.1400 
    116 CB        -2.2281  -12.0270  -54.3183 C.3       21 UNK        -0.1800 
    117 C         -1.3243  -14.3822  -54.6984 C.2       21 UNK         0.5000 
    118 O         -0.1611  -14.7658  -54.8167 O.2       21 UNK        -0.5000 
    119 N         -2.3758  -14.8790  -55.3724 N.am      22 UNK        -0.5000 
    120 CA        -2.4121  -16.0377  -56.2916 C.3       22 UNK         0.1400 
    121 C         -1.2388  -16.1866  -57.3124 C.2       22 UNK         0.5000 
    122 N         -0.7025  -15.0933  -57.8399 N.am      22 UNK        -0.7600 
    123 O         -0.8294  -17.2904  -57.6624 O.2       22 UNK        -0.5000 
    124 C124       -2.8683  -17.3670  -55.6069 C.3       23 UNK        -0.0398 
    125 S125       -2.2037  -17.7174  -53.9436 S.3       23 UNK        -0.2404 
    126 C126       -0.5823  -18.4254  -54.3324 C.3       23 UNK        -0.0205 
    127 H127        3.3692  -13.2961  -52.7680 H         1 UNK         0.0600 
    128 H128        2.0073  -12.1696  -52.7484 H         1 UNK         0.0600 
    129 H129        1.7274  -13.8977  -52.9945 H         1 UNK         0.0600 
    130 H130        0.6294  -14.6207  -51.1748 H         1 UNK         0.3000 
    131 H131        1.8065  -14.1869  -48.4839 H         1 UNK         0.0600 
    132 H132        0.0671  -16.4199  -49.6637 H         1 UNK         0.0800 
    133 H133        0.2538  -16.1960  -47.9480 H         1 UNK         0.0800 
    134 H134        2.6804  -16.3097  -51.1702 H         1 UNK         0.0800 
    135 H135        3.6664  -17.6560  -50.6941 H         1 UNK         0.0800 
    136 H136        1.0351  -16.8659  -52.7985 H         1 UNK         0.1150 
    137 H137       -0.5513  -20.8349  -53.0664 H         1 UNK         0.1150 
    138 H138        2.2068  -19.8096  -49.9346 H         1 UNK         0.1150 
    139 H139       -0.3202  -22.1388  -50.5905 H         1 UNK         0.0800 
    140 H140        0.8242  -22.6037  -51.8190 H         1 UNK         0.0800 
    141 H141        0.3531  -21.0793  -48.4011 H         1 UNK         0.0800 
    142 H142        1.9518  -21.1405  -47.7188 H         1 UNK         0.0800 
    143 H143        1.5001  -23.6500  -47.2231 H         1 UNK         0.0600 
    144 H144        0.7786  -21.3989  -45.6394 H         1 UNK         0.3000 
    145 H145        0.3842  -23.3531  -42.6231 H         1 UNK         0.0600 
    146 H146        2.0410  -21.6623  -41.9282 H         1 UNK         0.0600 
    147 H147        2.7988  -22.8143  -43.0170 H         1 UNK         0.0600 
    148 H148        2.3507  -21.2169  -43.6042 H         1 UNK         0.0600 
    149 H149        0.0050  -20.5799  -43.0521 H         1 UNK         0.3000 
    150 H150       -3.5070  -20.7067  -43.8115 H         1 UNK         0.0600 
    151 H151       -3.2153  -20.8340  -41.3210 H         1 UNK         0.0600 
    152 H152       -3.5256  -19.1936  -41.8670 H         1 UNK         0.0600 
    153 H153       -1.8908  -19.6782  -41.4204 H         1 UNK         0.0600 
    154 H154       -1.8276  -18.4677  -43.6029 H         1 UNK         0.3000 
    155 H155       -0.7501  -18.3518  -47.0577 H         1 UNK         0.0600 
    156 H156       -2.5420  -16.7083  -45.1890 H         1 UNK         0.0600 
    157 H157       -2.9444  -17.2508  -46.8110 H         1 UNK         0.0600 
    158 H158       -1.6745  -16.0627  -46.5737 H         1 UNK         0.0600 
    159 H159        0.0512  -16.7282  -44.8977 H         1 UNK         0.3000 
    160 H160        2.8767  -18.6332  -43.8198 H         1 UNK         0.0600 
    161 H161        2.5670  -15.9828  -45.3339 H         1 UNK         0.0600 
    162 H162        3.6512  -17.2978  -45.7545 H         1 UNK         0.0600 
    163 H163        3.9079  -16.3991  -44.2661 H         1 UNK         0.0600 
    164 H164        1.5920  -16.1597  -43.0264 H         1 UNK         0.3000 
    165 H165       -0.3691  -17.5927  -40.4054 H         1 UNK         0.0600 
    166 H166        0.9292  -15.9520  -39.0816 H         1 UNK         0.0600 
    167 H167        1.9339  -17.3394  -39.4693 H         1 UNK         0.0600 
    168 H168        2.1428  -15.8340  -40.3560 H         1 UNK         0.0600 
    169 H169        0.0388  -14.8952  -41.2834 H         1 UNK         0.3000 
    170 H170       -2.5654  -14.8187  -43.7056 H         1 UNK         0.0600 
    171 H171       -3.7894  -14.6561  -41.5279 H         1 UNK         0.0600 
    172 H172       -2.5110  -13.6327  -40.8826 H         1 UNK         0.0600 
    173 H173       -3.4993  -13.0734  -42.2321 H         1 UNK         0.0600 
    174 H174       -1.1795  -12.6262  -42.8448 H         1 UNK         0.3000 
    175 H175        1.1462  -12.0275  -43.4401 H         1 UNK         0.0600 
    176 H176        2.7364  -13.4877  -44.6710 H         1 UNK         0.0600 
    177 H177        1.8113  -13.2883  -46.1541 H         1 UNK         0.0600 
    178 H178        2.6350  -11.9077  -45.4322 H         1 UNK         0.0600 
    179 H179        0.0768  -11.5651  -46.1209 H         1 UNK         0.3000 
    180 H180       -2.8070   -9.8548  -45.1041 H         1 UNK         0.0600 
    181 H181       -0.2946   -8.4540  -46.1517 H         1 UNK         0.0600 
    182 H182       -1.2827   -7.9627  -44.7879 H         1 UNK         0.0600 
    183 H183       -1.9510   -7.9060  -46.4114 H         1 UNK         0.0600 
    184 H184       -2.9869  -10.9781  -46.9666 H         1 UNK         0.3000 
    185 H185       -2.5993  -12.2043  -48.7225 H         1 UNK         0.0600 
    186 H186       -2.4526  -11.4085  -51.0633 H         1 UNK         0.0600 
    187 H187       -2.7826  -10.0496  -50.0026 H         1 UNK         0.0600 
    188 H188       -1.1594  -10.2868  -50.6392 H         1 UNK         0.0600 
    189 H189       -0.2307  -12.5308  -50.2986 H         1 UNK         0.3000 
    190 H190       -1.6657  -22.0543  -46.6479 H         1 UNK         0.3000 
    191 H191       -3.2367  -23.5822  -48.4153 H         1 UNK         0.0600 
    192 H192       -3.9431  -22.3091  -45.7178 H         1 UNK         0.0600 
    193 H193       -5.1173  -22.9013  -46.8804 H         1 UNK         0.0600 
    194 H194       -4.0732  -21.5475  -47.3000 H         1 UNK         0.0600 
    195 H195       -2.3367  -24.2393  -44.9918 H         1 UNK         0.3000 
    196 H196       -3.7427  -26.7053  -44.7552 H         1 UNK         0.0600 
    197 H197       -2.2977  -27.0092  -42.7330 H         1 UNK         0.0600 
    198 H198       -3.0075  -25.4029  -42.7906 H         1 UNK         0.0600 
    199 H199       -1.3151  -25.6332  -43.2225 H         1 UNK         0.0600 
    200 H200       -0.3438  -25.9758  -45.6793 H         1 UNK         0.3000 
    201 H201        0.5296  -28.6640  -45.9260 H         1 UNK         0.0600 
    202 H202        2.0820  -26.7467  -45.7039 H         1 UNK         0.0600 
    203 H203        1.5789  -26.1195  -47.2723 H         1 UNK         0.0600 
    204 H204        2.4416  -27.6489  -47.1681 H         1 UNK         0.0600 
    205 H205       -0.8013  -26.3983  -48.3785 H         1 UNK         0.3000 
    206 H206       -0.6496  -28.2689  -50.5714 H         1 UNK         0.0600 
    207 H207       -0.6097  -25.7923  -50.8721 H         1 UNK         0.0600 
    208 H208       -1.9565  -26.5019  -51.7505 H         1 UNK         0.0600 
    209 H209       -2.2454  -25.6717  -50.2260 H         1 UNK         0.0600 
    210 H210       -2.9304  -27.7691  -48.0199 H         1 UNK         0.3000 
    211 H211       -4.9374  -28.4716  -47.4424 H         1 UNK         0.0600 
    212 H212       -4.6981  -30.6781  -49.5603 H         1 UNK         0.0600 
    213 H213       -5.8395  -30.6288  -48.2253 H         1 UNK         0.0600 
    214 H214       -4.1212  -30.7919  -47.8982 H         1 UNK         0.0600 
    215 H215       -4.8916  -26.2622  -48.7909 H         1 UNK         0.3000 
    216 H216       -7.2893  -26.1434  -50.4622 H         1 UNK         0.0600 
    217 H217       -4.5360  -25.4327  -51.6332 H         1 UNK         0.0600 
    218 H218       -6.0937  -25.1529  -52.4182 H         1 UNK         0.0600 
    219 H219       -5.5391  -26.7880  -52.1295 H         1 UNK         0.0600 
    220 H220       -5.4730  -23.5021  -51.2466 H         1 UNK         0.3000 
    221 H221       -5.9700  -21.8885  -48.8568 H         1 UNK         0.0600 
    222 H222       -8.1578  -21.8079  -50.0848 H         1 UNK         0.0600 
    223 H223       -7.3219  -21.3267  -51.5602 H         1 UNK         0.0600 
    224 H224       -7.3424  -20.2554  -50.1638 H         1 UNK         0.0600 
    225 H225       -5.1022  -19.6158  -49.2890 H         1 UNK         0.3000 
    226 H226       -3.1895  -19.2924  -51.4438 H         1 UNK         0.0600 
    227 H227       -1.8210  -20.5472  -49.7430 H         1 UNK         0.0600 
    228 H228       -1.2729  -18.8803  -49.8796 H         1 UNK         0.0600 
    229 H229       -2.2744  -19.3721  -48.5178 H         1 UNK         0.0600 
    230 H230       -2.5168  -17.1025  -51.5951 H         1 UNK         0.3000 
    231 H231       -3.2615  -14.9867  -49.8868 H         1 UNK         0.0600 
    232 H232       -5.0011  -15.3171  -52.4120 H         1 UNK         0.0600 
    233 H233       -4.9843  -13.9003  -51.3575 H         1 UNK         0.0600 
    234 H234       -5.5892  -15.4253  -50.7582 H         1 UNK         0.0600 
    235 H235       -3.5459  -13.4869  -52.7150 H         1 UNK         0.3000 
    236 H236       -0.7249  -13.0139  -53.1589 H         1 UNK         0.0600 
    237 H237       -1.5556  -11.6517  -55.0907 H         1 UNK         0.0600 
    238 H238       -3.1963  -12.2093  -54.7853 H         1 UNK         0.0600 
    239 H239       -2.3566  -11.2285  -53.5875 H         1 UNK         0.0600 
    240 H240       -3.2770  -14.4673  -55.1835 H         1 UNK         0.3000 
    241 H241       -3.2355  -15.7895  -56.9627 H         1 UNK         0.0600 
    242 H242        0.0503  -15.1820  -58.5041 H         1 UNK         0.3800 
    243 H243       -1.0140  -14.1785  -57.5549 H         1 UNK         0.3800 
    244 H244       -3.9506  -17.3230  -55.4797 H         1 UNK         0.0800 
    245 H245       -2.7081  -18.2351  -56.2478 H         1 UNK         0.0800 
    246 H246       -0.7073  -19.2951  -54.9791 H         1 UNK         0.0800 
    247 H247        0.0020  -17.6982  -54.8984 H         1 UNK         0.0800 
@<TRIPOS>BOND
     1    1    2 1    
     2    1  127 1    
     3    1  128 1    
     4    1  129 1    
     5    2    3 2    
     6    2    4 am   BACKBONE|DICT|INTERRES
     7    4    5 1    
     8    4  130 1    
     9    5    6 1    
    10    5   65 1    
    11    5  131 1    
    12    6    7 1    
    13    6  132 1    
    14    6  133 1    
    15    7    8 1    
    16    8    9 1    
    17    8  134 1    
    18    8  135 1    
    19    9   10 ar   
    20    9   14 ar   
    21   10   11 ar   
    22   10  136 1    
    23   11   12 ar   
    24   11  126 1    
    25   12   13 ar   
    26   12  137 1    
    27   13   14 ar   
    28   13   15 1    
    29   14  138 1    
    30   15   16 1    
    31   15  139 1    
    32   15  140 1    
    33   16   17 1    
    34   17   18 1    
    35   17  141 1    
    36   17  142 1    
    37   18   19 1    
    38   18   67 1    
    39   18  143 1    
    40   19   20 am   BACKBONE|DICT|INTERRES
    41   19  144 1    
    42   20   21 2    
    43   20   22 1    
    44   22   23 1    
    45   22   24 1    
    46   22  145 1    
    47   23  146 1    
    48   23  147 1    
    49   23  148 1    
    50   24   25 am   BACKBONE|DICT|INTERRES
    51   24  149 1    
    52   25   26 2    
    53   25   27 1    
    54   27   28 1    
    55   27   29 1    
    56   27  150 1    
    57   28  151 1    
    58   28  152 1    
    59   28  153 1    
    60   29   30 am   BACKBONE|DICT|INTERRES
    61   29  154 1    
    62   30   31 2    
    63   30   32 1    
    64   32   33 1    
    65   32   34 1    
    66   32  155 1    
    67   33  156 1    
    68   33  157 1    
    69   33  158 1    
    70   34   35 am   BACKBONE|DICT|INTERRES
    71   34  159 1    
    72   35   36 2    
    73   35   37 1    
    74   37   38 1    
    75   37   39 1    
    76   37  160 1    
    77   38  161 1    
    78   38  162 1    
    79   38  163 1    
    80   39   40 am   BACKBONE|DICT|INTERRES
    81   39  164 1    
    82   40   41 2    
    83   40   42 1    
    84   42   43 1    
    85   42   44 1    
    86   42  165 1    
    87   43  166 1    
    88   43  167 1    
    89   43  168 1    
    90   44   45 am   BACKBONE|DICT|INTERRES
    91   44  169 1    
    92   45   46 2    
    93   45   47 1    
    94   47   48 1    
    95   47   49 1    
    96   47  170 1    
    97   48  171 1    
    98   48  172 1    
    99   48  173 1    
   100   49   50 am   BACKBONE|DICT|INTERRES
   101   49  174 1    
   102   50   51 2    
   103   50   52 1    
   104   52   53 1    
   105   52   54 1    
   106   52  175 1    
   107   53  176 1    
   108   53  177 1    
   109   53  178 1    
   110   54   55 am   BACKBONE|DICT|INTERRES
   111   54  179 1    
   112   55   56 2    
   113   55   57 1    
   114   57   58 1    
   115   57   59 1    
   116   57  180 1    
   117   58  181 1    
   118   58  182 1    
   119   58  183 1    
   120   59   60 am   BACKBONE|DICT|INTERRES
   121   59  184 1    
   122   60   61 2    
   123   60   62 1    
   124   62   63 1    
   125   62   64 1    
   126   62  185 1    
   127   63  186 1    
   128   63  187 1    
   129   63  188 1    
   130   64   65 am   BACKBONE|DICT|INTERRES
   131   64  189 1    
   132   65   66 2    
   133   67   68 2    
   134   67   69 am   BACKBONE|DICT|INTERRES
   135   69   70 1    
   136   69  190 1    
   137   70   71 1    
   138   70   72 1    
   139   70  191 1    
   140   71  192 1    
   141   71  193 1    
   142   71  194 1    
   143   72   73 2    
   144   72   74 am   BACKBONE|DICT|INTERRES
   145   74   75 1    
   146   74  195 1    
   147   75   76 1    
   148   75   77 1    
   149   75  196 1    
   150   76  197 1    
   151   76  198 1    
   152   76  199 1    
   153   77   78 2    
   154   77   79 am   BACKBONE|DICT|INTERRES
   155   79   80 1    
   156   79  200 1    
   157   80   81 1    
   158   80   82 1    
   159   80  201 1    
   160   81  202 1    
   161   81  203 1    
   162   81  204 1    
   163   82   83 2    
   164   82   84 am   BACKBONE|DICT|INTERRES
   165   84   85 1    
   166   84  205 1    
   167   85   86 1    
   168   85   87 1    
   169   85  206 1    
   170   86  207 1    
   171   86  208 1    
   172   86  209 1    
   173   87   88 2    
   174   87   89 am   BACKBONE|DICT|INTERRES
   175   89   90 1    
   176   89  210 1    
   177   90   91 1    
   178   90   92 1    
   179   90  211 1    
   180   91  212 1    
   181   91  213 1    
   182   91  214 1    
   183   92   93 2    
   184   92   94 am   BACKBONE|DICT|INTERRES
   185   94   95 1    
   186   94  215 1    
   187   95   96 1    
   188   95   97 1    
   189   95  216 1    
   190   96  217 1    
   191   96  218 1    
   192   96  219 1    
   193   97   98 2    
   194   97   99 am   BACKBONE|DICT|INTERRES
   195   99  100 1    
   196   99  220 1    
   197  100  101 1    
   198  100  102 1    
   199  100  221 1    
   200  101  222 1    
   201  101  223 1    
   202  101  224 1    
   203  102  103 2    
   204  102  104 am   BACKBONE|DICT|INTERRES
   205  104  105 1    
   206  104  225 1    
   207  105  106 1    
   208  105  107 1    
   209  105  226 1    
   210  106  227 1    
   211  106  228 1    
   212  106  229 1    
   213  107  108 2    
   214  107  109 am   BACKBONE|DICT|INTERRES
   215  109  110 1    
   216  109  230 1    
   217  110  111 1    
   218  110  112 1    
   219  110  231 1    
   220  111  232 1    
   221  111  233 1    
   222  111  234 1    
   223  112  113 2    
   224  112  114 am   BACKBONE|DICT|INTERRES
   225  114  115 1    
   226  114  235 1    
   227  115  116 1    
   228  115  117 1    
   229  115  236 1    
   230  116  237 1    
   231  116  238 1    
   232  116  239 1    
   233  117  118 2    
   234  117  119 am   BACKBONE|DICT|INTERRES
   235  119  120 1    
   236  119  240 1    
   237  120  121 1    
   238  120  124 1    
   239  120  241 1    
   240  121  122 am   BACKBONE|DICT|INTERRES
   241  121  123 2    
   242  122  242 1    
   243  122  243 1    
   244  124  125 1    
   245  124  244 1    
   246  124  245 1    
   247  125  126 1    
   248  126  246 1    
   249  126  247 1    
@<TRIPOS>SUBSTRUCTURE
     1 UNK         1 GROUP             0       ****    0 ROOT    
