@<TRIPOS>MOLECULE
3R540
247   249    1
SMALL
USER_CHARGES


@<TRIPOS>ATOM
      1 CA         -2.4915   -8.4863  -44.5731 C.3       0 UNK        -0.1800 
      2 C          -1.7024   -9.7070  -45.0225 C.2       0 UNK         0.5000 
      3 O          -0.4725   -9.6954  -44.9700 O.2       0 UNK        -0.5000 
      4 N          -2.4026  -10.7691  -45.4455 N.am      1 UNK        -0.5000 
      5 CA         -1.8293  -12.0190  -45.9727 C.3       1 UNK         0.1400 
      6 C6         -2.9093  -12.9709  -46.5426 C.3       23 UNK        -0.0398 
      7 S7         -3.8944  -12.1775  -47.8554 S.3       23 UNK        -0.2404 
      8 C8         -5.4121  -13.1870  -47.8288 C.3       23 UNK        -0.0205 
      9 C9         -5.2212  -14.5849  -48.4083 C.ar      23 UNK        -0.0193 
     10 C10        -4.6158  -14.7603  -49.6573 C.ar      23 UNK        -0.1150 
     11 C11        -4.5012  -16.0325  -50.2229 C.ar      23 UNK        -0.0193 
     12 C12        -4.9954  -17.1385  -49.5271 C.ar      23 UNK        -0.1150 
     13 C13        -5.6094  -16.9823  -48.2804 C.ar      23 UNK        -0.0193 
     14 C14        -5.7160  -15.7017  -47.7263 C.ar      23 UNK        -0.1150 
     15 C15        -6.2236  -18.1875  -47.5759 C.3       23 UNK        -0.0205 
     16 S16        -5.5841  -18.4579  -45.8906 S.3       23 UNK        -0.2404 
     17 C17        -3.8735  -19.0003  -46.2162 C.3       23 UNK        -0.0398 
     18 CA         -3.6977  -20.5314  -46.3756 C.3       11 UNK         0.1400 
     19 N          -2.3427  -20.8585  -46.8181 N.am      11 UNK        -0.5000 
     20 C          -1.9357  -22.0513  -47.2693 C.2       10 UNK         0.5000 
     21 O          -2.6802  -23.0164  -47.4298 O.2       10 UNK        -0.5000 
     22 CA         -0.4349  -22.2091  -47.5617 C.3       10 UNK         0.1400 
     23 CB         -0.1039  -21.6920  -48.9656 C.3       10 UNK        -0.1800 
     24 N           0.4120  -21.5402  -46.5734 N.am      10 UNK        -0.5000 
     25 C           0.4698  -21.8913  -45.2803 C.2       9 UNK         0.5000 
     26 O          -0.1817  -22.8148  -44.7930 O.2       9 UNK        -0.5000 
     27 CA          1.3741  -21.0484  -44.3672 C.3       9 UNK         0.1400 
     28 CB          2.8516  -21.4079  -44.5830 C.3       9 UNK        -0.1800 
     29 N           1.1802  -19.6111  -44.5517 N.am      9 UNK        -0.5000 
     30 C           0.0337  -18.9591  -44.3073 C.2       8 UNK         0.5000 
     31 O          -0.9883  -19.4988  -43.8842 O.2       8 UNK        -0.5000 
     32 CA          0.0088  -17.4581  -44.6424 C.3       8 UNK         0.1400 
     33 CB          0.8085  -16.6550  -43.6057 C.3       8 UNK        -0.1800 
     34 N           0.5266  -17.1788  -45.9796 N.am      8 UNK        -0.5000 
     35 C           0.0388  -17.6834  -47.1208 C.2       7 UNK         0.5000 
     36 O          -0.9311  -18.4351  -47.1834 O.2       7 UNK        -0.5000 
     37 CA          0.8044  -17.3392  -48.4048 C.3       7 UNK         0.1400 
     38 CB          0.4392  -15.9338  -48.9051 C.3       7 UNK        -0.1800 
     39 N           2.2507  -17.4477  -48.2154 N.am      7 UNK        -0.5000 
     40 C           2.9017  -18.5987  -47.9926 C.2       6 UNK         0.5000 
     41 O           2.3567  -19.7025  -47.9621 O.2       6 UNK        -0.5000 
     42 CA          4.4129  -18.4890  -47.7206 C.3       6 UNK         0.1400 
     43 CB          5.1875  -18.2899  -49.0322 C.3       6 UNK        -0.1800 
     44 N           4.7413  -17.4082  -46.7880 N.am      6 UNK        -0.5000 
     45 C           4.3920  -17.4017  -45.4938 C.2       5 UNK         0.5000 
     46 O           3.7796  -18.3188  -44.9481 O.2       5 UNK        -0.5000 
     47 CA          4.7519  -16.1466  -44.6741 C.3       5 UNK         0.1400 
     48 CB          6.1872  -16.2501  -44.1373 C.3       5 UNK        -0.1800 
     49 N           4.5895  -14.8670  -45.3747 N.am      5 UNK        -0.5000 
     50 C           3.4862  -14.4628  -46.0177 C.2       4 UNK         0.5000 
     51 O           2.5054  -15.1787  -46.2105 O.2       4 UNK        -0.5000 
     52 CA          3.4564  -12.9979  -46.4725 C.3       4 UNK         0.1400 
     53 CB          2.6219  -12.8000  -47.7498 C.3       4 UNK        -0.1800 
     54 N           2.8674  -12.2078  -45.3985 N.am      4 UNK        -0.5000 
     55 C           3.5564  -11.6026  -44.4231 C.2       3 UNK         0.5000 
     56 O           4.7869  -11.5919  -44.3661 O.2       3 UNK        -0.5000 
     57 CA          2.7435  -10.8929  -43.3227 C.3       3 UNK         0.1400 
     58 CB          2.6576   -9.3857  -43.6069 C.3       3 UNK        -0.1800 
     59 N           1.3898  -11.4325  -43.1749 N.am      3 UNK        -0.5000 
     60 C           1.1041  -12.5894  -42.5574 C.2       2 UNK         0.5000 
     61 O           1.9533  -13.2968  -42.0146 O.2       2 UNK        -0.5000 
     62 CA         -0.3717  -13.0420  -42.5398 C.3       2 UNK         0.1400 
     63 CB         -1.0401  -12.6313  -41.2192 C.3       2 UNK        -0.1800 
     64 N          -1.1687  -12.5239  -43.6528 N.am      2 UNK        -0.5000 
     65 C          -0.9447  -12.7662  -44.9528 C.2       1 UNK         0.5000 
     66 O          -0.0547  -13.5077  -45.3618 O.2       1 UNK        -0.5000 
     67 C          -4.0861  -21.3259  -45.1103 C.2       11 UNK         0.5000 
     68 O          -5.1671  -21.9152  -45.0793 O.2       11 UNK        -0.5000 
     69 N          -3.1886  -21.3713  -44.1142 N.am      12 UNK        -0.5000 
     70 CA         -3.3750  -22.1105  -42.8633 C.3       12 UNK         0.1400 
     71 CB         -2.2509  -21.7513  -41.8797 C.3       12 UNK        -0.1800 
     72 C          -3.4531  -23.6350  -43.0657 C.2       12 UNK         0.5000 
     73 O          -4.3053  -24.2853  -42.4590 O.2       12 UNK        -0.5000 
     74 N          -2.5767  -24.1744  -43.9231 N.am      13 UNK        -0.5000 
     75 CA         -2.5353  -25.5940  -44.2790 C.3       13 UNK         0.1400 
     76 CB         -1.1597  -25.9099  -44.8874 C.3       13 UNK        -0.1800 
     77 C          -3.6484  -26.0140  -45.2583 C.2       13 UNK         0.5000 
     78 O          -3.9432  -27.2059  -45.3520 O.2       13 UNK        -0.5000 
     79 N          -4.2076  -25.0399  -45.9926 N.am      14 UNK        -0.5000 
     80 CA         -5.1029  -25.1894  -47.1449 C.3       14 UNK         0.1400 
     81 CB         -6.4640  -25.7807  -46.7260 C.3       14 UNK        -0.1800 
     82 C          -4.4246  -25.9647  -48.2952 C.2       14 UNK         0.5000 
     83 O          -5.0563  -26.8040  -48.9400 O.2       14 UNK        -0.5000 
     84 N          -3.1371  -25.6650  -48.5203 N.am      15 UNK        -0.5000 
     85 CA         -2.2372  -26.3221  -49.4686 C.3       15 UNK         0.1400 
     86 CB         -0.8091  -25.8060  -49.2325 C.3       15 UNK        -0.1800 
     87 C          -2.6919  -26.0872  -50.9177 C.2       15 UNK         0.5000 
     88 O          -2.4429  -25.0120  -51.4662 O.2       15 UNK        -0.5000 
     89 N          -3.4270  -27.0639  -51.4680 N.am      16 UNK        -0.5000 
     90 CA         -4.1684  -26.9984  -52.7335 C.3       16 UNK         0.1400 
     91 CB         -3.2009  -26.8894  -53.9318 C.3       16 UNK        -0.1800 
     92 C          -5.2407  -25.8858  -52.7179 C.2       16 UNK         0.5000 
     93 O          -5.4319  -25.1989  -53.7197 O.2       16 UNK        -0.5000 
     94 N          -5.8824  -25.6897  -51.5542 N.am      17 UNK        -0.5000 
     95 CA         -6.7829  -24.5748  -51.2281 C.3       17 UNK         0.1400 
     96 CB         -8.0743  -24.6302  -52.0710 C.3       17 UNK        -0.1800 
     97 C          -6.0639  -23.2074  -51.2950 C.2       17 UNK         0.5000 
     98 O          -6.6421  -22.2200  -51.7480 O.2       17 UNK        -0.5000 
     99 N          -4.7988  -23.2072  -50.8492 N.am      18 UNK        -0.5000 
    100 CA        -3.8115  -22.1221  -50.8246 C.3       18 UNK         0.1400 
    101 CB        -4.3794  -20.8281  -50.2161 C.3       18 UNK        -0.1800 
    102 C         -3.1162  -21.8612  -52.1746 C.2       18 UNK         0.5000 
    103 O         -2.1475  -21.0976  -52.2012 O.2       18 UNK        -0.5000 
    104 N         -3.5541  -22.5305  -53.2547 N.am      19 UNK        -0.5000 
    105 CA        -3.0297  -22.3836  -54.6184 C.3       19 UNK         0.1400 
    106 CB        -3.9051  -23.1705  -55.6036 C.3       19 UNK        -0.1800 
    107 C         -1.5480  -22.7724  -54.7837 C.2       19 UNK         0.5000 
    108 O         -0.9424  -22.4067  -55.7918 O.2       19 UNK        -0.5000 
    109 N         -0.9754  -23.4623  -53.7864 N.am      20 UNK        -0.5000 
    110 CA         0.4611  -23.6985  -53.6518 C.3       20 UNK         0.1400 
    111 CB         0.7008  -24.6295  -52.4545 C.3       20 UNK        -0.1800 
    112 C          1.2895  -22.4032  -53.4977 C.2       20 UNK         0.5000 
    113 O          2.4734  -22.4171  -53.8383 O.2       20 UNK        -0.5000 
    114 N          0.6686  -21.3198  -53.0052 N.am      21 UNK        -0.5000 
    115 CA         1.2876  -20.0022  -52.8640 C.3       21 UNK         0.1400 
    116 CB         1.3774  -19.6311  -51.3795 C.3       21 UNK        -0.1800 
    117 C          0.5225  -18.9127  -53.6307 C.2       21 UNK         0.5000 
    118 O          1.1695  -18.0639  -54.2465 O.2       21 UNK        -0.5000 
    119 N         -0.8169  -18.9251  -53.5856 N.am      22 UNK        -0.5000 
    120 CA        -1.6538  -17.8683  -54.1704 C.3       22 UNK         0.1400 
    121 C         -3.0719  -18.3753  -54.5378 C.2       22 UNK         0.5000 
    122 N         -3.5490  -18.0922  -55.7425 N.am      22 UNK        -0.7600 
    123 O         -3.7653  -18.9910  -53.7360 O.2       22 UNK        -0.5000 
    124 C124       -1.6874  -16.5787  -53.3012 C.3       23 UNK        -0.0398 
    125 S125       -2.1878  -16.8072  -51.5536 S.3       23 UNK        -0.2404 
    126 C126       -3.9024  -16.2006  -51.6111 C.3       23 UNK        -0.0205 
    127 H127       -2.2197   -7.6216  -45.1782 H         1 UNK         0.0600 
    128 H128       -2.2679   -8.2585  -43.5309 H         1 UNK         0.0600 
    129 H129       -3.5667   -8.6419  -44.6651 H         1 UNK         0.0600 
    130 H130       -3.4109  -10.7124  -45.4752 H         1 UNK         0.3000 
    131 H131       -1.1698  -11.7374  -46.7967 H         1 UNK         0.0600 
    132 H132       -2.4509  -13.8673  -46.9659 H         1 UNK         0.0800 
    133 H133       -3.5758  -13.3102  -45.7476 H         1 UNK         0.0800 
    134 H134       -5.7938  -13.2346  -46.8078 H         1 UNK         0.0800 
    135 H135       -6.1763  -12.6765  -48.4160 H         1 UNK         0.0800 
    136 H136       -4.2527  -13.8994  -50.2008 H         1 UNK         0.1150 
    137 H137       -4.9252  -18.1169  -49.9769 H         1 UNK         0.1150 
    138 H138       -6.2095  -15.5758  -46.7727 H         1 UNK         0.1150 
    139 H139       -7.3021  -18.0365  -47.5154 H         1 UNK         0.0800 
    140 H140       -6.0783  -19.0972  -48.1598 H         1 UNK         0.0800 
    141 H141       -3.2385  -18.6277  -45.4108 H         1 UNK         0.0800 
    142 H142       -3.5289  -18.4962  -47.1197 H         1 UNK         0.0800 
    143 H143       -4.3739  -20.8571  -47.1660 H         1 UNK         0.0600 
    144 H144       -1.6688  -20.0968  -46.7796 H         1 UNK         0.3000 
    145 H145       -0.2010  -23.2747  -47.5265 H         1 UNK         0.0600 
    146 H146        0.9470  -21.8532  -49.2048 H         1 UNK         0.0600 
    147 H147       -0.6912  -22.2026  -49.7290 H         1 UNK         0.0600 
    148 H148       -0.3112  -20.6251  -49.0460 H         1 UNK         0.0600 
    149 H149        0.9921  -20.7774  -46.9094 H         1 UNK         0.3000 
    150 H150        1.1151  -21.2877  -43.3338 H         1 UNK         0.0600 
    151 H151        3.0168  -22.4788  -44.4584 H         1 UNK         0.0600 
    152 H152        3.4897  -20.8951  -43.8631 H         1 UNK         0.0600 
    153 H153        3.1909  -21.1354  -45.5831 H         1 UNK         0.0600 
    154 H154        1.9869  -19.0854  -44.8766 H         1 UNK         0.3000 
    155 H155       -1.0283  -17.1182  -44.6171 H         1 UNK         0.0600 
    156 H156        0.3406  -16.7124  -42.6225 H         1 UNK         0.0600 
    157 H157        0.8700  -15.6036  -43.8832 H         1 UNK         0.0600 
    158 H158        1.8285  -17.0245  -43.5050 H         1 UNK         0.0600 
    159 H159        1.3076  -16.5271  -46.0389 H         1 UNK         0.3000 
    160 H160        0.5030  -18.0562  -49.1683 H         1 UNK         0.0600 
    161 H161        0.7095  -15.1644  -48.1829 H         1 UNK         0.0600 
    162 H162       -0.6347  -15.8513  -49.0766 H         1 UNK         0.0600 
    163 H163        0.9382  -15.7064  -49.8471 H         1 UNK         0.0600 
    164 H164        2.7580  -16.5796  -48.1243 H         1 UNK         0.3000 
    165 H165        4.7378  -19.4316  -47.2746 H         1 UNK         0.0600 
    166 H166        6.2638  -18.3008  -48.8596 H         1 UNK         0.0600 
    167 H167        4.9646  -19.0886  -49.7411 H         1 UNK         0.0600 
    168 H168        4.9337  -17.3444  -49.5131 H         1 UNK         0.0600 
    169 H169        5.2350  -16.6103  -47.1595 H         1 UNK         0.3000 
    170 H170        4.0764  -16.1210  -43.8172 H         1 UNK         0.0600 
    171 H171        6.3346  -17.1827  -43.5907 H         1 UNK         0.0600 
    172 H172        6.9212  -16.2221  -44.9435 H         1 UNK         0.0600 
    173 H173        6.4115  -15.4343  -43.4497 H         1 UNK         0.0600 
    174 H174        5.3324  -14.1949  -45.2432 H         1 UNK         0.3000 
    175 H175        4.4767  -12.6702  -46.6823 H         1 UNK         0.0600 
    176 H176        1.5686  -13.0294  -47.5862 H         1 UNK         0.0600 
    177 H177        2.6841  -11.7700  -48.1008 H         1 UNK         0.0600 
    178 H178        2.9792  -13.4421  -48.5556 H         1 UNK         0.0600 
    179 H179        1.8595  -12.2573  -45.3211 H         1 UNK         0.3000 
    180 H180        3.2768  -11.0274  -42.3792 H         1 UNK         0.0600 
    181 H181        2.1646   -9.1828  -44.5583 H         1 UNK         0.0600 
    182 H182        3.6523   -8.9406  -43.6529 H         1 UNK         0.0600 
    183 H183        2.1045   -8.8660  -42.8243 H         1 UNK         0.0600 
    184 H184        0.6439  -10.9101  -43.6216 H         1 UNK         0.3000 
    185 H185       -0.3861  -14.1307  -42.6000 H         1 UNK         0.0600 
    186 H186       -0.4899  -13.0254  -40.3635 H         1 UNK         0.0600 
    187 H187       -1.0832  -11.5468  -41.1106 H         1 UNK         0.0600 
    188 H188       -2.0576  -13.0172  -41.1543 H         1 UNK         0.0600 
    189 H189       -1.9140  -11.8862  -43.4142 H         1 UNK         0.3000 
    190 H190       -2.3277  -20.8360  -44.1961 H         1 UNK         0.3000 
    191 H191       -4.3216  -21.7872  -42.4255 H         1 UNK         0.0600 
    192 H192       -1.2688  -22.0031  -42.2814 H         1 UNK         0.0600 
    193 H193       -2.2544  -20.6855  -41.6506 H         1 UNK         0.0600 
    194 H194       -2.3689  -22.2867  -40.9368 H         1 UNK         0.0600 
    195 H195       -1.8595  -23.5813  -44.3347 H         1 UNK         0.3000 
    196 H196       -2.6515  -26.1871  -43.3695 H         1 UNK         0.0600 
    197 H197       -0.3564  -25.6789  -44.1874 H         1 UNK         0.0600 
    198 H198       -0.9842  -25.3362  -45.7984 H         1 UNK         0.0600 
    199 H199       -1.0751  -26.9669  -45.1427 H         1 UNK         0.0600 
    200 H200       -3.8582  -24.1007  -45.8511 H         1 UNK         0.3000 
    201 H201       -5.2842  -24.1816  -47.5216 H         1 UNK         0.0600 
    202 H202       -7.1688  -25.7633  -47.5581 H         1 UNK         0.0600 
    203 H203       -6.9078  -25.2062  -45.9129 H         1 UNK         0.0600 
    204 H204       -6.3751  -26.8161  -46.3965 H         1 UNK         0.0600 
    205 H205       -2.7510  -24.8848  -47.9976 H         1 UNK         0.3000 
    206 H206       -2.2476  -27.3945  -49.2636 H         1 UNK         0.0600 
    207 H207       -0.4743  -26.0192  -48.2174 H         1 UNK         0.0600 
    208 H208       -0.7401  -24.7297  -49.3894 H         1 UNK         0.0600 
    209 H209       -0.1044  -26.2834  -49.9143 H         1 UNK         0.0600 
    210 H210       -3.6130  -27.8832  -50.9054 H         1 UNK         0.3000 
    211 H211       -4.7086  -27.9413  -52.8278 H         1 UNK         0.0600 
    212 H212       -2.4614  -27.6898  -53.9146 H         1 UNK         0.0600 
    213 H213       -3.7396  -26.9663  -54.8768 H         1 UNK         0.0600 
    214 H214       -2.6650  -25.9402  -53.9394 H         1 UNK         0.0600 
    215 H215       -5.6472  -26.2983  -50.7749 H         1 UNK         0.3000 
    216 H216       -7.0699  -24.7132  -50.1847 H         1 UNK         0.0600 
    217 H217       -8.7990  -23.8946  -51.7205 H         1 UNK         0.0600 
    218 H218       -7.8847  -24.4218  -53.1242 H         1 UNK         0.0600 
    219 H219       -8.5479  -25.6094  -52.0023 H         1 UNK         0.0600 
    220 H220       -4.4099  -24.1041  -50.5945 H         1 UNK         0.3000 
    221 H221       -3.0303  -22.4781  -50.1533 H         1 UNK         0.0600 
    222 H222       -3.5732  -20.1546  -49.9217 H         1 UNK         0.0600 
    223 H223       -5.0066  -20.2937  -50.9303 H         1 UNK         0.0600 
    224 H224       -4.9801  -21.0352  -49.3327 H         1 UNK         0.0600 
    225 H225       -4.3212  -23.1792  -53.1404 H         1 UNK         0.3000 
    226 H226       -3.1086  -21.3281  -54.8786 H         1 UNK         0.0600 
    227 H227       -4.9616  -22.9322  -55.4782 H         1 UNK         0.0600 
    228 H228       -3.6386  -22.9325  -56.6340 H         1 UNK         0.0600 
    229 H229       -3.7815  -24.2460  -55.4796 H         1 UNK         0.0600 
    230 H230       -1.5559  -23.7589  -53.0093 H         1 UNK         0.3000 
    231 H231        0.8028  -24.2049  -54.5565 H         1 UNK         0.0600 
    232 H232        1.7601  -24.8655  -52.3464 H         1 UNK         0.0600 
    233 H233        0.1674  -25.5728  -52.5738 H         1 UNK         0.0600 
    234 H234        0.3692  -24.1704  -51.5227 H         1 UNK         0.0600 
    235 H235       -0.3142  -21.3860  -52.7569 H         1 UNK         0.3000 
    236 H236        2.3040  -20.0137  -53.2627 H         1 UNK         0.0600 
    237 H237        1.9599  -20.3634  -50.8212 H         1 UNK         0.0600 
    238 H238        1.8597  -18.6620  -51.2456 H         1 UNK         0.0600 
    239 H239        0.3848  -19.5690  -50.9352 H         1 UNK         0.0600 
    240 H240       -1.3209  -19.6377  -53.0620 H         1 UNK         0.3000 
    241 H241       -1.1877  -17.5894  -55.1180 H         1 UNK         0.0600 
    242 H242       -4.4777  -18.4027  -55.9815 H         1 UNK         0.3800 
    243 H243       -3.0109  -17.5775  -56.4226 H         1 UNK         0.3800 
    244 H244       -2.3185  -15.8237  -53.7723 H         1 UNK         0.0800 
    245 H245       -0.6900  -16.1378  -53.2863 H         1 UNK         0.0800 
    246 H246       -4.5134  -16.8959  -52.1880 H         1 UNK         0.0800 
    247 H247       -3.9340  -15.2495  -52.1446 H         1 UNK         0.0800 
@<TRIPOS>BOND
     1    1    2 1    
     2    1  127 1    
     3    1  128 1    
     4    1  129 1    
     5    2    3 2    
     6    2    4 am   BACKBONE|DICT|INTERRES
     7    4    5 1    
     8    4  130 1    
     9    5    6 1    
    10    5   65 1    
    11    5  131 1    
    12    6    7 1    
    13    6  132 1    
    14    6  133 1    
    15    7    8 1    
    16    8    9 1    
    17    8  134 1    
    18    8  135 1    
    19    9   10 ar   
    20    9   14 ar   
    21   10   11 ar   
    22   10  136 1    
    23   11   12 ar   
    24   11  126 1    
    25   12   13 ar   
    26   12  137 1    
    27   13   14 ar   
    28   13   15 1    
    29   14  138 1    
    30   15   16 1    
    31   15  139 1    
    32   15  140 1    
    33   16   17 1    
    34   17   18 1    
    35   17  141 1    
    36   17  142 1    
    37   18   19 1    
    38   18   67 1    
    39   18  143 1    
    40   19   20 am   BACKBONE|DICT|INTERRES
    41   19  144 1    
    42   20   21 2    
    43   20   22 1    
    44   22   23 1    
    45   22   24 1    
    46   22  145 1    
    47   23  146 1    
    48   23  147 1    
    49   23  148 1    
    50   24   25 am   BACKBONE|DICT|INTERRES
    51   24  149 1    
    52   25   26 2    
    53   25   27 1    
    54   27   28 1    
    55   27   29 1    
    56   27  150 1    
    57   28  151 1    
    58   28  152 1    
    59   28  153 1    
    60   29   30 am   BACKBONE|DICT|INTERRES
    61   29  154 1    
    62   30   31 2    
    63   30   32 1    
    64   32   33 1    
    65   32   34 1    
    66   32  155 1    
    67   33  156 1    
    68   33  157 1    
    69   33  158 1    
    70   34   35 am   BACKBONE|DICT|INTERRES
    71   34  159 1    
    72   35   36 2    
    73   35   37 1    
    74   37   38 1    
    75   37   39 1    
    76   37  160 1    
    77   38  161 1    
    78   38  162 1    
    79   38  163 1    
    80   39   40 am   BACKBONE|DICT|INTERRES
    81   39  164 1    
    82   40   41 2    
    83   40   42 1    
    84   42   43 1    
    85   42   44 1    
    86   42  165 1    
    87   43  166 1    
    88   43  167 1    
    89   43  168 1    
    90   44   45 am   BACKBONE|DICT|INTERRES
    91   44  169 1    
    92   45   46 2    
    93   45   47 1    
    94   47   48 1    
    95   47   49 1    
    96   47  170 1    
    97   48  171 1    
    98   48  172 1    
    99   48  173 1    
   100   49   50 am   BACKBONE|DICT|INTERRES
   101   49  174 1    
   102   50   51 2    
   103   50   52 1    
   104   52   53 1    
   105   52   54 1    
   106   52  175 1    
   107   53  176 1    
   108   53  177 1    
   109   53  178 1    
   110   54   55 am   BACKBONE|DICT|INTERRES
   111   54  179 1    
   112   55   56 2    
   113   55   57 1    
   114   57   58 1    
   115   57   59 1    
   116   57  180 1    
   117   58  181 1    
   118   58  182 1    
   119   58  183 1    
   120   59   60 am   BACKBONE|DICT|INTERRES
   121   59  184 1    
   122   60   61 2    
   123   60   62 1    
   124   62   63 1    
   125   62   64 1    
   126   62  185 1    
   127   63  186 1    
   128   63  187 1    
   129   63  188 1    
   130   64   65 am   BACKBONE|DICT|INTERRES
   131   64  189 1    
   132   65   66 2    
   133   67   68 2    
   134   67   69 am   BACKBONE|DICT|INTERRES
   135   69   70 1    
   136   69  190 1    
   137   70   71 1    
   138   70   72 1    
   139   70  191 1    
   140   71  192 1    
   141   71  193 1    
   142   71  194 1    
   143   72   73 2    
   144   72   74 am   BACKBONE|DICT|INTERRES
   145   74   75 1    
   146   74  195 1    
   147   75   76 1    
   148   75   77 1    
   149   75  196 1    
   150   76  197 1    
   151   76  198 1    
   152   76  199 1    
   153   77   78 2    
   154   77   79 am   BACKBONE|DICT|INTERRES
   155   79   80 1    
   156   79  200 1    
   157   80   81 1    
   158   80   82 1    
   159   80  201 1    
   160   81  202 1    
   161   81  203 1    
   162   81  204 1    
   163   82   83 2    
   164   82   84 am   BACKBONE|DICT|INTERRES
   165   84   85 1    
   166   84  205 1    
   167   85   86 1    
   168   85   87 1    
   169   85  206 1    
   170   86  207 1    
   171   86  208 1    
   172   86  209 1    
   173   87   88 2    
   174   87   89 am   BACKBONE|DICT|INTERRES
   175   89   90 1    
   176   89  210 1    
   177   90   91 1    
   178   90   92 1    
   179   90  211 1    
   180   91  212 1    
   181   91  213 1    
   182   91  214 1    
   183   92   93 2    
   184   92   94 am   BACKBONE|DICT|INTERRES
   185   94   95 1    
   186   94  215 1    
   187   95   96 1    
   188   95   97 1    
   189   95  216 1    
   190   96  217 1    
   191   96  218 1    
   192   96  219 1    
   193   97   98 2    
   194   97   99 am   BACKBONE|DICT|INTERRES
   195   99  100 1    
   196   99  220 1    
   197  100  101 1    
   198  100  102 1    
   199  100  221 1    
   200  101  222 1    
   201  101  223 1    
   202  101  224 1    
   203  102  103 2    
   204  102  104 am   BACKBONE|DICT|INTERRES
   205  104  105 1    
   206  104  225 1    
   207  105  106 1    
   208  105  107 1    
   209  105  226 1    
   210  106  227 1    
   211  106  228 1    
   212  106  229 1    
   213  107  108 2    
   214  107  109 am   BACKBONE|DICT|INTERRES
   215  109  110 1    
   216  109  230 1    
   217  110  111 1    
   218  110  112 1    
   219  110  231 1    
   220  111  232 1    
   221  111  233 1    
   222  111  234 1    
   223  112  113 2    
   224  112  114 am   BACKBONE|DICT|INTERRES
   225  114  115 1    
   226  114  235 1    
   227  115  116 1    
   228  115  117 1    
   229  115  236 1    
   230  116  237 1    
   231  116  238 1    
   232  116  239 1    
   233  117  118 2    
   234  117  119 am   BACKBONE|DICT|INTERRES
   235  119  120 1    
   236  119  240 1    
   237  120  121 1    
   238  120  124 1    
   239  120  241 1    
   240  121  122 am   BACKBONE|DICT|INTERRES
   241  121  123 2    
   242  122  242 1    
   243  122  243 1    
   244  124  125 1    
   245  124  244 1    
   246  124  245 1    
   247  125  126 1    
   248  126  246 1    
   249  126  247 1    
@<TRIPOS>SUBSTRUCTURE
     1 UNK         1 GROUP             0       ****    0 ROOT    
