@<TRIPOS>MOLECULE
3R540
247   249    1
SMALL
USER_CHARGES


@<TRIPOS>ATOM
      1 CA         -3.6080  -10.9560  -48.2757 C.3       0 UNK        -0.1800 
      2 C          -2.4148  -11.8857  -48.1118 C.2       0 UNK         0.5000 
      3 O          -2.3294  -12.6017  -47.1136 O.2       0 UNK        -0.5000 
      4 N          -1.4831  -11.8688  -49.0760 N.am      1 UNK        -0.5000 
      5 CA         -0.2474  -12.6667  -49.1476 C.3       1 UNK         0.1400 
      6 C6         -0.5044  -14.1949  -49.0433 C.3       23 UNK        -0.0398 
      7 S7          0.7173  -15.2019  -49.9434 S.3       23 UNK        -0.2404 
      8 C8          0.0152  -16.8462  -49.6218 C.3       23 UNK        -0.0205 
      9 C9          0.7419  -17.9369  -50.3891 C.ar      23 UNK        -0.0193 
     10 C10         0.3119  -18.3091  -51.6660 C.ar      23 UNK        -0.1150 
     11 C11         0.9619  -19.3248  -52.3758 C.ar      23 UNK        -0.0193 
     12 C12         2.0453  -19.9797  -51.7759 C.ar      23 UNK        -0.1150 
     13 C13         2.4816  -19.6196  -50.4981 C.ar      23 UNK        -0.0193 
     14 C14         1.8315  -18.5909  -49.8124 C.ar      23 UNK        -0.1150 
     15 C15         3.6621  -20.3422  -49.8692 C.3       23 UNK        -0.0205 
     16 S16         3.1634  -21.9198  -49.1110 S.3       23 UNK        -0.2404 
     17 C17         2.3684  -21.3461  -47.5731 C.3       23 UNK        -0.0398 
     18 CA          1.0995  -22.1451  -47.1995 C.3       11 UNK         0.1400 
     19 N           0.7633  -21.9769  -45.7848 N.am      11 UNK        -0.5000 
     20 C          -0.1405  -22.7088  -45.1205 C.2       10 UNK         0.5000 
     21 O          -0.7573  -23.6492  -45.6205 O.2       10 UNK        -0.5000 
     22 CA         -0.4362  -22.2902  -43.6686 C.3       10 UNK         0.1400 
     23 CB          0.6259  -22.8509  -42.7116 C.3       10 UNK        -0.1800 
     24 N          -0.5225  -20.8369  -43.5120 N.am      10 UNK        -0.5000 
     25 C          -1.4612  -20.0684  -44.0827 C.2       9 UNK         0.5000 
     26 O          -2.3918  -20.5175  -44.7514 O.2       9 UNK        -0.5000 
     27 CA         -1.3049  -18.5429  -43.9289 C.3       9 UNK         0.1400 
     28 CB         -1.8200  -18.0662  -42.5631 C.3       9 UNK        -0.1800 
     29 N           0.0768  -18.0979  -44.1171 N.am      9 UNK        -0.5000 
     30 C           0.7607  -18.2192  -45.2641 C.2       8 UNK         0.5000 
     31 O           0.2854  -18.6747  -46.3017 O.2       8 UNK        -0.5000 
     32 CA          2.2409  -17.8109  -45.2370 C.3       8 UNK         0.1400 
     33 CB          2.3849  -16.2955  -45.4259 C.3       8 UNK        -0.1800 
     34 N           2.8965  -18.2307  -43.9980 N.am      8 UNK        -0.5000 
     35 C           3.1486  -19.5097  -43.6821 C.2       7 UNK         0.5000 
     36 O           2.8815  -20.4587  -44.4181 O.2       7 UNK        -0.5000 
     37 CA          3.7552  -19.7770  -42.2933 C.3       7 UNK         0.1400 
     38 CB          5.2748  -19.5556  -42.3125 C.3       7 UNK        -0.1800 
     39 N           3.1544  -18.9446  -41.2511 N.am      7 UNK        -0.5000 
     40 C           1.8733  -19.0207  -40.8630 C.2       6 UNK         0.5000 
     41 O           1.0711  -19.8380  -41.3123 O.2       6 UNK        -0.5000 
     42 CA          1.3973  -17.9761  -39.8365 C.3       6 UNK         0.1400 
     43 CB          1.6021  -18.4939  -38.4053 C.3       6 UNK        -0.1800 
     44 N           2.0610  -16.6776  -39.9834 N.am      6 UNK        -0.5000 
     45 C           1.9689  -15.8949  -41.0659 C.2       5 UNK         0.5000 
     46 O           1.3133  -16.1859  -42.0695 O.2       5 UNK        -0.5000 
     47 CA          2.7615  -14.5790  -41.0296 C.3       5 UNK         0.1400 
     48 CB          3.6988  -14.4589  -42.2416 C.3       5 UNK        -0.1800 
     49 N           1.8466  -13.4435  -41.0123 N.am      5 UNK        -0.5000 
     50 C           1.2013  -13.0037  -39.9240 C.2       4 UNK         0.5000 
     51 O           1.3577  -13.4790  -38.7984 O.2       4 UNK        -0.5000 
     52 CA          0.2213  -11.8327  -40.1230 C.3       4 UNK         0.1400 
     53 CB          0.9184  -10.4938  -39.8376 C.3       4 UNK        -0.1800 
     54 N          -0.3497  -11.7920  -41.4695 N.am      4 UNK        -0.5000 
     55 C          -1.2955  -12.6179  -41.9297 C.2       3 UNK         0.5000 
     56 O          -1.8069  -13.5103  -41.2527 O.2       3 UNK        -0.5000 
     57 CA         -1.7483  -12.4231  -43.3897 C.3       3 UNK         0.1400 
     58 CB         -2.7150  -11.2308  -43.5219 C.3       3 UNK        -0.1800 
     59 N          -0.6587  -12.3367  -44.3720 N.am      3 UNK        -0.5000 
     60 C           0.2792  -11.3883  -44.5324 C.2       2 UNK         0.5000 
     61 O           0.4186  -10.4174  -43.7885 O.2       2 UNK        -0.5000 
     62 CA          1.2061  -11.5502  -45.7464 C.3       2 UNK         0.1400 
     63 CB          2.3996  -12.4567  -45.3953 C.3       2 UNK        -0.1800 
     64 N           0.4410  -12.0821  -46.8725 N.am      2 UNK        -0.5000 
     65 C           0.8275  -12.1819  -48.1475 C.2       1 UNK         0.5000 
     66 O           1.9482  -11.8721  -48.5534 O.2       1 UNK        -0.5000 
     67 C          -0.1053  -21.8320  -48.1154 C.2       11 UNK         0.5000 
     68 O          -0.3788  -22.6064  -49.0304 O.2       11 UNK        -0.5000 
     69 N          -0.8525  -20.7590  -47.8131 N.am      12 UNK        -0.5000 
     70 CA         -2.1034  -20.4005  -48.4858 C.3       12 UNK         0.1400 
     71 CB         -2.6094  -19.0437  -47.9728 C.3       12 UNK        -0.1800 
     72 C          -3.1957  -21.4704  -48.3133 C.2       12 UNK         0.5000 
     73 O          -3.8827  -21.7963  -49.2812 O.2       12 UNK        -0.5000 
     74 N          -3.3252  -22.0161  -47.0957 N.am      13 UNK        -0.5000 
     75 CA         -4.2449  -23.1080  -46.7761 C.3       13 UNK         0.1400 
     76 CB         -4.2748  -23.3455  -45.2595 C.3       13 UNK        -0.1800 
     77 C          -3.9091  -24.4033  -47.5386 C.2       13 UNK         0.5000 
     78 O          -4.8158  -25.0409  -48.0767 O.2       13 UNK        -0.5000 
     79 N          -2.6128  -24.7372  -47.6162 N.am      14 UNK        -0.5000 
     80 CA         -2.0859  -25.8482  -48.4114 C.3       14 UNK         0.1400 
     81 CB         -0.5977  -26.0516  -48.0906 C.3       14 UNK        -0.1800 
     82 C          -2.3020  -25.6532  -49.9251 C.2       14 UNK         0.5000 
     83 O          -2.6097  -26.6192  -50.6244 O.2       14 UNK        -0.5000 
     84 N          -2.1994  -24.4038  -50.3975 N.am      15 UNK        -0.5000 
     85 CA         -2.4652  -23.9588  -51.7674 C.3       15 UNK         0.1400 
     86 CB         -1.7399  -22.6217  -51.9936 C.3       15 UNK        -0.1800 
     87 C          -3.9764  -23.8815  -52.0923 C.2       15 UNK         0.5000 
     88 O          -4.4526  -22.8672  -52.6107 O.2       15 UNK        -0.5000 
     89 N          -4.6884  -24.9767  -51.7963 N.am      16 UNK        -0.5000 
     90 CA         -6.1102  -25.2320  -52.0269 C.3       16 UNK         0.1400 
     91 CB         -6.4078  -25.3301  -53.5366 C.3       16 UNK        -0.1800 
     92 C          -7.0383  -24.2499  -51.2859 C.2       16 UNK         0.5000 
     93 O          -7.9093  -23.6389  -51.9051 O.2       16 UNK        -0.5000 
     94 N          -6.8510  -24.1394  -49.9625 N.am      17 UNK        -0.5000 
     95 CA         -7.7122  -23.4176  -49.0176 C.3       17 UNK         0.1400 
     96 CB         -9.0788  -24.1234  -48.8887 C.3       17 UNK        -0.1800 
     97 C          -7.8373  -21.9127  -49.3327 C.2       17 UNK         0.5000 
     98 O          -8.9471  -21.3830  -49.4117 O.2       17 UNK        -0.5000 
     99 N          -6.6816  -21.2597  -49.5143 N.am      18 UNK        -0.5000 
    100 CA        -6.5023  -19.8345  -49.8096 C.3       18 UNK         0.1400 
    101 CB        -7.0956  -18.9403  -48.7007 C.3       18 UNK        -0.1800 
    102 C         -6.9416  -19.4204  -51.2285 C.2       18 UNK         0.5000 
    103 O         -7.0940  -18.2264  -51.4906 O.2       18 UNK        -0.5000 
    104 N         -7.0708  -20.3935  -52.1430 N.am      19 UNK        -0.5000 
    105 CA        -7.2280  -20.1520  -53.5811 C.3       19 UNK         0.1400 
    106 CB        -7.7726  -21.4188  -54.2544 C.3       19 UNK        -0.1800 
    107 C         -5.9087  -19.7172  -54.2527 C.2       19 UNK         0.5000 
    108 O         -5.9458  -19.1858  -55.3629 O.2       19 UNK        -0.5000 
    109 N         -4.7795  -19.9538  -53.5662 N.am      20 UNK        -0.5000 
    110 CA        -3.4030  -19.6630  -53.9703 C.3       20 UNK         0.1400 
    111 CB        -3.1838  -18.1508  -54.1853 C.3       20 UNK        -0.1800 
    112 C         -2.9434  -20.5299  -55.1595 C.2       20 UNK         0.5000 
    113 O         -2.1670  -20.0755  -56.0009 O.2       20 UNK        -0.5000 
    114 N         -3.3950  -21.7900  -55.1826 N.am      21 UNK        -0.5000 
    115 CA        -3.0545  -22.7974  -56.1870 C.3       21 UNK         0.1400 
    116 CB        -4.2260  -23.7883  -56.2975 C.3       21 UNK        -0.1800 
    117 C         -1.7158  -23.4987  -55.8655 C.2       21 UNK         0.5000 
    118 O         -1.6614  -24.7285  -55.8113 O.2       21 UNK        -0.5000 
    119 N         -0.6608  -22.7077  -55.6335 N.am      22 UNK        -0.5000 
    120 CA         0.7039  -23.1880  -55.3495 C.3       22 UNK         0.1400 
    121 C          1.5574  -23.5003  -56.6152 C.2       22 UNK         0.5000 
    122 N          1.0859  -23.2224  -57.8250 N.am      22 UNK        -0.7600 
    123 O          2.6617  -24.0250  -56.4990 O.2       22 UNK        -0.5000 
    124 C124        1.4505  -22.2714  -54.3442 C.3       23 UNK        -0.0398 
    125 S125        1.6150  -20.5308  -54.8805 S.3       23 UNK        -0.2404 
    126 C126        0.4380  -19.6890  -53.7662 C.3       23 UNK        -0.0205 
    127 H127       -3.5435  -10.3703  -49.1929 H         1 UNK         0.0600 
    128 H128       -3.6626  -10.2660  -47.4336 H         1 UNK         0.0600 
    129 H129       -4.5314  -11.5342  -48.3044 H         1 UNK         0.0600 
    130 H130       -1.6101  -11.2300  -49.8492 H         1 UNK         0.3000 
    131 H131        0.1446  -12.4637  -50.1458 H         1 UNK         0.0600 
    132 H132       -0.5537  -14.5259  -48.0042 H         1 UNK         0.0800 
    133 H133       -1.4791  -14.4289  -49.4740 H         1 UNK         0.0800 
    134 H134        0.0677  -17.0478  -48.5509 H         1 UNK         0.0800 
    135 H135       -1.0423  -16.8511  -49.8903 H         1 UNK         0.0800 
    136 H136       -0.5336  -17.8018  -52.1095 H         1 UNK         0.1150 
    137 H137        2.5602  -20.7761  -52.2909 H         1 UNK         0.1150 
    138 H138        2.1656  -18.2995  -48.8267 H         1 UNK         0.1150 
    139 H139        4.4129  -20.5431  -50.6349 H         1 UNK         0.0800 
    140 H140        4.1511  -19.7122  -49.1244 H         1 UNK         0.0800 
    141 H141        2.1512  -20.2800  -47.6159 H         1 UNK         0.0800 
    142 H142        3.1189  -21.4635  -46.7914 H         1 UNK         0.0800 
    143 H143        1.3303  -23.2045  -47.3313 H         1 UNK         0.0600 
    144 H144        1.2696  -21.2547  -45.2826 H         1 UNK         0.3000 
    145 H145       -1.4026  -22.7154  -43.3902 H         1 UNK         0.0600 
    146 H146        0.3794  -22.6237  -41.6742 H         1 UNK         0.0600 
    147 H147        0.6976  -23.9357  -42.7994 H         1 UNK         0.0600 
    148 H148        1.6136  -22.4376  -42.9176 H         1 UNK         0.0600 
    149 H149        0.1774  -20.3996  -42.9189 H         1 UNK         0.3000 
    150 H150       -1.9122  -18.0686  -44.7027 H         1 UNK         0.0600 
    151 H151       -2.8718  -18.3238  -42.4334 H         1 UNK         0.0600 
    152 H152       -1.7341  -16.9837  -42.4638 H         1 UNK         0.0600 
    153 H153       -1.2684  -18.5220  -41.7414 H         1 UNK         0.0600 
    154 H154        0.5361  -17.6700  -43.3205 H         1 UNK         0.3000 
    155 H155        2.7432  -18.3046  -46.0715 H         1 UNK         0.0600 
    156 H156        1.8409  -15.7470  -44.6576 H         1 UNK         0.0600 
    157 H157        3.4294  -15.9859  -45.3906 H         1 UNK         0.0600 
    158 H158        1.9848  -15.9849  -46.3923 H         1 UNK         0.0600 
    159 H159        3.0886  -17.5114  -43.3172 H         1 UNK         0.3000 
    160 H160        3.5649  -20.8228  -42.0427 H         1 UNK         0.0600 
    161 H161        5.5302  -18.5178  -42.5302 H         1 UNK         0.0600 
    162 H162        5.7495  -20.1772  -43.0730 H         1 UNK         0.0600 
    163 H163        5.7233  -19.8180  -41.3542 H         1 UNK         0.0600 
    164 H164        3.7453  -18.2469  -40.8241 H         1 UNK         0.3000 
    165 H165        0.3279  -17.8226  -39.9937 H         1 UNK         0.0600 
    166 H166        1.1920  -17.7991  -37.6721 H         1 UNK         0.0600 
    167 H167        1.0987  -19.4509  -38.2611 H         1 UNK         0.0600 
    168 H168        2.6583  -18.6405  -38.1763 H         1 UNK         0.0600 
    169 H169        2.5994  -16.3555  -39.1918 H         1 UNK         0.3000 
    170 H170        3.3788  -14.5555  -40.1288 H         1 UNK         0.0600 
    171 H171        3.1459  -14.4207  -43.1790 H         1 UNK         0.0600 
    172 H172        4.3074  -13.5566  -42.1789 H         1 UNK         0.0600 
    173 H173        4.3812  -15.3079  -42.2958 H         1 UNK         0.0600 
    174 H174        1.6230  -13.0249  -41.9020 H         1 UNK         0.3000 
    175 H175       -0.5919  -11.9547  -39.4044 H         1 UNK         0.0600 
    176 H176        0.2170   -9.6621  -39.9065 H         1 UNK         0.0600 
    177 H177        1.7314  -10.3059  -40.5402 H         1 UNK         0.0600 
    178 H178        1.3416  -10.4792  -38.8323 H         1 UNK         0.0600 
    179 H179        0.0154  -11.0943  -42.1138 H         1 UNK         0.3000 
    180 H180       -2.3084  -13.3199  -43.6602 H         1 UNK         0.0600 
    181 H181       -2.2366  -10.2847  -43.2676 H         1 UNK         0.0600 
    182 H182       -3.5724  -11.3502  -42.8585 H         1 UNK         0.0600 
    183 H183       -3.0997  -11.1493  -44.5387 H         1 UNK         0.0600 
    184 H184       -0.6353  -13.1132  -45.0172 H         1 UNK         0.3000 
    185 H185        1.5772  -10.5603  -46.0190 H         1 UNK         0.0600 
    186 H186        2.9284  -12.0857  -44.5164 H         1 UNK         0.0600 
    187 H187        2.0727  -13.4721  -45.1797 H         1 UNK         0.0600 
    188 H188        3.1235  -12.5043  -46.2083 H         1 UNK         0.0600 
    189 H189       -0.5415  -12.2741  -46.6873 H         1 UNK         0.3000 
    190 H190       -0.5338  -20.1276  -47.0818 H         1 UNK         0.3000 
    191 H191       -1.8865  -20.3022  -49.5510 H         1 UNK         0.0600 
    192 H192       -1.8458  -18.2749  -48.0591 H         1 UNK         0.0600 
    193 H193       -3.4751  -18.7085  -48.5447 H         1 UNK         0.0600 
    194 H194       -2.9083  -19.0907  -46.9260 H         1 UNK         0.0600 
    195 H195       -2.7672  -21.6468  -46.3316 H         1 UNK         0.3000 
    196 H196       -5.2421  -22.7894  -47.0811 H         1 UNK         0.0600 
    197 H197       -4.9941  -24.1237  -45.0018 H         1 UNK         0.0600 
    198 H198       -4.5677  -22.4414  -44.7253 H         1 UNK         0.0600 
    199 H199       -3.3036  -23.6583  -44.8777 H         1 UNK         0.0600 
    200 H200       -1.9350  -24.1829  -47.1006 H         1 UNK         0.3000 
    201 H201       -2.6226  -26.7517  -48.1150 H         1 UNK         0.0600 
    202 H202       -0.4464  -26.2452  -47.0285 H         1 UNK         0.0600 
    203 H203       -0.0033  -25.1780  -48.3582 H         1 UNK         0.0600 
    204 H204       -0.1936  -26.9036  -48.6385 H         1 UNK         0.0600 
    205 H205       -1.8933  -23.6799  -49.7549 H         1 UNK         0.3000 
    206 H206       -2.0295  -24.6884  -52.4529 H         1 UNK         0.0600 
    207 H207       -0.6888  -22.6905  -51.7154 H         1 UNK         0.0600 
    208 H208       -1.7746  -22.3317  -53.0402 H         1 UNK         0.0600 
    209 H209       -2.1857  -21.8167  -51.4106 H         1 UNK         0.0600 
    210 H210       -4.1729  -25.7397  -51.3676 H         1 UNK         0.3000 
    211 H211       -6.3118  -26.2140  -51.5968 H         1 UNK         0.0600 
    212 H212       -6.2547  -24.3779  -54.0411 H         1 UNK         0.0600 
    213 H213       -7.4418  -25.6288  -53.7125 H         1 UNK         0.0600 
    214 H214       -5.7700  -26.0717  -54.0174 H         1 UNK         0.0600 
    215 H215       -6.0738  -24.6363  -49.5356 H         1 UNK         0.3000 
    216 H216       -7.2280  -23.4864  -48.0440 H         1 UNK         0.0600 
    217 H217       -9.6846  -23.6619  -48.1081 H         1 UNK         0.0600 
    218 H218       -8.9558  -25.1735  -48.6235 H         1 UNK         0.0600 
    219 H219       -9.6504  -24.0765  -49.8162 H         1 UNK         0.0600 
    220 H220       -5.8108  -21.7829  -49.4647 H         1 UNK         0.3000 
    221 H221       -5.4247  -19.6721  -49.7963 H         1 UNK         0.0600 
    222 H222       -8.1854  -18.9613  -48.6983 H         1 UNK         0.0600 
    223 H223       -6.7492  -19.2527  -47.7155 H         1 UNK         0.0600 
    224 H224       -6.7927  -17.9011  -48.8336 H         1 UNK         0.0600 
    225 H225       -6.9698  -21.3576  -51.8525 H         1 UNK         0.3000 
    226 H226       -7.9553  -19.3505  -53.7256 H         1 UNK         0.0600 
    227 H227       -8.7156  -21.7321  -53.8061 H         1 UNK         0.0600 
    228 H228       -7.9561  -21.2509  -55.3163 H         1 UNK         0.0600 
    229 H229       -7.0676  -22.2449  -54.1707 H         1 UNK         0.0600 
    230 H230       -4.8744  -20.4738  -52.7042 H         1 UNK         0.3000 
    231 H231       -2.7821  -19.9585  -53.1243 H         1 UNK         0.0600 
    232 H232       -3.7176  -17.7819  -55.0612 H         1 UNK         0.0600 
    233 H233       -2.1282  -17.9238  -54.3330 H         1 UNK         0.0600 
    234 H234       -3.5192  -17.5775  -53.3210 H         1 UNK         0.0600 
    235 H235       -3.9729  -22.1042  -54.4087 H         1 UNK         0.3000 
    236 H236       -2.9412  -22.3097  -57.1574 H         1 UNK         0.0600 
    237 H237       -5.1671  -23.2728  -56.4908 H         1 UNK         0.0600 
    238 H238       -4.0669  -24.4929  -57.1146 H         1 UNK         0.0600 
    239 H239       -4.3410  -24.3688  -55.3825 H         1 UNK         0.0600 
    240 H240       -0.7760  -21.7055  -55.7275 H         1 UNK         0.3000 
    241 H241        0.6104  -24.1525  -54.8465 H         1 UNK         0.0600 
    242 H242        0.1840  -22.7890  -57.9380 H         1 UNK         0.3800 
    243 H243        1.6447  -23.4361  -58.6363 H         1 UNK         0.3800 
    244 H244        0.9386  -22.3031  -53.3831 H         1 UNK         0.0800 
    245 H245        2.4501  -22.6605  -54.1432 H         1 UNK         0.0800 
    246 H246        0.1153  -18.7787  -54.2729 H         1 UNK         0.0800 
    247 H247       -0.4477  -20.3096  -53.6483 H         1 UNK         0.0800 
@<TRIPOS>BOND
     1    1    2 1    
     2    1  127 1    
     3    1  128 1    
     4    1  129 1    
     5    2    3 2    
     6    2    4 am   BACKBONE|DICT|INTERRES
     7    4    5 1    
     8    4  130 1    
     9    5    6 1    
    10    5   65 1    
    11    5  131 1    
    12    6    7 1    
    13    6  132 1    
    14    6  133 1    
    15    7    8 1    
    16    8    9 1    
    17    8  134 1    
    18    8  135 1    
    19    9   10 ar   
    20    9   14 ar   
    21   10   11 ar   
    22   10  136 1    
    23   11   12 ar   
    24   11  126 1    
    25   12   13 ar   
    26   12  137 1    
    27   13   14 ar   
    28   13   15 1    
    29   14  138 1    
    30   15   16 1    
    31   15  139 1    
    32   15  140 1    
    33   16   17 1    
    34   17   18 1    
    35   17  141 1    
    36   17  142 1    
    37   18   19 1    
    38   18   67 1    
    39   18  143 1    
    40   19   20 am   BACKBONE|DICT|INTERRES
    41   19  144 1    
    42   20   21 2    
    43   20   22 1    
    44   22   23 1    
    45   22   24 1    
    46   22  145 1    
    47   23  146 1    
    48   23  147 1    
    49   23  148 1    
    50   24   25 am   BACKBONE|DICT|INTERRES
    51   24  149 1    
    52   25   26 2    
    53   25   27 1    
    54   27   28 1    
    55   27   29 1    
    56   27  150 1    
    57   28  151 1    
    58   28  152 1    
    59   28  153 1    
    60   29   30 am   BACKBONE|DICT|INTERRES
    61   29  154 1    
    62   30   31 2    
    63   30   32 1    
    64   32   33 1    
    65   32   34 1    
    66   32  155 1    
    67   33  156 1    
    68   33  157 1    
    69   33  158 1    
    70   34   35 am   BACKBONE|DICT|INTERRES
    71   34  159 1    
    72   35   36 2    
    73   35   37 1    
    74   37   38 1    
    75   37   39 1    
    76   37  160 1    
    77   38  161 1    
    78   38  162 1    
    79   38  163 1    
    80   39   40 am   BACKBONE|DICT|INTERRES
    81   39  164 1    
    82   40   41 2    
    83   40   42 1    
    84   42   43 1    
    85   42   44 1    
    86   42  165 1    
    87   43  166 1    
    88   43  167 1    
    89   43  168 1    
    90   44   45 am   BACKBONE|DICT|INTERRES
    91   44  169 1    
    92   45   46 2    
    93   45   47 1    
    94   47   48 1    
    95   47   49 1    
    96   47  170 1    
    97   48  171 1    
    98   48  172 1    
    99   48  173 1    
   100   49   50 am   BACKBONE|DICT|INTERRES
   101   49  174 1    
   102   50   51 2    
   103   50   52 1    
   104   52   53 1    
   105   52   54 1    
   106   52  175 1    
   107   53  176 1    
   108   53  177 1    
   109   53  178 1    
   110   54   55 am   BACKBONE|DICT|INTERRES
   111   54  179 1    
   112   55   56 2    
   113   55   57 1    
   114   57   58 1    
   115   57   59 1    
   116   57  180 1    
   117   58  181 1    
   118   58  182 1    
   119   58  183 1    
   120   59   60 am   BACKBONE|DICT|INTERRES
   121   59  184 1    
   122   60   61 2    
   123   60   62 1    
   124   62   63 1    
   125   62   64 1    
   126   62  185 1    
   127   63  186 1    
   128   63  187 1    
   129   63  188 1    
   130   64   65 am   BACKBONE|DICT|INTERRES
   131   64  189 1    
   132   65   66 2    
   133   67   68 2    
   134   67   69 am   BACKBONE|DICT|INTERRES
   135   69   70 1    
   136   69  190 1    
   137   70   71 1    
   138   70   72 1    
   139   70  191 1    
   140   71  192 1    
   141   71  193 1    
   142   71  194 1    
   143   72   73 2    
   144   72   74 am   BACKBONE|DICT|INTERRES
   145   74   75 1    
   146   74  195 1    
   147   75   76 1    
   148   75   77 1    
   149   75  196 1    
   150   76  197 1    
   151   76  198 1    
   152   76  199 1    
   153   77   78 2    
   154   77   79 am   BACKBONE|DICT|INTERRES
   155   79   80 1    
   156   79  200 1    
   157   80   81 1    
   158   80   82 1    
   159   80  201 1    
   160   81  202 1    
   161   81  203 1    
   162   81  204 1    
   163   82   83 2    
   164   82   84 am   BACKBONE|DICT|INTERRES
   165   84   85 1    
   166   84  205 1    
   167   85   86 1    
   168   85   87 1    
   169   85  206 1    
   170   86  207 1    
   171   86  208 1    
   172   86  209 1    
   173   87   88 2    
   174   87   89 am   BACKBONE|DICT|INTERRES
   175   89   90 1    
   176   89  210 1    
   177   90   91 1    
   178   90   92 1    
   179   90  211 1    
   180   91  212 1    
   181   91  213 1    
   182   91  214 1    
   183   92   93 2    
   184   92   94 am   BACKBONE|DICT|INTERRES
   185   94   95 1    
   186   94  215 1    
   187   95   96 1    
   188   95   97 1    
   189   95  216 1    
   190   96  217 1    
   191   96  218 1    
   192   96  219 1    
   193   97   98 2    
   194   97   99 am   BACKBONE|DICT|INTERRES
   195   99  100 1    
   196   99  220 1    
   197  100  101 1    
   198  100  102 1    
   199  100  221 1    
   200  101  222 1    
   201  101  223 1    
   202  101  224 1    
   203  102  103 2    
   204  102  104 am   BACKBONE|DICT|INTERRES
   205  104  105 1    
   206  104  225 1    
   207  105  106 1    
   208  105  107 1    
   209  105  226 1    
   210  106  227 1    
   211  106  228 1    
   212  106  229 1    
   213  107  108 2    
   214  107  109 am   BACKBONE|DICT|INTERRES
   215  109  110 1    
   216  109  230 1    
   217  110  111 1    
   218  110  112 1    
   219  110  231 1    
   220  111  232 1    
   221  111  233 1    
   222  111  234 1    
   223  112  113 2    
   224  112  114 am   BACKBONE|DICT|INTERRES
   225  114  115 1    
   226  114  235 1    
   227  115  116 1    
   228  115  117 1    
   229  115  236 1    
   230  116  237 1    
   231  116  238 1    
   232  116  239 1    
   233  117  118 2    
   234  117  119 am   BACKBONE|DICT|INTERRES
   235  119  120 1    
   236  119  240 1    
   237  120  121 1    
   238  120  124 1    
   239  120  241 1    
   240  121  122 am   BACKBONE|DICT|INTERRES
   241  121  123 2    
   242  122  242 1    
   243  122  243 1    
   244  124  125 1    
   245  124  244 1    
   246  124  245 1    
   247  125  126 1    
   248  126  246 1    
   249  126  247 1    
@<TRIPOS>SUBSTRUCTURE
     1 UNK         1 GROUP             0       ****    0 ROOT    
