@<TRIPOS>MOLECULE
3R540
247   249    1
SMALL
USER_CHARGES


@<TRIPOS>ATOM
      1 CA         -0.3518  -10.4374  -47.0864 C.3       0 UNK        -0.1800 
      2 C          -0.8748  -11.5693  -47.9595 C.2       0 UNK         0.5000 
      3 O          -1.7328  -11.3415  -48.8123 O.2       0 UNK        -0.5000 
      4 N          -0.3594  -12.7839  -47.7541 N.am      1 UNK        -0.5000 
      5 CA         -0.6937  -13.9907  -48.5032 C.3       1 UNK         0.1400 
      6 C6         -2.0614  -14.5822  -48.0716 C.3       23 UNK        -0.0398 
      7 S7         -2.6291  -15.9606  -49.1231 S.3       23 UNK        -0.2404 
      8 C8         -4.0500  -16.5464  -48.1535 C.3       23 UNK        -0.0205 
      9 C9         -4.7037  -17.7637  -48.7895 C.ar      23 UNK        -0.0193 
     10 C10        -5.6726  -17.6057  -49.7835 C.ar      23 UNK        -0.1150 
     11 C11        -6.3097  -18.7146  -50.3512 C.ar      23 UNK        -0.0193 
     12 C12        -5.9750  -19.9964  -49.8920 C.ar      23 UNK        -0.1150 
     13 C13        -4.9990  -20.1694  -48.9074 C.ar      23 UNK        -0.0193 
     14 C14        -4.3598  -19.0500  -48.3685 C.ar      23 UNK        -0.1150 
     15 C15        -4.6040  -21.5644  -48.4511 C.3       23 UNK        -0.0205 
     16 S16        -5.2073  -21.9519  -46.7782 S.3       23 UNK        -0.2404 
     17 C17        -3.9470  -23.1663  -46.2541 C.3       23 UNK        -0.0398 
     18 CA         -2.8093  -22.4802  -45.4488 C.3       11 UNK         0.1400 
     19 N          -3.2561  -21.9228  -44.1664 N.am      11 UNK        -0.5000 
     20 C          -3.6519  -22.5906  -43.0720 C.2       10 UNK         0.5000 
     21 O          -3.7669  -23.8159  -43.0290 O.2       10 UNK        -0.5000 
     22 CA         -3.9280  -21.7626  -41.7980 C.3       10 UNK         0.1400 
     23 CB         -3.0001  -22.2101  -40.6556 C.3       10 UNK        -0.1800 
     24 N          -3.7196  -20.3302  -42.0180 N.am      10 UNK        -0.5000 
     25 C          -4.6864  -19.4270  -42.2318 C.2       9 UNK         0.5000 
     26 O          -5.8889  -19.6824  -42.1621 O.2       9 UNK        -0.5000 
     27 CA         -4.2367  -18.0000  -42.6183 C.3       9 UNK         0.1400 
     28 CB         -4.2093  -17.0904  -41.3810 C.3       9 UNK        -0.1800 
     29 N          -2.9274  -17.9494  -43.2768 N.am      9 UNK        -0.5000 
     30 C          -2.6255  -18.5583  -44.4315 C.2       8 UNK         0.5000 
     31 O          -3.4449  -19.1784  -45.1023 O.2       8 UNK        -0.5000 
     32 CA         -1.1540  -18.5515  -44.8769 C.3       8 UNK         0.1400 
     33 CB         -0.8941  -17.3700  -45.8122 C.3       8 UNK        -0.1800 
     34 N          -0.2150  -18.5098  -43.7544 N.am      8 UNK        -0.5000 
     35 C          -0.0813  -19.4713  -42.8303 C.2       7 UNK         0.5000 
     36 O          -0.7074  -20.5313  -42.8672 O.2       7 UNK        -0.5000 
     37 CA          0.8782  -19.1949  -41.6613 C.3       7 UNK         0.1400 
     38 CB          2.3152  -19.6051  -42.0058 C.3       7 UNK        -0.1800 
     39 N           0.8661  -17.7839  -41.2831 N.am      7 UNK        -0.5000 
     40 C          -0.0149  -17.2343  -40.4381 C.2       6 UNK         0.5000 
     41 O          -0.8724  -17.8743  -39.8298 O.2       6 UNK        -0.5000 
     42 CA          0.0643  -15.7062  -40.2595 C.3       6 UNK         0.1400 
     43 CB          1.0373  -15.3454  -39.1269 C.3       6 UNK        -0.1800 
     44 N           0.4666  -15.0044  -41.4812 N.am      6 UNK        -0.5000 
     45 C          -0.2739  -14.9403  -42.5964 C.2       5 UNK         0.5000 
     46 O          -1.3795  -15.4680  -42.7126 O.2       5 UNK        -0.5000 
     47 CA          0.3377  -14.1897  -43.7937 C.3       5 UNK         0.1400 
     48 CB         -0.0153  -12.6967  -43.7292 C.3       5 UNK        -0.1800 
     49 N           1.7907  -14.3392  -43.9240 N.am      5 UNK        -0.5000 
     50 C           2.4270  -15.5021  -44.1164 C.2       4 UNK         0.5000 
     51 O           1.8787  -16.6053  -44.0719 O.2       4 UNK        -0.5000 
     52 CA          3.9311  -15.4313  -44.3915 C.3       4 UNK         0.1400 
     53 CB          4.7290  -16.0843  -43.2479 C.3       4 UNK        -0.1800 
     54 N           4.1912  -16.1142  -45.6542 N.am      4 UNK        -0.5000 
     55 C           5.2844  -15.9532  -46.4105 C.2       3 UNK         0.5000 
     56 O           6.2158  -15.2055  -46.1092 O.2       3 UNK        -0.5000 
     57 CA          5.3657  -16.7579  -47.7238 C.3       3 UNK         0.1400 
     58 CB          6.1564  -18.0582  -47.5083 C.3       3 UNK        -0.1800 
     59 N           4.0540  -17.0819  -48.2892 N.am      3 UNK        -0.5000 
     60 C           3.2690  -16.2083  -48.9354 C.2       2 UNK         0.5000 
     61 O           3.6053  -15.0467  -49.1776 O.2       2 UNK        -0.5000 
     62 CA          1.8908  -16.7209  -49.4201 C.3       2 UNK         0.1400 
     63 CB          1.4232  -18.0067  -48.7055 C.3       2 UNK        -0.1800 
     64 N           0.8368  -15.7019  -49.3577 N.am      2 UNK        -0.5000 
     65 C           0.4744  -14.9701  -48.2945 C.2       1 UNK         0.5000 
     66 O           1.0135  -15.0329  -47.1868 O.2       1 UNK        -0.5000 
     67 C          -1.5301  -23.3413  -45.3134 C.2       11 UNK         0.5000 
     68 O          -1.2957  -24.2271  -46.1356 O.2       11 UNK        -0.5000 
     69 N          -0.7035  -23.0469  -44.2987 N.am      12 UNK        -0.5000 
     70 CA          0.5426  -23.7570  -44.0090 C.3       12 UNK         0.1400 
     71 CB          0.8576  -23.6276  -42.5107 C.3       12 UNK        -0.1800 
     72 C           1.7178  -23.2463  -44.8614 C.2       12 UNK         0.5000 
     73 O           2.5882  -24.0361  -45.2268 O.2       12 UNK        -0.5000 
     74 N           1.7168  -21.9420  -45.1727 N.am      13 UNK        -0.5000 
     75 CA          2.7183  -21.2945  -46.0279 C.3       13 UNK         0.1400 
     76 CB          2.8427  -19.8146  -45.6304 C.3       13 UNK        -0.1800 
     77 C           2.4028  -21.4162  -47.5301 C.2       13 UNK         0.5000 
     78 O           3.2733  -21.1313  -48.3533 O.2       13 UNK        -0.5000 
     79 N           1.1619  -21.7927  -47.8606 N.am      14 UNK        -0.5000 
     80 CA          0.6678  -21.9543  -49.2247 C.3       14 UNK         0.1400 
     81 CB         -0.8630  -22.0220  -49.1698 C.3       14 UNK        -0.1800 
     82 C           1.2564  -23.2009  -49.9097 C.2       14 UNK         0.5000 
     83 O           1.5937  -24.1792  -49.2381 O.2       14 UNK        -0.5000 
     84 N           1.3385  -23.1571  -51.2429 N.am      15 UNK        -0.5000 
     85 CA          1.8674  -24.2255  -52.0866 C.3       15 UNK         0.1400 
     86 CB          2.4068  -23.6035  -53.3869 C.3       15 UNK        -0.1800 
     87 C           0.7702  -25.2703  -52.3463 C.2       15 UNK         0.5000 
     88 O           0.1219  -25.2327  -53.3914 O.2       15 UNK        -0.5000 
     89 N           0.5331  -26.1411  -51.3547 N.am      16 UNK        -0.5000 
     90 CA         -0.5367  -27.1484  -51.3160 C.3       16 UNK         0.1400 
     91 CB         -0.2930  -28.2540  -52.3648 C.3       16 UNK        -0.1800 
     92 C          -1.9337  -26.4991  -51.4251 C.2       16 UNK         0.5000 
     93 O          -2.7632  -26.9206  -52.2320 O.2       16 UNK        -0.5000 
     94 N          -2.1281  -25.4457  -50.6188 N.am      17 UNK        -0.5000 
     95 CA         -3.3042  -24.5731  -50.5291 C.3       17 UNK         0.1400 
     96 CB         -4.5931  -25.3679  -50.2338 C.3       17 UNK        -0.1800 
     97 C          -3.4751  -23.5836  -51.7028 C.2       17 UNK         0.5000 
     98 O          -4.4516  -22.8341  -51.7013 O.2       17 UNK        -0.5000 
     99 N          -2.5274  -23.5393  -52.6508 N.am      18 UNK        -0.5000 
    100 CA        -2.4577  -22.4884  -53.6647 C.3       18 UNK         0.1400 
    101 CB        -1.8036  -23.0282  -54.9450 C.3       18 UNK        -0.1800 
    102 C         -1.6687  -21.2963  -53.0994 C.2       18 UNK         0.5000 
    103 O         -0.5315  -21.4756  -52.6544 O.2       18 UNK        -0.5000 
    104 N         -2.2849  -20.1136  -53.1273 N.am      19 UNK        -0.5000 
    105 CA        -1.7612  -18.8377  -52.6540 C.3       19 UNK         0.1400 
    106 CB        -1.4858  -18.8671  -51.1388 C.3       19 UNK        -0.1800 
    107 C         -2.7976  -17.7545  -52.9805 C.2       19 UNK         0.5000 
    108 O         -3.9985  -18.0099  -52.8656 O.2       19 UNK        -0.5000 
    109 N         -2.3194  -16.5645  -53.3693 N.am      20 UNK        -0.5000 
    110 CA        -3.1140  -15.3883  -53.7395 C.3       20 UNK         0.1400 
    111 CB        -3.7443  -14.7505  -52.4800 C.3       20 UNK        -0.1800 
    112 C         -4.1269  -15.7078  -54.8625 C.2       20 UNK         0.5000 
    113 O         -3.7072  -15.9997  -55.9836 O.2       20 UNK        -0.5000 
    114 N         -5.4270  -15.6557  -54.5470 N.am      21 UNK        -0.5000 
    115 CA        -6.5251  -15.9719  -55.4605 C.3       21 UNK         0.1400 
    116 CB        -7.8055  -15.3060  -54.9317 C.3       21 UNK        -0.1800 
    117 C         -6.7535  -17.4849  -55.6563 C.2       21 UNK         0.5000 
    118 O         -7.3944  -17.8679  -56.6364 O.2       21 UNK        -0.5000 
    119 N         -6.2609  -18.3133  -54.7279 N.am      22 UNK        -0.5000 
    120 CA        -6.3922  -19.7748  -54.7581 C.3       22 UNK         0.1400 
    121 C         -5.2624  -20.4099  -55.6077 C.2       22 UNK         0.5000 
    122 N         -5.5803  -21.3741  -56.4600 N.am      22 UNK        -0.7600 
    123 O         -4.0908  -20.0708  -55.4663 O.2       22 UNK        -0.5000 
    124 C124       -6.4047  -20.3720  -53.3284 C.3       23 UNK        -0.0398 
    125 S125       -7.9093  -19.9193  -52.3973 S.3       23 UNK        -0.2404 
    126 C126       -7.3571  -18.4631  -51.4382 C.3       23 UNK        -0.0205 
    127 H127        0.5727  -10.7136  -46.5791 H         1 UNK         0.0600 
    128 H128       -1.0926  -10.1720  -46.3321 H         1 UNK         0.0600 
    129 H129       -0.1501   -9.5549  -47.6938 H         1 UNK         0.0600 
    130 H130        0.3653  -12.9320  -47.0623 H         1 UNK         0.3000 
    131 H131       -0.7375  -13.7294  -49.5629 H         1 UNK         0.0600 
    132 H132       -2.8293  -13.8093  -48.1178 H         1 UNK         0.0800 
    133 H133       -2.0262  -14.9058  -47.0311 H         1 UNK         0.0800 
    134 H134       -4.7804  -15.7410  -48.0625 H         1 UNK         0.0800 
    135 H135       -3.7285  -16.7855  -47.1387 H         1 UNK         0.0800 
    136 H136       -5.9306  -16.6108  -50.1180 H         1 UNK         0.1150 
    137 H137       -6.4564  -20.8705  -50.3049 H         1 UNK         0.1150 
    138 H138       -3.5992  -19.1828  -47.6139 H         1 UNK         0.1150 
    139 H139       -4.9860  -22.3171  -49.1403 H         1 UNK         0.0800 
    140 H140       -3.5194  -21.6384  -48.4796 H         1 UNK         0.0800 
    141 H141       -3.5655  -23.6699  -47.1434 H         1 UNK         0.0800 
    142 H142       -4.4292  -23.9420  -45.6583 H         1 UNK         0.0800 
    143 H143       -2.4808  -21.6207  -46.0349 H         1 UNK         0.0600 
    144 H144       -3.2800  -20.9104  -44.1376 H         1 UNK         0.3000 
    145 H145       -4.9597  -21.9566  -41.4985 H         1 UNK         0.0600 
    146 H146       -3.1928  -21.6411  -39.7460 H         1 UNK         0.0600 
    147 H147       -3.1504  -23.2635  -40.4159 H         1 UNK         0.0600 
    148 H148       -1.9488  -22.0798  -40.9157 H         1 UNK         0.0600 
    149 H149       -2.7549  -20.0374  -42.1075 H         1 UNK         0.3000 
    150 H150       -4.9738  -17.6036  -43.3195 H         1 UNK         0.0600 
    151 H151       -5.1804  -17.0748  -40.8848 H         1 UNK         0.0600 
    152 H152       -3.9661  -16.0627  -41.6515 H         1 UNK         0.0600 
    153 H153       -3.4726  -17.4282  -40.6515 H         1 UNK         0.0600 
    154 H154       -2.2140  -17.3838  -42.8303 H         1 UNK         0.3000 
    155 H155       -0.9621  -19.4726  -45.4309 H         1 UNK         0.0600 
    156 H156       -1.2728  -16.4394  -45.3927 H         1 UNK         0.0600 
    157 H157       -1.3794  -17.5231  -46.7760 H         1 UNK         0.0600 
    158 H158        0.1689  -17.2405  -45.9977 H         1 UNK         0.0600 
    159 H159        0.3967  -17.6990  -43.7090 H         1 UNK         0.3000 
    160 H160        0.5479  -19.8066  -40.8190 H         1 UNK         0.0600 
    161 H161        2.7702  -18.9017  -42.7015 H         1 UNK         0.0600 
    162 H162        2.3558  -20.5982  -42.4541 H         1 UNK         0.0600 
    163 H163        2.9370  -19.6270  -41.1109 H         1 UNK         0.0600 
    164 H164        1.5061  -17.1775  -41.7767 H         1 UNK         0.3000 
    165 H165       -0.9315  -15.3550  -39.9803 H         1 UNK         0.0600 
    166 H166        1.0419  -14.2718  -38.9378 H         1 UNK         0.0600 
    167 H167        0.7518  -15.8368  -38.1958 H         1 UNK         0.0600 
    168 H168        2.0582  -15.6506  -39.3598 H         1 UNK         0.0600 
    169 H169        1.3657  -14.5457  -41.4731 H         1 UNK         0.3000 
    170 H170       -0.1112  -14.5974  -44.7000 H         1 UNK         0.0600 
    171 H171       -1.0954  -12.5525  -43.6788 H         1 UNK         0.0600 
    172 H172        0.4223  -12.2164  -42.8532 H         1 UNK         0.0600 
    173 H173        0.3398  -12.1691  -44.6135 H         1 UNK         0.0600 
    174 H174        2.3237  -13.4828  -43.9618 H         1 UNK         0.3000 
    175 H175        4.2273  -14.3843  -44.4834 H         1 UNK         0.0600 
    176 H176        4.5059  -17.1481  -43.1593 H         1 UNK         0.0600 
    177 H177        5.8028  -15.9816  -43.4037 H         1 UNK         0.0600 
    178 H178        4.4948  -15.6172  -42.2906 H         1 UNK         0.0600 
    179 H179        3.4387  -16.7059  -45.9789 H         1 UNK         0.3000 
    180 H180        5.9124  -16.1504  -48.4484 H         1 UNK         0.0600 
    181 H181        5.6851  -18.7039  -46.7674 H         1 UNK         0.0600 
    182 H182        7.1664  -17.8439  -47.1566 H         1 UNK         0.0600 
    183 H183        6.2502  -18.6230  -48.4360 H         1 UNK         0.0600 
    184 H184        3.7296  -18.0299  -48.1679 H         1 UNK         0.3000 
    185 H185        2.0106  -16.9581  -50.4781 H         1 UNK         0.0600 
    186 H186        2.0183  -18.8604  -49.0259 H         1 UNK         0.0600 
    187 H187        1.5108  -17.9243  -47.6240 H         1 UNK         0.0600 
    188 H188        0.3838  -18.2400  -48.9332 H         1 UNK         0.0600 
    189 H189        0.3460  -15.5442  -50.2256 H         1 UNK         0.3000 
    190 H190       -0.9375  -22.2732  -43.6826 H         1 UNK         0.3000 
    191 H191        0.4065  -24.8177  -44.2315 H         1 UNK         0.0600 
    192 H192        0.0546  -24.0466  -41.9039 H         1 UNK         0.0600 
    193 H193        0.9923  -22.5885  -42.2114 H         1 UNK         0.0600 
    194 H194        1.7722  -24.1643  -42.2558 H         1 UNK         0.0600 
    195 H195        0.9703  -21.3637  -44.8177 H         1 UNK         0.3000 
    196 H196        3.6911  -21.7654  -45.8704 H         1 UNK         0.0600 
    197 H197        3.4330  -19.2553  -46.3544 H         1 UNK         0.0600 
    198 H198        3.3541  -19.7172  -44.6760 H         1 UNK         0.0600 
    199 H199        1.8719  -19.3250  -45.5544 H         1 UNK         0.0600 
    200 H200        0.5435  -22.0805  -47.1196 H         1 UNK         0.3000 
    201 H201        0.9576  -21.0748  -49.8036 H         1 UNK         0.0600 
    202 H202       -1.2719  -21.1099  -48.7349 H         1 UNK         0.0600 
    203 H203       -1.2062  -22.8678  -48.5741 H         1 UNK         0.0600 
    204 H204       -1.2902  -22.1224  -50.1664 H         1 UNK         0.0600 
    205 H205        0.9109  -22.3772  -51.7371 H         1 UNK         0.3000 
    206 H206        2.7000  -24.7196  -51.5811 H         1 UNK         0.0600 
    207 H207        3.2290  -22.9179  -53.1817 H         1 UNK         0.0600 
    208 H208        2.7848  -24.3732  -54.0608 H         1 UNK         0.0600 
    209 H209        1.6354  -23.0470  -53.9208 H         1 UNK         0.0600 
    210 H210        1.0820  -26.0453  -50.5086 H         1 UNK         0.3000 
    211 H211       -0.4904  -27.6150  -50.3309 H         1 UNK         0.0600 
    212 H212       -0.3702  -27.8748  -53.3842 H         1 UNK         0.0600 
    213 H213       -1.0234  -29.0570  -52.2602 H         1 UNK         0.0600 
    214 H214        0.6955  -28.6977  -52.2466 H         1 UNK         0.0600 
    215 H215       -1.3625  -25.1934  -50.0099 H         1 UNK         0.3000 
    216 H216       -3.1207  -23.9486  -49.6555 H         1 UNK         0.0600 
    217 H217       -5.4156  -24.6980  -49.9807 H         1 UNK         0.0600 
    218 H218       -4.4567  -26.0431  -49.3891 H         1 UNK         0.0600 
    219 H219       -4.9139  -25.9591  -51.0914 H         1 UNK         0.0600 
    220 H220       -1.7418  -24.1753  -52.6097 H         1 UNK         0.3000 
    221 H221       -3.4690  -22.1704  -53.9231 H         1 UNK         0.0600 
    222 H222       -0.7464  -23.2500  -54.8022 H         1 UNK         0.0600 
    223 H223       -2.2959  -23.9377  -55.2893 H         1 UNK         0.0600 
    224 H224       -1.8738  -22.2939  -55.7483 H         1 UNK         0.0600 
    225 H225       -3.1924  -20.0384  -53.5773 H         1 UNK         0.3000 
    226 H226       -0.8349  -18.6253  -53.1908 H         1 UNK         0.0600 
    227 H227       -0.6946  -19.5690  -50.8826 H         1 UNK         0.0600 
    228 H228       -1.1619  -17.8876  -50.7889 H         1 UNK         0.0600 
    229 H229       -2.3780  -19.1411  -50.5746 H         1 UNK         0.0600 
    230 H230       -1.3201  -16.4565  -53.4665 H         1 UNK         0.3000 
    231 H231       -2.4179  -14.6611  -54.1599 H         1 UNK         0.0600 
    232 H232       -4.4029  -15.4397  -51.9504 H         1 UNK         0.0600 
    233 H233       -4.3208  -13.8596  -52.7320 H         1 UNK         0.0600 
    234 H234       -2.9702  -14.4376  -51.7795 H         1 UNK         0.0600 
    235 H235       -5.6798  -15.4278  -53.5968 H         1 UNK         0.3000 
    236 H236       -6.2995  -15.5445  -56.4399 H         1 UNK         0.0600 
    237 H237       -8.6462  -15.4856  -55.6032 H         1 UNK         0.0600 
    238 H238       -8.0827  -15.6910  -53.9494 H         1 UNK         0.0600 
    239 H239       -7.6838  -14.2258  -54.8482 H         1 UNK         0.0600 
    240 H240       -5.6458  -17.9474  -54.0081 H         1 UNK         0.3000 
    241 H241       -7.3460  -20.0279  -55.2259 H         1 UNK         0.0600 
    242 H242       -4.8509  -21.7995  -57.0102 H         1 UNK         0.3800 
    243 H243       -6.5344  -21.6738  -56.5902 H         1 UNK         0.3800 
    244 H244       -6.3813  -21.4623  -53.3746 H         1 UNK         0.0800 
    245 H245       -5.5150  -20.0841  -52.7681 H         1 UNK         0.0800 
    246 H246       -6.9782  -17.7130  -52.1328 H         1 UNK         0.0800 
    247 H247       -8.2348  -18.0225  -50.9641 H         1 UNK         0.0800 
@<TRIPOS>BOND
     1    1    2 1    
     2    1  127 1    
     3    1  128 1    
     4    1  129 1    
     5    2    3 2    
     6    2    4 am   BACKBONE|DICT|INTERRES
     7    4    5 1    
     8    4  130 1    
     9    5    6 1    
    10    5   65 1    
    11    5  131 1    
    12    6    7 1    
    13    6  132 1    
    14    6  133 1    
    15    7    8 1    
    16    8    9 1    
    17    8  134 1    
    18    8  135 1    
    19    9   10 ar   
    20    9   14 ar   
    21   10   11 ar   
    22   10  136 1    
    23   11   12 ar   
    24   11  126 1    
    25   12   13 ar   
    26   12  137 1    
    27   13   14 ar   
    28   13   15 1    
    29   14  138 1    
    30   15   16 1    
    31   15  139 1    
    32   15  140 1    
    33   16   17 1    
    34   17   18 1    
    35   17  141 1    
    36   17  142 1    
    37   18   19 1    
    38   18   67 1    
    39   18  143 1    
    40   19   20 am   BACKBONE|DICT|INTERRES
    41   19  144 1    
    42   20   21 2    
    43   20   22 1    
    44   22   23 1    
    45   22   24 1    
    46   22  145 1    
    47   23  146 1    
    48   23  147 1    
    49   23  148 1    
    50   24   25 am   BACKBONE|DICT|INTERRES
    51   24  149 1    
    52   25   26 2    
    53   25   27 1    
    54   27   28 1    
    55   27   29 1    
    56   27  150 1    
    57   28  151 1    
    58   28  152 1    
    59   28  153 1    
    60   29   30 am   BACKBONE|DICT|INTERRES
    61   29  154 1    
    62   30   31 2    
    63   30   32 1    
    64   32   33 1    
    65   32   34 1    
    66   32  155 1    
    67   33  156 1    
    68   33  157 1    
    69   33  158 1    
    70   34   35 am   BACKBONE|DICT|INTERRES
    71   34  159 1    
    72   35   36 2    
    73   35   37 1    
    74   37   38 1    
    75   37   39 1    
    76   37  160 1    
    77   38  161 1    
    78   38  162 1    
    79   38  163 1    
    80   39   40 am   BACKBONE|DICT|INTERRES
    81   39  164 1    
    82   40   41 2    
    83   40   42 1    
    84   42   43 1    
    85   42   44 1    
    86   42  165 1    
    87   43  166 1    
    88   43  167 1    
    89   43  168 1    
    90   44   45 am   BACKBONE|DICT|INTERRES
    91   44  169 1    
    92   45   46 2    
    93   45   47 1    
    94   47   48 1    
    95   47   49 1    
    96   47  170 1    
    97   48  171 1    
    98   48  172 1    
    99   48  173 1    
   100   49   50 am   BACKBONE|DICT|INTERRES
   101   49  174 1    
   102   50   51 2    
   103   50   52 1    
   104   52   53 1    
   105   52   54 1    
   106   52  175 1    
   107   53  176 1    
   108   53  177 1    
   109   53  178 1    
   110   54   55 am   BACKBONE|DICT|INTERRES
   111   54  179 1    
   112   55   56 2    
   113   55   57 1    
   114   57   58 1    
   115   57   59 1    
   116   57  180 1    
   117   58  181 1    
   118   58  182 1    
   119   58  183 1    
   120   59   60 am   BACKBONE|DICT|INTERRES
   121   59  184 1    
   122   60   61 2    
   123   60   62 1    
   124   62   63 1    
   125   62   64 1    
   126   62  185 1    
   127   63  186 1    
   128   63  187 1    
   129   63  188 1    
   130   64   65 am   BACKBONE|DICT|INTERRES
   131   64  189 1    
   132   65   66 2    
   133   67   68 2    
   134   67   69 am   BACKBONE|DICT|INTERRES
   135   69   70 1    
   136   69  190 1    
   137   70   71 1    
   138   70   72 1    
   139   70  191 1    
   140   71  192 1    
   141   71  193 1    
   142   71  194 1    
   143   72   73 2    
   144   72   74 am   BACKBONE|DICT|INTERRES
   145   74   75 1    
   146   74  195 1    
   147   75   76 1    
   148   75   77 1    
   149   75  196 1    
   150   76  197 1    
   151   76  198 1    
   152   76  199 1    
   153   77   78 2    
   154   77   79 am   BACKBONE|DICT|INTERRES
   155   79   80 1    
   156   79  200 1    
   157   80   81 1    
   158   80   82 1    
   159   80  201 1    
   160   81  202 1    
   161   81  203 1    
   162   81  204 1    
   163   82   83 2    
   164   82   84 am   BACKBONE|DICT|INTERRES
   165   84   85 1    
   166   84  205 1    
   167   85   86 1    
   168   85   87 1    
   169   85  206 1    
   170   86  207 1    
   171   86  208 1    
   172   86  209 1    
   173   87   88 2    
   174   87   89 am   BACKBONE|DICT|INTERRES
   175   89   90 1    
   176   89  210 1    
   177   90   91 1    
   178   90   92 1    
   179   90  211 1    
   180   91  212 1    
   181   91  213 1    
   182   91  214 1    
   183   92   93 2    
   184   92   94 am   BACKBONE|DICT|INTERRES
   185   94   95 1    
   186   94  215 1    
   187   95   96 1    
   188   95   97 1    
   189   95  216 1    
   190   96  217 1    
   191   96  218 1    
   192   96  219 1    
   193   97   98 2    
   194   97   99 am   BACKBONE|DICT|INTERRES
   195   99  100 1    
   196   99  220 1    
   197  100  101 1    
   198  100  102 1    
   199  100  221 1    
   200  101  222 1    
   201  101  223 1    
   202  101  224 1    
   203  102  103 2    
   204  102  104 am   BACKBONE|DICT|INTERRES
   205  104  105 1    
   206  104  225 1    
   207  105  106 1    
   208  105  107 1    
   209  105  226 1    
   210  106  227 1    
   211  106  228 1    
   212  106  229 1    
   213  107  108 2    
   214  107  109 am   BACKBONE|DICT|INTERRES
   215  109  110 1    
   216  109  230 1    
   217  110  111 1    
   218  110  112 1    
   219  110  231 1    
   220  111  232 1    
   221  111  233 1    
   222  111  234 1    
   223  112  113 2    
   224  112  114 am   BACKBONE|DICT|INTERRES
   225  114  115 1    
   226  114  235 1    
   227  115  116 1    
   228  115  117 1    
   229  115  236 1    
   230  116  237 1    
   231  116  238 1    
   232  116  239 1    
   233  117  118 2    
   234  117  119 am   BACKBONE|DICT|INTERRES
   235  119  120 1    
   236  119  240 1    
   237  120  121 1    
   238  120  124 1    
   239  120  241 1    
   240  121  122 am   BACKBONE|DICT|INTERRES
   241  121  123 2    
   242  122  242 1    
   243  122  243 1    
   244  124  125 1    
   245  124  244 1    
   246  124  245 1    
   247  125  126 1    
   248  126  246 1    
   249  126  247 1    
@<TRIPOS>SUBSTRUCTURE
     1 UNK         1 GROUP             0       ****    0 ROOT    
