@<TRIPOS>MOLECULE
3R540
247   249    1
SMALL
USER_CHARGES


@<TRIPOS>ATOM
      1 CA         -6.1324   -8.6284  -44.9613 C.3       0 UNK        -0.1800 
      2 C          -4.7443   -8.9831  -45.4762 C.2       0 UNK         0.5000 
      3 O          -3.8620   -8.1243  -45.5002 O.2       0 UNK        -0.5000 
      4 N          -4.5505  -10.2400  -45.8946 N.am      1 UNK        -0.5000 
      5 CA         -3.2702  -10.7834  -46.3562 C.3       1 UNK         0.1400 
      6 C6         -3.4777  -12.1192  -47.1113 C.3       23 UNK        -0.0398 
      7 S7         -2.0581  -12.5506  -48.1723 S.3       23 UNK        -0.2404 
      8 C8         -1.3178  -13.9230  -47.2366 C.3       23 UNK        -0.0205 
      9 C9         -1.9089  -15.2674  -47.6278 C.ar      23 UNK        -0.0193 
     10 C10        -1.3477  -15.9944  -48.6813 C.ar      23 UNK        -0.1150 
     11 C11        -1.8496  -17.2525  -49.0240 C.ar      23 UNK        -0.0193 
     12 C12        -2.9280  -17.7778  -48.3071 C.ar      23 UNK        -0.1150 
     13 C13        -3.5056  -17.0577  -47.2574 C.ar      23 UNK        -0.0193 
     14 C14        -2.9921  -15.8010  -46.9230 C.ar      23 UNK        -0.1150 
     15 C15        -4.6767  -17.6487  -46.4826 C.3       23 UNK        -0.0205 
     16 S16        -4.3164  -17.9294  -44.7137 S.3       23 UNK        -0.2404 
     17 C17        -2.7011  -18.7799  -44.7478 C.3       23 UNK        -0.0398 
     18 CA         -2.7611  -20.2416  -45.2533 C.3       11 UNK         0.1400 
     19 N          -1.4620  -20.6826  -45.7781 N.am      11 UNK        -0.5000 
     20 C          -1.2026  -21.8745  -46.3360 C.2       10 UNK         0.5000 
     21 O          -2.0380  -22.7690  -46.4581 O.2       10 UNK        -0.5000 
     22 CA          0.2435  -22.1344  -46.7888 C.3       10 UNK         0.1400 
     23 CB          0.5653  -21.3656  -48.0784 C.3       10 UNK        -0.1800 
     24 N           1.2065  -21.7928  -45.7438 N.am      10 UNK        -0.5000 
     25 C           1.3138  -22.4434  -44.5757 C.2       9 UNK         0.5000 
     26 O           0.6882  -23.4682  -44.3038 O.2       9 UNK        -0.5000 
     27 CA          2.2368  -21.8176  -43.5125 C.3       9 UNK         0.1400 
     28 CB          3.6968  -22.2376  -43.7355 C.3       9 UNK        -0.1800 
     29 N           2.1440  -20.3570  -43.4751 N.am      9 UNK        -0.5000 
     30 C           1.0307  -19.6736  -43.1717 C.2       8 UNK         0.5000 
     31 O          -0.0310  -20.2007  -42.8401 O.2       8 UNK        -0.5000 
     32 CA          1.1035  -18.1446  -43.3120 C.3       8 UNK         0.1400 
     33 CB          1.7249  -17.5141  -42.0575 C.3       8 UNK        -0.1800 
     34 N           1.8555  -17.7406  -44.5012 N.am      8 UNK        -0.5000 
     35 C           1.4274  -17.9265  -45.7591 C.2       7 UNK         0.5000 
     36 O           0.3458  -18.4372  -46.0405 O.2       7 UNK        -0.5000 
     37 CA          2.3909  -17.5283  -46.8905 C.3       7 UNK         0.1400 
     38 CB          2.3176  -16.0182  -47.1523 C.3       7 UNK        -0.1800 
     39 N           3.7718  -17.9129  -46.5991 N.am      7 UNK        -0.5000 
     40 C           4.1899  -19.1838  -46.4971 C.2       6 UNK         0.5000 
     41 O           3.4662  -20.1569  -46.7056 O.2       6 UNK        -0.5000 
     42 CA          5.6410  -19.4119  -46.0307 C.3       6 UNK         0.1400 
     43 CB          6.5857  -19.5062  -47.2375 C.3       6 UNK        -0.1800 
     44 N           6.1280  -18.3762  -45.1185 N.am      6 UNK        -0.5000 
     45 C           5.5785  -18.0587  -43.9383 C.2       5 UNK         0.5000 
     46 O           4.6133  -18.6526  -43.4566 O.2       5 UNK        -0.5000 
     47 CA          6.1763  -16.8505  -43.1909 C.3       5 UNK         0.1400 
     48 CB          7.6863  -16.6631  -43.4527 C.3       5 UNK        -0.1800 
     49 N           5.4606  -15.5961  -43.4573 N.am      5 UNK        -0.5000 
     50 C           5.1979  -15.0231  -44.6410 C.2       4 UNK         0.5000 
     51 O           5.4153  -15.5585  -45.7298 O.2       4 UNK        -0.5000 
     52 CA          4.5831  -13.6090  -44.5879 C.3       4 UNK         0.1400 
     53 CB          4.5521  -12.9209  -45.9648 C.3       4 UNK        -0.1800 
     54 N           3.2290  -13.6047  -44.0385 N.am      4 UNK        -0.5000 
     55 C           2.8972  -13.7120  -42.7479 C.2       3 UNK         0.5000 
     56 O           3.7239  -13.8905  -41.8510 O.2       3 UNK        -0.5000 
     57 CA          1.3948  -13.5664  -42.4161 C.3       3 UNK         0.1400 
     58 CB          1.1004  -13.7286  -40.9134 C.3       3 UNK        -0.1800 
     59 N           0.8542  -12.2787  -42.8598 N.am      3 UNK        -0.5000 
     60 C           0.5388  -11.9599  -44.1206 C.2       2 UNK         0.5000 
     61 O           0.6968  -12.7242  -45.0748 O.2       2 UNK        -0.5000 
     62 CA          0.0233  -10.5305  -44.3602 C.3       2 UNK         0.1400 
     63 CB          1.1757   -9.6227  -44.8171 C.3       2 UNK        -0.1800 
     64 N          -1.0387  -10.4911  -45.3655 N.am      2 UNK        -0.5000 
     65 C          -2.2891  -10.9286  -45.1703 C.2       1 UNK         0.5000 
     66 O          -2.6846  -11.4203  -44.1098 O.2       1 UNK        -0.5000 
     67 C          -3.3352  -21.1871  -44.1760 C.2       11 UNK         0.5000 
     68 O          -4.5350  -21.4628  -44.1883 O.2       11 UNK        -0.5000 
     69 N          -2.4644  -21.7287  -43.3127 N.am      12 UNK        -0.5000 
     70 CA         -2.7951  -22.7361  -42.3001 C.3       12 UNK         0.1400 
     71 CB         -1.5635  -22.9763  -41.4142 C.3       12 UNK        -0.1800 
     72 C          -3.3157  -24.0703  -42.8803 C.2       12 UNK         0.5000 
     73 O          -4.0316  -24.7898  -42.1832 O.2       12 UNK        -0.5000 
     74 N          -2.9749  -24.3625  -44.1422 N.am      13 UNK        -0.5000 
     75 CA         -3.4554  -25.5070  -44.9182 C.3       13 UNK         0.1400 
     76 CB         -2.2427  -26.1747  -45.5902 C.3       13 UNK        -0.1800 
     77 C          -4.5130  -25.0881  -45.9640 C.2       13 UNK         0.5000 
     78 O          -4.8330  -25.8823  -46.8496 O.2       13 UNK        -0.5000 
     79 N          -5.0113  -23.8437  -45.8730 N.am      14 UNK        -0.5000 
     80 CA         -5.9541  -23.1703  -46.7771 C.3       14 UNK         0.1400 
     81 CB         -7.3125  -23.9009  -46.8079 C.3       14 UNK        -0.1800 
     82 C          -5.4017  -22.9086  -48.1956 C.2       14 UNK         0.5000 
     83 O          -6.1755  -22.5568  -49.0870 O.2       14 UNK        -0.5000 
     84 N          -4.0847  -23.0845  -48.3854 N.am      15 UNK        -0.5000 
     85 CA         -3.2919  -22.8629  -49.6006 C.3       15 UNK         0.1400 
     86 CB         -3.0737  -21.3534  -49.7970 C.3       15 UNK        -0.1800 
     87 C          -3.8427  -23.5548  -50.8666 C.2       15 UNK         0.5000 
     88 O          -3.6868  -23.0294  -51.9709 O.2       15 UNK        -0.5000 
     89 N          -4.5242  -24.6959  -50.6750 N.am      16 UNK        -0.5000 
     90 CA         -5.2830  -25.4537  -51.6787 C.3       16 UNK         0.1400 
     91 CB         -4.3255  -26.1203  -52.6877 C.3       16 UNK        -0.1800 
     92 C          -6.3769  -24.6075  -52.3708 C.2       16 UNK         0.5000 
     93 O          -6.6062  -24.7615  -53.5704 O.2       16 UNK        -0.5000 
     94 N          -6.9888  -23.6785  -51.6179 N.am      17 UNK        -0.5000 
     95 CA         -7.9454  -22.6596  -52.0723 C.3       17 UNK         0.1400 
     96 CB         -9.2640  -23.3117  -52.5379 C.3       17 UNK        -0.1800 
     97 C          -7.3464  -21.6959  -53.1227 C.2       17 UNK         0.5000 
     98 O          -8.0759  -21.1643  -53.9606 O.2       17 UNK        -0.5000 
     99 N          -6.0174  -21.5190  -53.0668 N.am      18 UNK        -0.5000 
    100 CA        -5.1514  -20.7732  -53.9827 C.3       18 UNK         0.1400 
    101 CB        -5.5422  -19.2838  -54.0549 C.3       18 UNK        -0.1800 
    102 C         -4.9959  -21.4150  -55.3784 C.2       18 UNK         0.5000 
    103 O         -4.3433  -20.8180  -56.2358 O.2       18 UNK        -0.5000 
    104 N         -5.5361  -22.6271  -55.5882 N.am      19 UNK        -0.5000 
    105 CA        -5.4662  -23.3586  -56.8583 C.3       19 UNK         0.1400 
    106 CB        -6.4570  -24.5314  -56.8334 C.3       19 UNK        -0.1800 
    107 C         -4.0477  -23.8584  -57.1911 C.2       19 UNK         0.5000 
    108 O         -3.7143  -24.0026  -58.3671 O.2       19 UNK        -0.5000 
    109 N         -3.2234  -24.0640  -56.1555 N.am      20 UNK        -0.5000 
    110 CA        -1.8052  -24.4166  -56.2492 C.3       20 UNK         0.1400 
    111 CB        -1.4498  -25.3328  -55.0642 C.3       20 UNK        -0.1800 
    112 C         -0.9060  -23.1611  -56.3015 C.2       20 UNK         0.5000 
    113 O          0.1982  -23.1775  -55.7549 O.2       20 UNK        -0.5000 
    114 N         -1.4106  -22.0714  -56.9034 N.am      21 UNK        -0.5000 
    115 CA        -0.7906  -20.7426  -57.0170 C.3       21 UNK         0.1400 
    116 CB         0.4313  -20.7942  -57.9572 C.3       21 UNK        -0.1800 
    117 C         -0.4661  -20.1064  -55.6466 C.2       21 UNK         0.5000 
    118 O          0.5063  -19.3607  -55.5188 O.2       21 UNK        -0.5000 
    119 N         -1.2865  -20.4409  -54.6422 N.am      22 UNK        -0.5000 
    120 CA        -1.1032  -20.1232  -53.2175 C.3       22 UNK         0.1400 
    121 C          0.0828  -20.8756  -52.5333 C.2       22 UNK         0.5000 
    122 N          0.6657  -21.9059  -53.1363 N.am      22 UNK        -0.7600 
    123 O          0.4745  -20.5399  -51.4211 O.2       22 UNK        -0.5000 
    124 C124       -1.1111  -18.5895  -52.9323 C.3       23 UNK        -0.0398 
    125 S125       -2.2871  -18.0972  -51.6247 S.3       23 UNK        -0.2404 
    126 C126       -1.2146  -18.0485  -50.1540 C.3       23 UNK        -0.0205 
    127 H127       -6.8122   -9.4795  -45.0074 H         1 UNK         0.0600 
    128 H128       -6.5584   -7.8206  -45.5564 H         1 UNK         0.0600 
    129 H129       -6.0741   -8.2958  -43.9249 H         1 UNK         0.0600 
    130 H130       -5.3072  -10.9045  -45.8182 H         1 UNK         0.3000 
    131 H131       -2.8559  -10.0584  -47.0609 H         1 UNK         0.0600 
    132 H132       -3.7136  -12.9311  -46.4223 H         1 UNK         0.0800 
    133 H133       -4.3402  -12.0367  -47.7741 H         1 UNK         0.0800 
    134 H134       -0.2428  -13.9240  -47.4196 H         1 UNK         0.0800 
    135 H135       -1.4381  -13.7583  -46.1653 H         1 UNK         0.0800 
    136 H136       -0.5117  -15.5821  -49.2286 H         1 UNK         0.1150 
    137 H137       -3.3213  -18.7471  -48.5726 H         1 UNK         0.1150 
    138 H138       -3.4270  -15.2509  -46.1010 H         1 UNK         0.1150 
    139 H139       -5.5290  -16.9727  -46.5627 H         1 UNK         0.0800 
    140 H140       -4.9978  -18.5911  -46.9288 H         1 UNK         0.0800 
    141 H141       -2.2618  -18.7315  -43.7502 H         1 UNK         0.0800 
    142 H142       -2.0396  -18.1864  -45.3749 H         1 UNK         0.0800 
    143 H143       -3.4428  -20.2822  -46.1048 H         1 UNK         0.0600 
    144 H144       -0.7172  -19.9906  -45.7537 H         1 UNK         0.3000 
    145 H145        0.3399  -23.2013  -47.0009 H         1 UNK         0.0600 
    146 H146        1.5721  -21.5900  -48.4308 H         1 UNK         0.0600 
    147 H147       -0.1249  -21.6387  -48.8773 H         1 UNK         0.0600 
    148 H148        0.4953  -20.2867  -47.9419 H         1 UNK         0.0600 
    149 H149        1.8111  -20.9972  -45.9210 H         1 UNK         0.3000 
    150 H150        1.9207  -22.1918  -42.5365 H         1 UNK         0.0600 
    151 H151        3.8032  -23.3207  -43.6653 H         1 UNK         0.0600 
    152 H152        4.3558  -21.7954  -42.9880 H         1 UNK         0.0600 
    153 H153        4.0557  -21.9388  -44.7197 H         1 UNK         0.0600 
    154 H154        2.9866  -19.8338  -43.6899 H         1 UNK         0.3000 
    155 H155        0.0849  -17.7643  -43.4128 H         1 UNK         0.0600 
    156 H156        1.0994  -17.6961  -41.1828 H         1 UNK         0.0600 
    157 H157        1.8268  -16.4377  -42.1670 H         1 UNK         0.0600 
    158 H158        2.7128  -17.9191  -41.8394 H         1 UNK         0.0600 
    159 H159        2.7955  -17.4042  -44.3511 H         1 UNK         0.3000 
    160 H160        2.0782  -18.0485  -47.7986 H         1 UNK         0.0600 
    161 H161        2.5582  -15.4425  -46.2592 H         1 UNK         0.0600 
    162 H162        1.3142  -15.7310  -47.4634 H         1 UNK         0.0600 
    163 H163        3.0038  -15.7172  -47.9440 H         1 UNK         0.0600 
    164 H164        4.4274  -17.1634  -46.3969 H         1 UNK         0.3000 
    165 H165        5.6726  -20.3627  -45.4964 H         1 UNK         0.0600 
    166 H166        7.6013  -19.7506  -46.9258 H         1 UNK         0.0600 
    167 H167        6.2614  -20.2870  -47.9269 H         1 UNK         0.0600 
    168 H168        6.6205  -18.5691  -47.7947 H         1 UNK         0.0600 
    169 H169        6.8819  -17.7969  -45.4584 H         1 UNK         0.3000 
    170 H170        6.0511  -17.0587  -42.1272 H         1 UNK         0.0600 
    171 H171        8.2349  -17.5885  -43.2719 H         1 UNK         0.0600 
    172 H172        7.8949  -16.3467  -44.4752 H         1 UNK         0.0600 
    173 H173        8.1033  -15.9081  -42.7861 H         1 UNK         0.0600 
    174 H174        5.1441  -15.0920  -42.6345 H         1 UNK         0.3000 
    175 H175        5.2219  -13.0068  -43.9384 H         1 UNK         0.0600 
    176 H176        3.9043  -13.4453  -46.6676 H         1 UNK         0.0600 
    177 H177        4.1922  -11.8950  -45.8832 H         1 UNK         0.0600 
    178 H178        5.5494  -12.8800  -46.4046 H         1 UNK         0.0600 
    179 H179        2.4725  -13.4378  -44.6958 H         1 UNK         0.3000 
    180 H180        0.8689  -14.3636  -42.9459 H         1 UNK         0.0600 
    181 H181        1.5753  -12.9440  -40.3233 H         1 UNK         0.0600 
    182 H182        1.4652  -14.6854  -40.5383 H         1 UNK         0.0600 
    183 H183        0.0287  -13.6938  -40.7167 H         1 UNK         0.0600 
    184 H184        0.7393  -11.5793  -42.1404 H         1 UNK         0.3000 
    185 H185       -0.3770  -10.1363  -43.4236 H         1 UNK         0.0600 
    186 H186        1.9780   -9.6068  -44.0782 H         1 UNK         0.0600 
    187 H187        1.6062   -9.9624  -45.7602 H         1 UNK         0.0600 
    188 H188        0.8392   -8.5945  -44.9519 H         1 UNK         0.0600 
    189 H189       -0.7779  -10.1415  -46.2759 H         1 UNK         0.3000 
    190 H190       -1.5012  -21.4048  -43.3314 H         1 UNK         0.3000 
    191 H191       -3.5891  -22.3239  -41.6743 H         1 UNK         0.0600 
    192 H192       -0.7272  -23.3745  -41.9891 H         1 UNK         0.0600 
    193 H193       -1.2328  -22.0527  -40.9387 H         1 UNK         0.0600 
    194 H194       -1.7853  -23.6898  -40.6196 H         1 UNK         0.0600 
    195 H195       -2.4012  -23.7027  -44.6568 H         1 UNK         0.3000 
    196 H196       -3.9269  -26.2409  -44.2620 H         1 UNK         0.0600 
    197 H197       -1.4965  -26.4682  -44.8517 H         1 UNK         0.0600 
    198 H198       -1.7598  -25.5068  -46.3045 H         1 UNK         0.0600 
    199 H199       -2.5361  -27.0766  -46.1287 H         1 UNK         0.0600 
    200 H200       -4.6770  -23.2583  -45.1149 H         1 UNK         0.3000 
    201 H201       -6.1256  -22.1842  -46.3439 H         1 UNK         0.0600 
    202 H202       -8.0620  -23.3116  -47.3374 H         1 UNK         0.0600 
    203 H203       -7.6909  -24.0721  -45.8001 H         1 UNK         0.0600 
    204 H204       -7.2452  -24.8659  -47.3107 H         1 UNK         0.0600 
    205 H205       -3.5301  -23.3161  -47.5664 H         1 UNK         0.3000 
    206 H206       -2.3170  -23.3146  -49.4123 H         1 UNK         0.0600 
    207 H207       -2.6745  -20.9005  -48.8906 H         1 UNK         0.0600 
    208 H208       -3.9990  -20.8380  -50.0570 H         1 UNK         0.0600 
    209 H209       -2.3514  -21.1642  -50.5885 H         1 UNK         0.0600 
    210 H210       -4.6039  -25.0307  -49.7241 H         1 UNK         0.3000 
    211 H211       -5.8047  -26.2458  -51.1400 H         1 UNK         0.0600 
    212 H212       -3.5561  -26.7016  -52.1799 H         1 UNK         0.0600 
    213 H213       -4.8634  -26.8009  -53.3486 H         1 UNK         0.0600 
    214 H214       -3.8290  -25.3815  -53.3157 H         1 UNK         0.0600 
    215 H215       -6.6854  -23.5640  -50.6542 H         1 UNK         0.3000 
    216 H216       -8.1711  -22.0476  -51.1979 H         1 UNK         0.0600 
    217 H217      -10.0277  -22.5568  -52.7275 H         1 UNK         0.0600 
    218 H218       -9.1332  -23.8808  -53.4587 H         1 UNK         0.0600 
    219 H219       -9.6590  -23.9868  -51.7789 H         1 UNK         0.0600 
    220 H220       -5.5096  -22.0486  -52.3674 H         1 UNK         0.3000 
    221 H221       -4.1609  -20.8173  -53.5323 H         1 UNK         0.0600 
    222 H222       -6.4917  -19.1350  -54.5690 H         1 UNK         0.0600 
    223 H223       -5.6245  -18.8496  -53.0584 H         1 UNK         0.0600 
    224 H224       -4.7877  -18.7092  -54.5937 H         1 UNK         0.0600 
    225 H225       -6.0311  -23.0859  -54.8321 H         1 UNK         0.3000 
    226 H226       -5.7711  -22.6757  -57.6540 H         1 UNK         0.0600 
    227 H227       -7.4625  -24.1971  -56.5768 H         1 UNK         0.0600 
    228 H228       -6.5127  -25.0131  -57.8103 H         1 UNK         0.0600 
    229 H229       -6.1611  -25.2938  -56.1122 H         1 UNK         0.0600 
    230 H230       -3.5855  -23.9015  -55.2270 H         1 UNK         0.3000 
    231 H231       -1.6276  -24.9766  -57.1694 H         1 UNK         0.0600 
    232 H232       -0.4231  -25.6932  -55.1393 H         1 UNK         0.0600 
    233 H233       -2.0957  -26.2105  -55.0365 H         1 UNK         0.0600 
    234 H234       -1.5464  -24.8123  -54.1103 H         1 UNK         0.0600 
    235 H235       -2.3393  -22.1461  -57.2963 H         1 UNK         0.3000 
    236 H236       -1.5378  -20.0962  -57.4795 H         1 UNK         0.0600 
    237 H237        0.1707  -21.2379  -58.9180 H         1 UNK         0.0600 
    238 H238        0.8144  -19.7929  -58.1574 H         1 UNK         0.0600 
    239 H239        1.2475  -21.3768  -57.5288 H         1 UNK         0.0600 
    240 H240       -2.0526  -21.0589  -54.8623 H         1 UNK         0.3000 
    241 H241       -1.9859  -20.5562  -52.7509 H         1 UNK         0.0600 
    242 H242        1.4236  -22.3737  -52.6667 H         1 UNK         0.3800 
    243 H243        0.3945  -22.2133  -54.0645 H         1 UNK         0.3800 
    244 H244       -0.1121  -18.2108  -52.7104 H         1 UNK         0.0800 
    245 H245       -1.4225  -18.0414  -53.8223 H         1 UNK         0.0800 
    246 H246       -0.2458  -17.6217  -50.4171 H         1 UNK         0.0800 
    247 H247       -1.0196  -19.0650  -49.8115 H         1 UNK         0.0800 
@<TRIPOS>BOND
     1    1    2 1    
     2    1  127 1    
     3    1  128 1    
     4    1  129 1    
     5    2    3 2    
     6    2    4 am   BACKBONE|DICT|INTERRES
     7    4    5 1    
     8    4  130 1    
     9    5    6 1    
    10    5   65 1    
    11    5  131 1    
    12    6    7 1    
    13    6  132 1    
    14    6  133 1    
    15    7    8 1    
    16    8    9 1    
    17    8  134 1    
    18    8  135 1    
    19    9   10 ar   
    20    9   14 ar   
    21   10   11 ar   
    22   10  136 1    
    23   11   12 ar   
    24   11  126 1    
    25   12   13 ar   
    26   12  137 1    
    27   13   14 ar   
    28   13   15 1    
    29   14  138 1    
    30   15   16 1    
    31   15  139 1    
    32   15  140 1    
    33   16   17 1    
    34   17   18 1    
    35   17  141 1    
    36   17  142 1    
    37   18   19 1    
    38   18   67 1    
    39   18  143 1    
    40   19   20 am   BACKBONE|DICT|INTERRES
    41   19  144 1    
    42   20   21 2    
    43   20   22 1    
    44   22   23 1    
    45   22   24 1    
    46   22  145 1    
    47   23  146 1    
    48   23  147 1    
    49   23  148 1    
    50   24   25 am   BACKBONE|DICT|INTERRES
    51   24  149 1    
    52   25   26 2    
    53   25   27 1    
    54   27   28 1    
    55   27   29 1    
    56   27  150 1    
    57   28  151 1    
    58   28  152 1    
    59   28  153 1    
    60   29   30 am   BACKBONE|DICT|INTERRES
    61   29  154 1    
    62   30   31 2    
    63   30   32 1    
    64   32   33 1    
    65   32   34 1    
    66   32  155 1    
    67   33  156 1    
    68   33  157 1    
    69   33  158 1    
    70   34   35 am   BACKBONE|DICT|INTERRES
    71   34  159 1    
    72   35   36 2    
    73   35   37 1    
    74   37   38 1    
    75   37   39 1    
    76   37  160 1    
    77   38  161 1    
    78   38  162 1    
    79   38  163 1    
    80   39   40 am   BACKBONE|DICT|INTERRES
    81   39  164 1    
    82   40   41 2    
    83   40   42 1    
    84   42   43 1    
    85   42   44 1    
    86   42  165 1    
    87   43  166 1    
    88   43  167 1    
    89   43  168 1    
    90   44   45 am   BACKBONE|DICT|INTERRES
    91   44  169 1    
    92   45   46 2    
    93   45   47 1    
    94   47   48 1    
    95   47   49 1    
    96   47  170 1    
    97   48  171 1    
    98   48  172 1    
    99   48  173 1    
   100   49   50 am   BACKBONE|DICT|INTERRES
   101   49  174 1    
   102   50   51 2    
   103   50   52 1    
   104   52   53 1    
   105   52   54 1    
   106   52  175 1    
   107   53  176 1    
   108   53  177 1    
   109   53  178 1    
   110   54   55 am   BACKBONE|DICT|INTERRES
   111   54  179 1    
   112   55   56 2    
   113   55   57 1    
   114   57   58 1    
   115   57   59 1    
   116   57  180 1    
   117   58  181 1    
   118   58  182 1    
   119   58  183 1    
   120   59   60 am   BACKBONE|DICT|INTERRES
   121   59  184 1    
   122   60   61 2    
   123   60   62 1    
   124   62   63 1    
   125   62   64 1    
   126   62  185 1    
   127   63  186 1    
   128   63  187 1    
   129   63  188 1    
   130   64   65 am   BACKBONE|DICT|INTERRES
   131   64  189 1    
   132   65   66 2    
   133   67   68 2    
   134   67   69 am   BACKBONE|DICT|INTERRES
   135   69   70 1    
   136   69  190 1    
   137   70   71 1    
   138   70   72 1    
   139   70  191 1    
   140   71  192 1    
   141   71  193 1    
   142   71  194 1    
   143   72   73 2    
   144   72   74 am   BACKBONE|DICT|INTERRES
   145   74   75 1    
   146   74  195 1    
   147   75   76 1    
   148   75   77 1    
   149   75  196 1    
   150   76  197 1    
   151   76  198 1    
   152   76  199 1    
   153   77   78 2    
   154   77   79 am   BACKBONE|DICT|INTERRES
   155   79   80 1    
   156   79  200 1    
   157   80   81 1    
   158   80   82 1    
   159   80  201 1    
   160   81  202 1    
   161   81  203 1    
   162   81  204 1    
   163   82   83 2    
   164   82   84 am   BACKBONE|DICT|INTERRES
   165   84   85 1    
   166   84  205 1    
   167   85   86 1    
   168   85   87 1    
   169   85  206 1    
   170   86  207 1    
   171   86  208 1    
   172   86  209 1    
   173   87   88 2    
   174   87   89 am   BACKBONE|DICT|INTERRES
   175   89   90 1    
   176   89  210 1    
   177   90   91 1    
   178   90   92 1    
   179   90  211 1    
   180   91  212 1    
   181   91  213 1    
   182   91  214 1    
   183   92   93 2    
   184   92   94 am   BACKBONE|DICT|INTERRES
   185   94   95 1    
   186   94  215 1    
   187   95   96 1    
   188   95   97 1    
   189   95  216 1    
   190   96  217 1    
   191   96  218 1    
   192   96  219 1    
   193   97   98 2    
   194   97   99 am   BACKBONE|DICT|INTERRES
   195   99  100 1    
   196   99  220 1    
   197  100  101 1    
   198  100  102 1    
   199  100  221 1    
   200  101  222 1    
   201  101  223 1    
   202  101  224 1    
   203  102  103 2    
   204  102  104 am   BACKBONE|DICT|INTERRES
   205  104  105 1    
   206  104  225 1    
   207  105  106 1    
   208  105  107 1    
   209  105  226 1    
   210  106  227 1    
   211  106  228 1    
   212  106  229 1    
   213  107  108 2    
   214  107  109 am   BACKBONE|DICT|INTERRES
   215  109  110 1    
   216  109  230 1    
   217  110  111 1    
   218  110  112 1    
   219  110  231 1    
   220  111  232 1    
   221  111  233 1    
   222  111  234 1    
   223  112  113 2    
   224  112  114 am   BACKBONE|DICT|INTERRES
   225  114  115 1    
   226  114  235 1    
   227  115  116 1    
   228  115  117 1    
   229  115  236 1    
   230  116  237 1    
   231  116  238 1    
   232  116  239 1    
   233  117  118 2    
   234  117  119 am   BACKBONE|DICT|INTERRES
   235  119  120 1    
   236  119  240 1    
   237  120  121 1    
   238  120  124 1    
   239  120  241 1    
   240  121  122 am   BACKBONE|DICT|INTERRES
   241  121  123 2    
   242  122  242 1    
   243  122  243 1    
   244  124  125 1    
   245  124  244 1    
   246  124  245 1    
   247  125  126 1    
   248  126  246 1    
   249  126  247 1    
@<TRIPOS>SUBSTRUCTURE
     1 UNK         1 GROUP             0       ****    0 ROOT    
