@<TRIPOS>MOLECULE
3R540
247   249    1
SMALL
USER_CHARGES


@<TRIPOS>ATOM
      1 CA          4.2114  -10.2713  -48.4107 C.3       0 UNK        -0.1800 
      2 C           3.5950  -11.3479  -47.5308 C.2       0 UNK         0.5000 
      3 O           3.3461  -11.1078  -46.3496 O.2       0 UNK        -0.5000 
      4 N           3.3258  -12.5305  -48.0983 N.am      1 UNK        -0.5000 
      5 CA          2.7702  -13.6906  -47.3870 C.3       1 UNK         0.1400 
      6 C6          2.8040  -14.9777  -48.2438 C.3       23 UNK        -0.0398 
      7 S7          4.5156  -15.4608  -48.6539 S.3       23 UNK        -0.2404 
      8 C8          4.4731  -15.5283  -50.4768 C.3       23 UNK        -0.0205 
      9 C9          3.5972  -16.6573  -51.0095 C.ar      23 UNK        -0.0193 
     10 C10         2.6425  -16.4030  -52.0002 C.ar      23 UNK        -0.1150 
     11 C11         1.8398  -17.4363  -52.4956 C.ar      23 UNK        -0.0193 
     12 C12         1.9818  -18.7272  -51.9771 C.ar      23 UNK        -0.1150 
     13 C13         2.9479  -18.9988  -51.0070 C.ar      23 UNK        -0.0193 
     14 C14         3.7575  -17.9630  -50.5346 C.ar      23 UNK        -0.1150 
     15 C15         3.1359  -20.4102  -50.4765 C.3       23 UNK        -0.0205 
     16 S16         2.4949  -20.5672  -48.7842 S.3       23 UNK        -0.2404 
     17 C17         0.7005  -20.7861  -49.0520 C.3       23 UNK        -0.0398 
     18 CA          0.1850  -21.9944  -48.2372 C.3       11 UNK         0.1400 
     19 N           0.2874  -21.7777  -46.7909 N.am      11 UNK        -0.5000 
     20 C           0.1692  -22.7415  -45.8686 C.2       10 UNK         0.5000 
     21 O          -0.0216  -23.9267  -46.1409 O.2       10 UNK        -0.5000 
     22 CA          0.2234  -22.3015  -44.3947 C.3       10 UNK         0.1400 
     23 CB          1.6725  -22.0820  -43.9351 C.3       10 UNK        -0.1800 
     24 N          -0.5665  -21.0942  -44.1498 N.am      10 UNK        -0.5000 
     25 C          -1.9003  -21.0362  -44.2690 C.2       9 UNK         0.5000 
     26 O          -2.6005  -22.0152  -44.5304 O.2       9 UNK        -0.5000 
     27 CA         -2.5600  -19.6526  -44.1104 C.3       9 UNK         0.1400 
     28 CB         -2.7667  -19.3137  -42.6271 C.3       9 UNK        -0.1800 
     29 N          -1.8057  -18.5792  -44.7609 N.am      9 UNK        -0.5000 
     30 C          -1.5894  -18.4927  -46.0811 C.2       8 UNK         0.5000 
     31 O          -2.0390  -19.2908  -46.9004 O.2       8 UNK        -0.5000 
     32 CA         -0.6731  -17.3575  -46.5722 C.3       8 UNK         0.1400 
     33 CB         -1.4565  -16.0477  -46.7378 C.3       8 UNK        -0.1800 
     34 N           0.4899  -17.1445  -45.7080 N.am      8 UNK        -0.5000 
     35 C           1.4281  -18.0750  -45.4742 C.2       7 UNK         0.5000 
     36 O           1.4219  -19.1919  -45.9874 O.2       7 UNK        -0.5000 
     37 CA          2.5131  -17.7268  -44.4416 C.3       7 UNK         0.1400 
     38 CB          3.5311  -16.7308  -45.0127 C.3       7 UNK        -0.1800 
     39 N           1.9368  -17.1862  -43.2127 N.am      7 UNK        -0.5000 
     40 C           1.1640  -17.8823  -42.3668 C.2       6 UNK         0.5000 
     41 O           0.9026  -19.0774  -42.5009 O.2       6 UNK        -0.5000 
     42 CA          0.5415  -17.0927  -41.2013 C.3       6 UNK         0.1400 
     43 CB          1.5040  -17.0405  -40.0061 C.3       6 UNK        -0.1800 
     44 N           0.1681  -15.7292  -41.5806 N.am      6 UNK        -0.5000 
     45 C          -0.7512  -15.4080  -42.4985 C.2       5 UNK         0.5000 
     46 O          -1.4097  -16.2420  -43.1186 O.2       5 UNK        -0.5000 
     47 CA         -0.9421  -13.9155  -42.8135 C.3       5 UNK         0.1400 
     48 CB         -1.8332  -13.2255  -41.7651 C.3       5 UNK        -0.1800 
     49 N           0.3104  -13.1828  -43.0274 N.am      5 UNK        -0.5000 
     50 C           1.2759  -12.8509  -42.1578 C.2       4 UNK         0.5000 
     51 O           1.2907  -13.1945  -40.9755 O.2       4 UNK        -0.5000 
     52 CA          2.4235  -11.9847  -42.7139 C.3       4 UNK         0.1400 
     53 CB          3.5511  -12.8760  -43.2562 C.3       4 UNK        -0.1800 
     54 N           1.9768  -11.0755  -43.7720 N.am      4 UNK        -0.5000 
     55 C           1.1363  -10.0453  -43.5914 C.2       3 UNK         0.5000 
     56 O           0.7392   -9.6682  -42.4883 O.2       3 UNK        -0.5000 
     57 CA          0.6168   -9.3513  -44.8626 C.3       3 UNK         0.1400 
     58 CB          1.6017   -8.2782  -45.3524 C.3       3 UNK        -0.1800 
     59 N           0.3608  -10.3176  -45.9329 N.am      3 UNK        -0.5000 
     60 C          -0.7091  -11.1254  -45.9803 C.2       2 UNK         0.5000 
     61 O          -1.6255  -11.0934  -45.1595 O.2       2 UNK        -0.5000 
     62 CA         -0.7596  -12.1590  -47.1214 C.3       2 UNK         0.1400 
     63 CB         -1.5068  -11.5888  -48.3359 C.3       2 UNK        -0.1800 
     64 N           0.5688  -12.6061  -47.5423 N.am      2 UNK        -0.5000 
     65 C           1.3516  -13.4345  -46.8367 C.2       1 UNK         0.5000 
     66 O           1.0093  -13.9593  -45.7760 O.2       1 UNK        -0.5000 
     67 C          -1.2359  -22.4219  -48.6586 C.2       11 UNK         0.5000 
     68 O          -1.3628  -23.3106  -49.4986 O.2       11 UNK        -0.5000 
     69 N          -2.2730  -21.8476  -48.0307 N.am      12 UNK        -0.5000 
     70 CA         -3.6735  -22.2524  -48.1745 C.3       12 UNK         0.1400 
     71 CB         -4.5759  -21.3115  -47.3587 C.3       12 UNK        -0.1800 
     72 C          -3.9092  -23.7129  -47.7578 C.2       12 UNK         0.5000 
     73 O          -4.5394  -24.4624  -48.5047 O.2       12 UNK        -0.5000 
     74 N          -3.3677  -24.0981  -46.5932 N.am      13 UNK        -0.5000 
     75 CA         -3.4152  -25.4627  -46.0688 C.3       13 UNK         0.1400 
     76 CB         -2.8715  -25.4863  -44.6323 C.3       13 UNK        -0.1800 
     77 C          -2.6668  -26.4667  -46.9646 C.2       13 UNK         0.5000 
     78 O          -3.2162  -27.5245  -47.2749 O.2       13 UNK        -0.5000 
     79 N          -1.4556  -26.0991  -47.4085 N.am      14 UNK        -0.5000 
     80 CA         -0.6268  -26.8836  -48.3301 C.3       14 UNK         0.1400 
     81 CB          0.7479  -26.2148  -48.4770 C.3       14 UNK        -0.1800 
     82 C          -1.2788  -27.0899  -49.7118 C.2       14 UNK         0.5000 
     83 O          -1.1234  -28.1566  -50.3066 O.2       14 UNK        -0.5000 
     84 N          -2.0334  -26.0847  -50.1723 N.am      15 UNK        -0.5000 
     85 CA         -2.8347  -26.1045  -51.3965 C.3       15 UNK         0.1400 
     86 CB         -2.9991  -24.6595  -51.8926 C.3       15 UNK        -0.1800 
     87 C          -4.2024  -26.8081  -51.2352 C.2       15 UNK         0.5000 
     88 O          -5.0132  -26.7495  -52.1601 O.2       15 UNK        -0.5000 
     89 N          -4.4367  -27.4634  -50.0873 N.am      16 UNK        -0.5000 
     90 CA         -5.6275  -28.2389  -49.7272 C.3       16 UNK         0.1400 
     91 CB         -5.8220  -29.4426  -50.6747 C.3       16 UNK        -0.1800 
     92 C          -6.8856  -27.3613  -49.5776 C.2       16 UNK         0.5000 
     93 O          -7.9384  -27.6777  -50.1349 O.2       16 UNK        -0.5000 
     94 N          -6.7393  -26.2785  -48.8017 N.am      17 UNK        -0.5000 
     95 CA         -7.7585  -25.2890  -48.4407 C.3       17 UNK         0.1400 
     96 CB         -8.9434  -25.9364  -47.6920 C.3       17 UNK        -0.1800 
     97 C          -8.1855  -24.4034  -49.6274 C.2       17 UNK         0.5000 
     98 O          -9.3577  -24.0382  -49.7404 O.2       17 UNK        -0.5000 
     99 N          -7.2128  -24.0424  -50.4747 N.am      18 UNK        -0.5000 
    100 CA        -7.3536  -22.9908  -51.4830 C.3       18 UNK         0.1400 
    101 CB        -6.2536  -23.1592  -52.5417 C.3       18 UNK        -0.1800 
    102 C         -7.2452  -21.6039  -50.8220 C.2       18 UNK         0.5000 
    103 O         -6.7538  -21.4948  -49.6968 O.2       18 UNK        -0.5000 
    104 N         -7.6494  -20.5508  -51.5409 N.am      19 UNK        -0.5000 
    105 CA        -7.5869  -19.1526  -51.0978 C.3       19 UNK         0.1400 
    106 CB        -8.5879  -18.3302  -51.9295 C.3       19 UNK        -0.1800 
    107 C         -6.1533  -18.5717  -51.1468 C.2       19 UNK         0.5000 
    108 O         -5.9260  -17.5446  -51.7888 O.2       19 UNK        -0.5000 
    109 N         -5.2053  -19.2669  -50.5008 N.am      20 UNK        -0.5000 
    110 CA        -3.7579  -19.0239  -50.3830 C.3       20 UNK         0.1400 
    111 CB        -3.4711  -17.6946  -49.6611 C.3       20 UNK        -0.1800 
    112 C         -2.9628  -19.1199  -51.7005 C.2       20 UNK         0.5000 
    113 O         -1.8355  -19.6150  -51.6876 O.2       20 UNK        -0.5000 
    114 N         -3.5497  -18.6448  -52.8034 N.am      21 UNK        -0.5000 
    115 CA        -2.9850  -18.6490  -54.1464 C.3       21 UNK         0.1400 
    116 CB        -3.8397  -17.7420  -55.0465 C.3       21 UNK        -0.1800 
    117 C         -2.8979  -20.0771  -54.7283 C.2       21 UNK         0.5000 
    118 O         -3.9392  -20.7249  -54.8422 O.2       21 UNK        -0.5000 
    119 N         -1.7229  -20.5842  -55.1244 N.am      22 UNK        -0.5000 
    120 CA        -0.3577  -20.0844  -54.9028 C.3       22 UNK         0.1400 
    121 C          0.6564  -21.2626  -55.0226 C.2       22 UNK         0.5000 
    122 N          1.9411  -21.0195  -54.8040 N.am      22 UNK        -0.7600 
    123 O          0.2919  -22.4040  -55.3093 O.2       22 UNK        -0.5000 
    124 C124        0.0043  -18.8581  -55.7994 C.3       23 UNK        -0.0398 
    125 S125        1.4031  -17.8391  -55.1943 S.3       23 UNK        -0.2404 
    126 C126        0.8250  -17.1676  -53.5955 C.3       23 UNK        -0.0205 
    127 H127        4.3545  -10.6172  -49.4347 H         1 UNK         0.0600 
    128 H128        5.1812   -9.9737  -48.0123 H         1 UNK         0.0600 
    129 H129        3.5670   -9.3925  -48.4337 H         1 UNK         0.0600 
    130 H130        3.5640  -12.6805  -49.0680 H         1 UNK         0.3000 
    131 H131        3.4091  -13.8544  -46.5173 H         1 UNK         0.0600 
    132 H132        2.2198  -14.8486  -49.1565 H         1 UNK         0.0800 
    133 H133        2.3490  -15.8139  -47.7098 H         1 UNK         0.0800 
    134 H134        5.4895  -15.6762  -50.8444 H         1 UNK         0.0800 
    135 H135        4.1438  -14.5618  -50.8621 H         1 UNK         0.0800 
    136 H136        2.5292  -15.4021  -52.3931 H         1 UNK         0.1150 
    137 H137        1.3547  -19.5275  -52.3402 H         1 UNK         0.1150 
    138 H138        4.5051  -18.1734  -49.7822 H         1 UNK         0.1150 
    139 H139        2.6652  -21.1474  -51.1293 H         1 UNK         0.0800 
    140 H140        4.2008  -20.6478  -50.4697 H         1 UNK         0.0800 
    141 H141        0.5070  -20.9269  -50.1170 H         1 UNK         0.0800 
    142 H142        0.1818  -19.8705  -48.7636 H         1 UNK         0.0800 
    143 H143        0.8328  -22.8410  -48.4747 H         1 UNK         0.0600 
    144 H144        0.5056  -20.8318  -46.4882 H         1 UNK         0.3000 
    145 H145       -0.2014  -23.1076  -43.7929 H         1 UNK         0.0600 
    146 H146        1.7153  -21.8363  -42.8739 H         1 UNK         0.0600 
    147 H147        2.2694  -22.9823  -44.0859 H         1 UNK         0.0600 
    148 H148        2.1546  -21.2731  -44.4840 H         1 UNK         0.0600 
    149 H149       -0.0560  -20.2574  -43.8882 H         1 UNK         0.3000 
    150 H150       -3.5423  -19.6978  -44.5845 H         1 UNK         0.0600 
    151 H151       -3.3650  -20.0795  -42.1320 H         1 UNK         0.0600 
    152 H152       -3.2893  -18.3644  -42.5084 H         1 UNK         0.0600 
    153 H153       -1.8188  -19.2427  -42.0944 H         1 UNK         0.0600 
    154 H154       -1.4510  -17.8403  -44.1596 H         1 UNK         0.3000 
    155 H155       -0.3026  -17.6498  -47.5571 H         1 UNK         0.0600 
    156 H156       -1.6938  -15.5910  -45.7775 H         1 UNK         0.0600 
    157 H157       -2.3972  -16.2113  -47.2633 H         1 UNK         0.0600 
    158 H158       -0.8866  -15.3299  -47.3243 H         1 UNK         0.0600 
    159 H159        0.5549  -16.2473  -45.2466 H         1 UNK         0.3000 
    160 H160        3.0433  -18.6488  -44.1930 H         1 UNK         0.0600 
    161 H161        3.0745  -15.7618  -45.2058 H         1 UNK         0.0600 
    162 H162        3.9516  -17.0944  -45.9513 H         1 UNK         0.0600 
    163 H163        4.3609  -16.5765  -44.3229 H         1 UNK         0.0600 
    164 H164        2.0852  -16.2059  -43.0279 H         1 UNK         0.3000 
    165 H165       -0.3651  -17.6152  -40.8903 H         1 UNK         0.0600 
    166 H166        1.0412  -16.5504  -39.1494 H         1 UNK         0.0600 
    167 H167        1.7900  -18.0447  -39.6905 H         1 UNK         0.0600 
    168 H168        2.4187  -16.4981  -40.2484 H         1 UNK         0.0600 
    169 H169        0.6628  -14.9641  -41.1292 H         1 UNK         0.3000 
    170 H170       -1.4689  -13.8655  -43.7678 H         1 UNK         0.0600 
    171 H171       -2.8030  -13.7196  -41.6953 H         1 UNK         0.0600 
    172 H172       -1.3869  -13.2435  -40.7707 H         1 UNK         0.0600 
    173 H173       -2.0164  -12.1846  -42.0322 H         1 UNK         0.0600 
    174 H174        0.4790  -12.9379  -43.9955 H         1 UNK         0.3000 
    175 H175        2.8205  -11.3848  -41.8925 H         1 UNK         0.0600 
    176 H176        3.2075  -13.5028  -44.0787 H         1 UNK         0.0600 
    177 H177        4.3868  -12.2775  -43.6196 H         1 UNK         0.0600 
    178 H178        3.9365  -13.5364  -42.4784 H         1 UNK         0.0600 
    179 H179        2.3238  -11.2560  -44.7098 H         1 UNK         0.3000 
    180 H180       -0.3221   -8.8528  -44.6117 H         1 UNK         0.0600 
    181 H181        2.5757   -8.6991  -45.6014 H         1 UNK         0.0600 
    182 H182        1.7616   -7.5205  -44.5844 H         1 UNK         0.0600 
    183 H183        1.2208   -7.7681  -46.2372 H         1 UNK         0.0600 
    184 H184        1.0961  -10.4404  -46.6139 H         1 UNK         0.3000 
    185 H185       -1.3184  -13.0221  -46.7546 H         1 UNK         0.0600 
    186 H186       -2.5113  -11.2656  -48.0596 H         1 UNK         0.0600 
    187 H187       -0.9895  -10.7274  -48.7601 H         1 UNK         0.0600 
    188 H188       -1.6123  -12.3383  -49.1206 H         1 UNK         0.0600 
    189 H189        0.9302  -12.2164  -48.4008 H         1 UNK         0.3000 
    190 H190       -2.0932  -21.0684  -47.4015 H         1 UNK         0.3000 
    191 H191       -3.9445  -22.1642  -49.2285 H         1 UNK         0.0600 
    192 H192       -4.2914  -21.2845  -46.3093 H         1 UNK         0.0600 
    193 H193       -5.6163  -21.6345  -47.3938 H         1 UNK         0.0600 
    194 H194       -4.5386  -20.2902  -47.7354 H         1 UNK         0.0600 
    195 H195       -2.8922  -23.4061  -46.0226 H         1 UNK         0.3000 
    196 H196       -4.4634  -25.7674  -46.0360 H         1 UNK         0.0600 
    197 H197       -2.9248  -26.4910  -44.2113 H         1 UNK         0.0600 
    198 H198       -3.4502  -24.8295  -43.9825 H         1 UNK         0.0600 
    199 H199       -1.8308  -25.1654  -44.5866 H         1 UNK         0.0600 
    200 H200       -1.0571  -25.2259  -47.0711 H         1 UNK         0.3000 
    201 H201       -0.4803  -27.8693  -47.8840 H         1 UNK         0.0600 
    202 H202        1.2451  -26.1166  -47.5117 H         1 UNK         0.0600 
    203 H203        0.6641  -25.2197  -48.9137 H         1 UNK         0.0600 
    204 H204        1.4018  -26.8026  -49.1223 H         1 UNK         0.0600 
    205 H205       -2.0523  -25.2165  -49.6464 H         1 UNK         0.3000 
    206 H206       -2.2870  -26.6575  -52.1621 H         1 UNK         0.0600 
    207 H207       -2.0307  -24.1969  -52.0841 H         1 UNK         0.0600 
    208 H208       -3.5632  -24.6185  -52.8249 H         1 UNK         0.0600 
    209 H209       -3.5192  -24.0473  -51.1559 H         1 UNK         0.0600 
    210 H210       -3.7254  -27.4196  -49.3674 H         1 UNK         0.3000 
    211 H211       -5.4282  -28.6450  -48.7341 H         1 UNK         0.0600 
    212 H212       -6.0844  -29.1303  -51.6860 H         1 UNK         0.0600 
    213 H213       -6.6226  -30.0916  -50.3179 H         1 UNK         0.0600 
    214 H214       -4.9172  -30.0476  -50.7341 H         1 UNK         0.0600 
    215 H215       -5.8023  -26.0436  -48.4905 H         1 UNK         0.3000 
    216 H216       -7.2715  -24.6126  -47.7364 H         1 UNK         0.0600 
    217 H217       -9.6065  -25.1740  -47.2814 H         1 UNK         0.0600 
    218 H218       -8.5974  -26.5466  -46.8575 H         1 UNK         0.0600 
    219 H219       -9.5437  -26.5692  -48.3461 H         1 UNK         0.0600 
    220 H220       -6.2725  -24.3499  -50.2682 H         1 UNK         0.3000 
    221 H221       -8.3287  -23.0824  -51.9658 H         1 UNK         0.0600 
    222 H222       -5.2719  -22.9087  -52.1414 H         1 UNK         0.0600 
    223 H223       -6.2164  -24.1809  -52.9207 H         1 UNK         0.0600 
    224 H224       -6.4277  -22.5026  -53.3948 H         1 UNK         0.0600 
    225 H225       -8.0028  -20.7046  -52.4743 H         1 UNK         0.3000 
    226 H226       -7.9106  -19.1044  -50.0558 H         1 UNK         0.0600 
    227 H227       -9.5997  -18.7235  -51.8305 H         1 UNK         0.0600 
    228 H228       -8.6131  -17.2912  -51.5984 H         1 UNK         0.0600 
    229 H229       -8.3287  -18.3321  -52.9889 H         1 UNK         0.0600 
    230 H230       -5.5351  -20.1134  -50.0431 H         1 UNK         0.3000 
    231 H231       -3.3730  -19.8211  -49.7477 H         1 UNK         0.0600 
    232 H232       -2.4001  -17.5663  -49.4986 H         1 UNK         0.0600 
    233 H233       -3.9517  -17.6694  -48.6827 H         1 UNK         0.0600 
    234 H234       -3.8211  -16.8341  -50.2325 H         1 UNK         0.0600 
    235 H235       -4.4737  -18.2354  -52.6946 H         1 UNK         0.3000 
    236 H236       -2.0050  -18.1957  -54.0730 H         1 UNK         0.0600 
    237 H237       -3.4385  -17.7073  -56.0610 H         1 UNK         0.0600 
    238 H238       -4.8703  -18.0947  -55.1112 H         1 UNK         0.0600 
    239 H239       -3.8608  -16.7183  -54.6696 H         1 UNK         0.0600 
    240 H240       -1.7165  -21.5251  -55.4994 H         1 UNK         0.3000 
    241 H241       -0.3200  -19.7933  -53.8547 H         1 UNK         0.0600 
    242 H242        2.6038  -21.7758  -54.8808 H         1 UNK         0.3800 
    243 H243        2.2696  -20.0811  -54.6205 H         1 UNK         0.3800 
    244 H244        0.2474  -19.1987  -56.8083 H         1 UNK         0.0800 
    245 H245       -0.8448  -18.1900  -55.9347 H         1 UNK         0.0800 
    246 H246       -0.1245  -17.5978  -53.2896 H         1 UNK         0.0800 
    247 H247        0.6490  -16.0954  -53.7067 H         1 UNK         0.0800 
@<TRIPOS>BOND
     1    1    2 1    
     2    1  127 1    
     3    1  128 1    
     4    1  129 1    
     5    2    3 2    
     6    2    4 am   BACKBONE|DICT|INTERRES
     7    4    5 1    
     8    4  130 1    
     9    5    6 1    
    10    5   65 1    
    11    5  131 1    
    12    6    7 1    
    13    6  132 1    
    14    6  133 1    
    15    7    8 1    
    16    8    9 1    
    17    8  134 1    
    18    8  135 1    
    19    9   10 ar   
    20    9   14 ar   
    21   10   11 ar   
    22   10  136 1    
    23   11   12 ar   
    24   11  126 1    
    25   12   13 ar   
    26   12  137 1    
    27   13   14 ar   
    28   13   15 1    
    29   14  138 1    
    30   15   16 1    
    31   15  139 1    
    32   15  140 1    
    33   16   17 1    
    34   17   18 1    
    35   17  141 1    
    36   17  142 1    
    37   18   19 1    
    38   18   67 1    
    39   18  143 1    
    40   19   20 am   BACKBONE|DICT|INTERRES
    41   19  144 1    
    42   20   21 2    
    43   20   22 1    
    44   22   23 1    
    45   22   24 1    
    46   22  145 1    
    47   23  146 1    
    48   23  147 1    
    49   23  148 1    
    50   24   25 am   BACKBONE|DICT|INTERRES
    51   24  149 1    
    52   25   26 2    
    53   25   27 1    
    54   27   28 1    
    55   27   29 1    
    56   27  150 1    
    57   28  151 1    
    58   28  152 1    
    59   28  153 1    
    60   29   30 am   BACKBONE|DICT|INTERRES
    61   29  154 1    
    62   30   31 2    
    63   30   32 1    
    64   32   33 1    
    65   32   34 1    
    66   32  155 1    
    67   33  156 1    
    68   33  157 1    
    69   33  158 1    
    70   34   35 am   BACKBONE|DICT|INTERRES
    71   34  159 1    
    72   35   36 2    
    73   35   37 1    
    74   37   38 1    
    75   37   39 1    
    76   37  160 1    
    77   38  161 1    
    78   38  162 1    
    79   38  163 1    
    80   39   40 am   BACKBONE|DICT|INTERRES
    81   39  164 1    
    82   40   41 2    
    83   40   42 1    
    84   42   43 1    
    85   42   44 1    
    86   42  165 1    
    87   43  166 1    
    88   43  167 1    
    89   43  168 1    
    90   44   45 am   BACKBONE|DICT|INTERRES
    91   44  169 1    
    92   45   46 2    
    93   45   47 1    
    94   47   48 1    
    95   47   49 1    
    96   47  170 1    
    97   48  171 1    
    98   48  172 1    
    99   48  173 1    
   100   49   50 am   BACKBONE|DICT|INTERRES
   101   49  174 1    
   102   50   51 2    
   103   50   52 1    
   104   52   53 1    
   105   52   54 1    
   106   52  175 1    
   107   53  176 1    
   108   53  177 1    
   109   53  178 1    
   110   54   55 am   BACKBONE|DICT|INTERRES
   111   54  179 1    
   112   55   56 2    
   113   55   57 1    
   114   57   58 1    
   115   57   59 1    
   116   57  180 1    
   117   58  181 1    
   118   58  182 1    
   119   58  183 1    
   120   59   60 am   BACKBONE|DICT|INTERRES
   121   59  184 1    
   122   60   61 2    
   123   60   62 1    
   124   62   63 1    
   125   62   64 1    
   126   62  185 1    
   127   63  186 1    
   128   63  187 1    
   129   63  188 1    
   130   64   65 am   BACKBONE|DICT|INTERRES
   131   64  189 1    
   132   65   66 2    
   133   67   68 2    
   134   67   69 am   BACKBONE|DICT|INTERRES
   135   69   70 1    
   136   69  190 1    
   137   70   71 1    
   138   70   72 1    
   139   70  191 1    
   140   71  192 1    
   141   71  193 1    
   142   71  194 1    
   143   72   73 2    
   144   72   74 am   BACKBONE|DICT|INTERRES
   145   74   75 1    
   146   74  195 1    
   147   75   76 1    
   148   75   77 1    
   149   75  196 1    
   150   76  197 1    
   151   76  198 1    
   152   76  199 1    
   153   77   78 2    
   154   77   79 am   BACKBONE|DICT|INTERRES
   155   79   80 1    
   156   79  200 1    
   157   80   81 1    
   158   80   82 1    
   159   80  201 1    
   160   81  202 1    
   161   81  203 1    
   162   81  204 1    
   163   82   83 2    
   164   82   84 am   BACKBONE|DICT|INTERRES
   165   84   85 1    
   166   84  205 1    
   167   85   86 1    
   168   85   87 1    
   169   85  206 1    
   170   86  207 1    
   171   86  208 1    
   172   86  209 1    
   173   87   88 2    
   174   87   89 am   BACKBONE|DICT|INTERRES
   175   89   90 1    
   176   89  210 1    
   177   90   91 1    
   178   90   92 1    
   179   90  211 1    
   180   91  212 1    
   181   91  213 1    
   182   91  214 1    
   183   92   93 2    
   184   92   94 am   BACKBONE|DICT|INTERRES
   185   94   95 1    
   186   94  215 1    
   187   95   96 1    
   188   95   97 1    
   189   95  216 1    
   190   96  217 1    
   191   96  218 1    
   192   96  219 1    
   193   97   98 2    
   194   97   99 am   BACKBONE|DICT|INTERRES
   195   99  100 1    
   196   99  220 1    
   197  100  101 1    
   198  100  102 1    
   199  100  221 1    
   200  101  222 1    
   201  101  223 1    
   202  101  224 1    
   203  102  103 2    
   204  102  104 am   BACKBONE|DICT|INTERRES
   205  104  105 1    
   206  104  225 1    
   207  105  106 1    
   208  105  107 1    
   209  105  226 1    
   210  106  227 1    
   211  106  228 1    
   212  106  229 1    
   213  107  108 2    
   214  107  109 am   BACKBONE|DICT|INTERRES
   215  109  110 1    
   216  109  230 1    
   217  110  111 1    
   218  110  112 1    
   219  110  231 1    
   220  111  232 1    
   221  111  233 1    
   222  111  234 1    
   223  112  113 2    
   224  112  114 am   BACKBONE|DICT|INTERRES
   225  114  115 1    
   226  114  235 1    
   227  115  116 1    
   228  115  117 1    
   229  115  236 1    
   230  116  237 1    
   231  116  238 1    
   232  116  239 1    
   233  117  118 2    
   234  117  119 am   BACKBONE|DICT|INTERRES
   235  119  120 1    
   236  119  240 1    
   237  120  121 1    
   238  120  124 1    
   239  120  241 1    
   240  121  122 am   BACKBONE|DICT|INTERRES
   241  121  123 2    
   242  122  242 1    
   243  122  243 1    
   244  124  125 1    
   245  124  244 1    
   246  124  245 1    
   247  125  126 1    
   248  126  246 1    
   249  126  247 1    
@<TRIPOS>SUBSTRUCTURE
     1 UNK         1 GROUP             0       ****    0 ROOT    
