@<TRIPOS>MOLECULE
3R540
247   249    1
SMALL
USER_CHARGES


@<TRIPOS>ATOM
      1 CA          2.2807   -8.4896  -49.1894 C.3       0 UNK        -0.1800 
      2 C           3.1108   -9.7275  -48.8790 C.2       0 UNK         0.5000 
      3 O           4.3106   -9.7457  -49.1559 O.2       0 UNK        -0.5000 
      4 N           2.4759  -10.7623  -48.3158 N.am      1 UNK        -0.5000 
      5 CA          3.1140  -12.0151  -47.9011 C.3       1 UNK         0.1400 
      6 C6          2.0718  -13.1006  -47.5454 C.3       23 UNK        -0.0398 
      7 S7          1.1301  -13.6826  -48.9904 S.3       23 UNK        -0.2404 
      8 C8         -0.1493  -14.6396  -48.1250 C.3       23 UNK        -0.0205 
      9 C9         -0.7616  -15.7200  -49.0021 C.ar      23 UNK        -0.0193 
     10 C10        -2.1163  -15.6778  -49.3482 C.ar      23 UNK        -0.1150 
     11 C11        -2.6986  -16.7352  -50.0541 C.ar      23 UNK        -0.0193 
     12 C12        -1.9111  -17.8217  -50.4407 C.ar      23 UNK        -0.1150 
     13 C13        -0.5548  -17.8687  -50.1117 C.ar      23 UNK        -0.0193 
     14 C14         0.0120  -16.8157  -49.3908 C.ar      23 UNK        -0.1150 
     15 C15         0.2974  -19.0585  -50.5231 C.3       23 UNK        -0.0205 
     16 S16         0.8603  -20.0298  -49.0906 S.3       23 UNK        -0.2404 
     17 C17        -0.6938  -20.7384  -48.4540 C.3       23 UNK        -0.0398 
     18 CA         -1.0285  -20.2606  -47.0180 C.3       11 UNK         0.1400 
     19 N          -1.5133  -18.8774  -46.9787 N.am      11 UNK        -0.5000 
     20 C          -1.7268  -18.1933  -45.8479 C.2       10 UNK         0.5000 
     21 O          -1.3701  -18.5832  -44.7351 O.2       10 UNK        -0.5000 
     22 CA         -2.4838  -16.8671  -45.9720 C.3       10 UNK         0.1400 
     23 CB         -3.9405  -17.0917  -46.4185 C.3       10 UNK        -0.1800 
     24 N          -2.4659  -16.1520  -44.6984 N.am      10 UNK        -0.5000 
     25 C          -2.5329  -14.8207  -44.5749 C.2       9 UNK         0.5000 
     26 O          -2.5833  -14.0583  -45.5405 O.2       9 UNK        -0.5000 
     27 CA         -2.5506  -14.2193  -43.1581 C.3       9 UNK         0.1400 
     28 CB         -3.8660  -13.4652  -42.8965 C.3       9 UNK        -0.1800 
     29 N          -2.3648  -15.2190  -42.1051 N.am      9 UNK        -0.5000 
     30 C          -1.5989  -15.0610  -41.0210 C.2       8 UNK         0.5000 
     31 O          -0.9004  -14.0667  -40.8205 O.2       8 UNK        -0.5000 
     32 CA         -1.6195  -16.1820  -39.9621 C.3       8 UNK         0.1400 
     33 CB         -2.8026  -15.9966  -38.9931 C.3       8 UNK        -0.1800 
     34 N          -1.5751  -17.5544  -40.4840 N.am      8 UNK        -0.5000 
     35 C          -2.4750  -18.2238  -41.2172 C.2       7 UNK         0.5000 
     36 O          -3.5149  -17.7262  -41.6533 O.2       7 UNK        -0.5000 
     37 CA         -2.1030  -19.6785  -41.5534 C.3       7 UNK         0.1400 
     38 CB         -3.1595  -20.3868  -42.4199 C.3       7 UNK        -0.1800 
     39 N          -0.8252  -19.6877  -42.2578 N.am      7 UNK        -0.5000 
     40 C           0.3692  -19.9335  -41.7091 C.2       6 UNK         0.5000 
     41 O           0.5275  -20.2557  -40.5314 O.2       6 UNK        -0.5000 
     42 CA          1.5956  -19.7499  -42.6202 C.3       6 UNK         0.1400 
     43 CB          1.8421  -21.0185  -43.4510 C.3       6 UNK        -0.1800 
     44 N           1.4832  -18.6069  -43.5263 N.am      6 UNK        -0.5000 
     45 C           1.4281  -17.3159  -43.1756 C.2       5 UNK         0.5000 
     46 O           1.4317  -16.9295  -42.0058 O.2       5 UNK        -0.5000 
     47 CA          1.3997  -16.2958  -44.3395 C.3       5 UNK         0.1400 
     48 CB          1.3318  -14.8375  -43.8566 C.3       5 UNK        -0.1800 
     49 N           2.5591  -16.4445  -45.2233 N.am      5 UNK        -0.5000 
     50 C           2.7175  -17.4226  -46.1284 C.2       4 UNK         0.5000 
     51 O           1.8469  -18.2578  -46.3656 O.2       4 UNK        -0.5000 
     52 CA          4.0729  -17.5251  -46.8587 C.3       4 UNK         0.1400 
     53 CB          3.9662  -16.9549  -48.2810 C.3       4 UNK        -0.1800 
     54 N           5.1715  -16.8574  -46.1582 N.am      4 UNK        -0.5000 
     55 C           5.6700  -17.2198  -44.9670 C.2       3 UNK         0.5000 
     56 O           5.3084  -18.2257  -44.3559 O.2       3 UNK        -0.5000 
     57 CA          6.7343  -16.2945  -44.3370 C.3       3 UNK         0.1400 
     58 CB          8.1271  -16.9367  -44.4325 C.3       3 UNK        -0.1800 
     59 N           6.7987  -14.9437  -44.9108 N.am      3 UNK        -0.5000 
     60 C           5.8104  -14.0374  -44.9043 C.2       2 UNK         0.5000 
     61 O           4.6905  -14.2656  -44.4433 O.2       2 UNK        -0.5000 
     62 CA          6.0879  -12.6748  -45.5698 C.3       2 UNK         0.1400 
     63 CB          7.5343  -12.4986  -46.0760 C.3       2 UNK        -0.1800 
     64 N           5.1723  -12.5336  -46.6986 N.am      2 UNK        -0.5000 
     65 C           4.0536  -11.8005  -46.6970 C.2       1 UNK         0.5000 
     66 O           3.7254  -11.0335  -45.7879 O.2       1 UNK        -0.5000 
     67 C          -2.0722  -21.2040  -46.3834 C.2       11 UNK         0.5000 
     68 O          -3.2749  -21.0144  -46.5838 O.2       11 UNK        -0.5000 
     69 N          -1.5878  -22.2118  -45.6488 N.am      12 UNK        -0.5000 
     70 CA         -2.4055  -23.2721  -45.0626 C.3       12 UNK         0.1400 
     71 CB         -1.5481  -24.0440  -44.0476 C.3       12 UNK        -0.1800 
     72 C          -2.9586  -24.2235  -46.1391 C.2       12 UNK         0.5000 
     73 O          -2.3825  -24.3261  -47.2245 O.2       12 UNK        -0.5000 
     74 N          -4.0366  -24.9442  -45.8003 N.am      13 UNK        -0.5000 
     75 CA         -4.7513  -25.8778  -46.6819 C.3       13 UNK         0.1400 
     76 CB         -5.9525  -26.4621  -45.9237 C.3       13 UNK        -0.1800 
     77 C          -3.8828  -27.0106  -47.2674 C.2       13 UNK         0.5000 
     78 O          -4.1944  -27.5153  -48.3460 O.2       13 UNK        -0.5000 
     79 N          -2.7817  -27.3489  -46.5814 N.am      14 UNK        -0.5000 
     80 CA         -1.7440  -28.2779  -47.0348 C.3       14 UNK         0.1400 
     81 CB         -0.7354  -28.4845  -45.8945 C.3       14 UNK        -0.1800 
     82 C          -1.0168  -27.8305  -48.3221 C.2       14 UNK         0.5000 
     83 O          -0.4710  -28.6805  -49.0264 O.2       14 UNK        -0.5000 
     84 N          -1.0368  -26.5228  -48.6246 N.am      15 UNK        -0.5000 
     85 CA         -0.5114  -25.9472  -49.8652 C.3       15 UNK         0.1400 
     86 CB         -0.2166  -24.4576  -49.6354 C.3       15 UNK        -0.1800 
     87 C          -1.4612  -26.1408  -51.0678 C.2       15 UNK         0.5000 
     88 O          -1.0490  -25.8867  -52.2010 O.2       15 UNK        -0.5000 
     89 N          -2.7010  -26.5884  -50.8066 N.am      16 UNK        -0.5000 
     90 CA         -3.7433  -26.9677  -51.7618 C.3       16 UNK         0.1400 
     91 CB         -3.3857  -28.3220  -52.4133 C.3       16 UNK        -0.1800 
     92 C          -4.0534  -25.8460  -52.7717 C.2       16 UNK         0.5000 
     93 O          -4.5977  -24.8129  -52.3773 O.2       16 UNK        -0.5000 
     94 N          -3.6826  -26.0529  -54.0426 N.am      17 UNK        -0.5000 
     95 CA         -3.8864  -25.1305  -55.1598 C.3       17 UNK         0.1400 
     96 CB         -3.3302  -25.7655  -56.4427 C.3       17 UNK        -0.1800 
     97 C          -3.2766  -23.7329  -54.9453 C.2       17 UNK         0.5000 
     98 O          -3.8508  -22.7523  -55.4161 O.2       17 UNK        -0.5000 
     99 N          -2.1525  -23.6560  -54.2179 N.am      18 UNK        -0.5000 
    100 CA        -1.4886  -22.3956  -53.8831 C.3       18 UNK         0.1400 
    101 CB        -0.0648  -22.6791  -53.3867 C.3       18 UNK        -0.1800 
    102 C         -2.2725  -21.5613  -52.8537 C.2       18 UNK         0.5000 
    103 O         -2.2369  -20.3346  -52.9281 O.2       18 UNK        -0.5000 
    104 N         -2.9833  -22.2286  -51.9333 N.am      19 UNK        -0.5000 
    105 CA        -3.8839  -21.5849  -50.9763 C.3       19 UNK         0.1400 
    106 CB        -4.0998  -22.5042  -49.7643 C.3       19 UNK        -0.1800 
    107 C         -5.2210  -21.2089  -51.6360 C.2       19 UNK         0.5000 
    108 O         -5.7290  -20.1108  -51.4061 O.2       19 UNK        -0.5000 
    109 N         -5.7470  -22.1163  -52.4718 N.am      20 UNK        -0.5000 
    110 CA        -7.0014  -21.9546  -53.2111 C.3       20 UNK         0.1400 
    111 CB        -7.3699  -23.2904  -53.8717 C.3       20 UNK        -0.1800 
    112 C         -6.9725  -20.8269  -54.2621 C.2       20 UNK         0.5000 
    113 O         -8.0310  -20.2928  -54.5966 O.2       20 UNK        -0.5000 
    114 N         -5.7736  -20.4664  -54.7446 N.am      21 UNK        -0.5000 
    115 CA        -5.5161  -19.4133  -55.7329 C.3       21 UNK         0.1400 
    116 CB        -4.0049  -19.3354  -56.0006 C.3       21 UNK        -0.1800 
    117 C         -6.0574  -18.0197  -55.3529 C.2       21 UNK         0.5000 
    118 O         -6.3606  -17.2301  -56.2487 O.2       21 UNK        -0.5000 
    119 N         -6.1888  -17.7483  -54.0482 N.am      22 UNK        -0.5000 
    120 CA        -6.8179  -16.5305  -53.5121 C.3       22 UNK         0.1400 
    121 C         -8.3755  -16.5292  -53.5811 C.2       22 UNK         0.5000 
    122 N         -9.0406  -17.6195  -53.9467 N.am      22 UNK        -0.7600 
    123 O         -8.9983  -15.5073  -53.3053 O.2       22 UNK        -0.5000 
    124 C124       -6.3308  -16.2096  -52.0770 C.3       23 UNK        -0.0398 
    125 S125       -4.5234  -15.9739  -51.9818 S.3       23 UNK        -0.2404 
    126 C126       -4.1850  -16.7303  -50.3665 C.3       23 UNK        -0.0205 
    127 H127        2.6767   -7.6281  -48.6517 H         1 UNK         0.0600 
    128 H128        1.2367   -8.6188  -48.9026 H         1 UNK         0.0600 
    129 H129        2.3153   -8.2723  -50.2569 H         1 UNK         0.0600 
    130 H130        1.4915  -10.6839  -48.1059 H         1 UNK         0.3000 
    131 H131        3.7132  -12.3749  -48.7408 H         1 UNK         0.0600 
    132 H132        1.3760  -12.7266  -46.7917 H         1 UNK         0.0800 
    133 H133        2.5563  -13.9748  -47.1055 H         1 UNK         0.0800 
    134 H134       -0.9148  -13.9551  -47.7561 H         1 UNK         0.0800 
    135 H135        0.2829  -15.1201  -47.2457 H         1 UNK         0.0800 
    136 H136       -2.7269  -14.8426  -49.0342 H         1 UNK         0.1150 
    137 H137       -2.3594  -18.6315  -50.9966 H         1 UNK         0.1150 
    138 H138        1.0536  -16.8596  -49.1096 H         1 UNK         0.1150 
    139 H139        1.1708  -18.6961  -51.0667 H         1 UNK         0.0800 
    140 H140       -0.2417  -19.7104  -51.2111 H         1 UNK         0.0800 
    141 H141       -1.5170  -20.5275  -49.1370 H         1 UNK         0.0800 
    142 H142       -0.5600  -21.8206  -48.4741 H         1 UNK         0.0800 
    143 H143       -0.1188  -20.3089  -46.4150 H         1 UNK         0.0600 
    144 H144       -1.8058  -18.4837  -47.8606 H         1 UNK         0.3000 
    145 H145       -1.9614  -16.2710  -46.7133 H         1 UNK         0.0600 
    146 H146       -3.9894  -17.6319  -47.3643 H         1 UNK         0.0600 
    147 H147       -4.4600  -16.1444  -46.5629 H         1 UNK         0.0600 
    148 H148       -4.4973  -17.6715  -45.6813 H         1 UNK         0.0600 
    149 H149       -2.3604  -16.7410  -43.8838 H         1 UNK         0.3000 
    150 H150       -1.7333  -13.4959  -43.1329 H         1 UNK         0.0600 
    151 H151       -4.0357  -12.6936  -43.6485 H         1 UNK         0.0600 
    152 H152       -3.8500  -12.9709  -41.9250 H         1 UNK         0.0600 
    153 H153       -4.7234  -14.1390  -42.9158 H         1 UNK         0.0600 
    154 H154       -2.9422  -16.0561  -42.1461 H         1 UNK         0.3000 
    155 H155       -0.7034  -16.0681  -39.3803 H         1 UNK         0.0600 
    156 H156       -2.7726  -16.7316  -38.1889 H         1 UNK         0.0600 
    157 H157       -3.7637  -16.0916  -39.4993 H         1 UNK         0.0600 
    158 H158       -2.7756  -15.0088  -38.5312 H         1 UNK         0.0600 
    159 H159       -0.7265  -18.0549  -40.2547 H         1 UNK         0.3000 
    160 H160       -2.0256  -20.2237  -40.6106 H         1 UNK         0.0600 
    161 H161       -3.2936  -19.8965  -43.3847 H         1 UNK         0.0600 
    162 H162       -4.1289  -20.4021  -41.9206 H         1 UNK         0.0600 
    163 H163       -2.8752  -21.4215  -42.6070 H         1 UNK         0.0600 
    164 H164       -0.8620  -19.3555  -43.2214 H         1 UNK         0.3000 
    165 H165        2.4644  -19.5827  -41.9805 H         1 UNK         0.0600 
    166 H166        1.0163  -21.2166  -44.1351 H         1 UNK         0.0600 
    167 H167        2.7539  -20.9304  -44.0424 H         1 UNK         0.0600 
    168 H168        1.9543  -21.8924  -42.8079 H         1 UNK         0.0600 
    169 H169        1.4736  -18.8105  -44.5210 H         1 UNK         0.3000 
    170 H170        0.4951  -16.4885  -44.9169 H         1 UNK         0.0600 
    171 H171        0.4638  -14.6770  -43.2190 H         1 UNK         0.0600 
    172 H172        2.2155  -14.5631  -43.2795 H         1 UNK         0.0600 
    173 H173        1.2499  -14.1461  -44.6946 H         1 UNK         0.0600 
    174 H174        3.3369  -15.8200  -45.0415 H         1 UNK         0.3000 
    175 H175        4.3221  -18.5855  -46.9343 H         1 UNK         0.0600 
    176 H176        3.6534  -15.9103  -48.2784 H         1 UNK         0.0600 
    177 H177        4.9186  -17.0208  -48.8071 H         1 UNK         0.0600 
    178 H178        3.2393  -17.5176  -48.8674 H         1 UNK         0.0600 
    179 H179        5.5443  -16.0256  -46.5893 H         1 UNK         0.3000 
    180 H180        6.4783  -16.1900  -43.2807 H         1 UNK         0.0600 
    181 H181        8.4502  -17.0425  -45.4689 H         1 UNK         0.0600 
    182 H182        8.1324  -17.9311  -43.9840 H         1 UNK         0.0600 
    183 H183        8.8737  -16.3420  -43.9058 H         1 UNK         0.0600 
    184 H184        7.6809  -14.6812  -45.3263 H         1 UNK         0.3000 
    185 H185        5.8987  -11.9069  -44.8170 H         1 UNK         0.0600 
    186 H186        8.2536  -12.5894  -45.2609 H         1 UNK         0.0600 
    187 H187        7.7959  -13.2286  -46.8432 H         1 UNK         0.0600 
    188 H188        7.6715  -11.5077  -46.5096 H         1 UNK         0.0600 
    189 H189        5.3548  -13.1347  -47.4892 H         1 UNK         0.3000 
    190 H190       -0.5891  -22.3276  -45.5680 H         1 UNK         0.3000 
    191 H191       -3.2484  -22.8139  -44.5417 H         1 UNK         0.0600 
    192 H192       -2.1313  -24.8168  -43.5454 H         1 UNK         0.0600 
    193 H193       -1.1598  -23.3801  -43.2744 H         1 UNK         0.0600 
    194 H194       -0.6988  -24.5330  -44.5269 H         1 UNK         0.0600 
    195 H195       -4.4337  -24.8168  -44.8805 H         1 UNK         0.3000 
    196 H196       -5.1295  -25.2985  -47.5268 H         1 UNK         0.0600 
    197 H197       -6.5237  -27.1410  -46.5585 H         1 UNK         0.0600 
    198 H198       -6.6340  -25.6765  -45.5970 H         1 UNK         0.0600 
    199 H199       -5.6375  -27.0231  -45.0430 H         1 UNK         0.0600 
    200 H200       -2.6086  -26.8750  -45.7077 H         1 UNK         0.3000 
    201 H201       -2.2245  -29.2349  -47.2480 H         1 UNK         0.0600 
    202 H202       -1.2220  -28.8820  -45.0036 H         1 UNK         0.0600 
    203 H203       -0.2419  -27.5510  -45.6210 H         1 UNK         0.0600 
    204 H204        0.0411  -29.1945  -46.1826 H         1 UNK         0.0600 
    205 H205       -1.5124  -25.8739  -48.0031 H         1 UNK         0.3000 
    206 H206        0.4310  -26.4440  -50.1046 H         1 UNK         0.0600 
    207 H207        0.3204  -24.2961  -48.7005 H         1 UNK         0.0600 
    208 H208        0.4069  -24.0571  -50.4332 H         1 UNK         0.0600 
    209 H209       -1.1330  -23.8689  -49.6035 H         1 UNK         0.0600 
    210 H210       -2.9492  -26.7464  -49.8370 H         1 UNK         0.3000 
    211 H211       -4.6559  -27.1119  -51.1819 H         1 UNK         0.0600 
    212 H212       -2.4453  -28.2812  -52.9642 H         1 UNK         0.0600 
    213 H213       -4.1663  -28.6488  -53.1017 H         1 UNK         0.0600 
    214 H214       -3.2849  -29.0986  -51.6548 H         1 UNK         0.0600 
    215 H215       -3.2104  -26.9183  -54.2595 H         1 UNK         0.3000 
    216 H216       -4.9624  -25.0053  -55.2852 H         1 UNK         0.0600 
    217 H217       -2.2587  -25.9544  -56.3660 H         1 UNK         0.0600 
    218 H218       -3.4881  -25.1124  -57.3022 H         1 UNK         0.0600 
    219 H219       -3.8242  -26.7124  -56.6615 H         1 UNK         0.0600 
    220 H220       -1.7577  -24.5042  -53.8279 H         1 UNK         0.3000 
    221 H221       -1.4115  -21.7986  -54.7946 H         1 UNK         0.0600 
    222 H222       -0.0712  -23.3151  -52.5040 H         1 UNK         0.0600 
    223 H223        0.5278  -23.1779  -54.1537 H         1 UNK         0.0600 
    224 H224        0.4517  -21.7548  -53.1242 H         1 UNK         0.0600 
    225 H225       -3.0197  -23.2379  -51.9832 H         1 UNK         0.3000 
    226 H226       -3.4239  -20.6642  -50.6149 H         1 UNK         0.0600 
    227 H227       -3.1619  -22.6920  -49.2442 H         1 UNK         0.0600 
    228 H228       -4.7776  -22.0461  -49.0429 H         1 UNK         0.0600 
    229 H229       -4.5240  -23.4674  -50.0483 H         1 UNK         0.0600 
    230 H230       -5.2790  -23.0134  -52.5657 H         1 UNK         0.3000 
    231 H231       -7.7801  -21.7059  -52.4873 H         1 UNK         0.0600 
    232 H232       -8.3483  -23.2320  -54.3501 H         1 UNK         0.0600 
    233 H233       -7.4119  -24.0981  -53.1406 H         1 UNK         0.0600 
    234 H234       -6.6475  -23.5664  -54.6388 H         1 UNK         0.0600 
    235 H235       -4.9704  -21.0103  -54.4577 H         1 UNK         0.3000 
    236 H236       -6.0128  -19.7112  -56.6581 H         1 UNK         0.0600 
    237 H237       -3.4499  -19.0955  -55.0930 H         1 UNK         0.0600 
    238 H238       -3.6209  -20.2773  -56.3911 H         1 UNK         0.0600 
    239 H239       -3.7761  -18.5651  -56.7383 H         1 UNK         0.0600 
    240 H240       -5.9189  -18.4510  -53.3735 H         1 UNK         0.3000 
    241 H241       -6.5039  -15.6971  -54.1436 H         1 UNK         0.0600 
    242 H242       -8.5599  -18.4815  -54.1870 H         1 UNK         0.3800 
    243 H243      -10.0468  -17.5891  -53.9888 H         1 UNK         0.3800 
    244 H244       -6.7974  -15.2955  -51.7055 H         1 UNK         0.0800 
    245 H245       -6.6358  -17.0068  -51.3967 H         1 UNK         0.0800 
    246 H246       -4.7298  -16.1888  -49.5915 H         1 UNK         0.0800 
    247 H247       -4.5667  -17.7528  -50.3560 H         1 UNK         0.0800 
@<TRIPOS>BOND
     1    1    2 1    
     2    1  127 1    
     3    1  128 1    
     4    1  129 1    
     5    2    3 2    
     6    2    4 am   BACKBONE|DICT|INTERRES
     7    4    5 1    
     8    4  130 1    
     9    5    6 1    
    10    5   65 1    
    11    5  131 1    
    12    6    7 1    
    13    6  132 1    
    14    6  133 1    
    15    7    8 1    
    16    8    9 1    
    17    8  134 1    
    18    8  135 1    
    19    9   10 ar   
    20    9   14 ar   
    21   10   11 ar   
    22   10  136 1    
    23   11   12 ar   
    24   11  126 1    
    25   12   13 ar   
    26   12  137 1    
    27   13   14 ar   
    28   13   15 1    
    29   14  138 1    
    30   15   16 1    
    31   15  139 1    
    32   15  140 1    
    33   16   17 1    
    34   17   18 1    
    35   17  141 1    
    36   17  142 1    
    37   18   19 1    
    38   18   67 1    
    39   18  143 1    
    40   19   20 am   BACKBONE|DICT|INTERRES
    41   19  144 1    
    42   20   21 2    
    43   20   22 1    
    44   22   23 1    
    45   22   24 1    
    46   22  145 1    
    47   23  146 1    
    48   23  147 1    
    49   23  148 1    
    50   24   25 am   BACKBONE|DICT|INTERRES
    51   24  149 1    
    52   25   26 2    
    53   25   27 1    
    54   27   28 1    
    55   27   29 1    
    56   27  150 1    
    57   28  151 1    
    58   28  152 1    
    59   28  153 1    
    60   29   30 am   BACKBONE|DICT|INTERRES
    61   29  154 1    
    62   30   31 2    
    63   30   32 1    
    64   32   33 1    
    65   32   34 1    
    66   32  155 1    
    67   33  156 1    
    68   33  157 1    
    69   33  158 1    
    70   34   35 am   BACKBONE|DICT|INTERRES
    71   34  159 1    
    72   35   36 2    
    73   35   37 1    
    74   37   38 1    
    75   37   39 1    
    76   37  160 1    
    77   38  161 1    
    78   38  162 1    
    79   38  163 1    
    80   39   40 am   BACKBONE|DICT|INTERRES
    81   39  164 1    
    82   40   41 2    
    83   40   42 1    
    84   42   43 1    
    85   42   44 1    
    86   42  165 1    
    87   43  166 1    
    88   43  167 1    
    89   43  168 1    
    90   44   45 am   BACKBONE|DICT|INTERRES
    91   44  169 1    
    92   45   46 2    
    93   45   47 1    
    94   47   48 1    
    95   47   49 1    
    96   47  170 1    
    97   48  171 1    
    98   48  172 1    
    99   48  173 1    
   100   49   50 am   BACKBONE|DICT|INTERRES
   101   49  174 1    
   102   50   51 2    
   103   50   52 1    
   104   52   53 1    
   105   52   54 1    
   106   52  175 1    
   107   53  176 1    
   108   53  177 1    
   109   53  178 1    
   110   54   55 am   BACKBONE|DICT|INTERRES
   111   54  179 1    
   112   55   56 2    
   113   55   57 1    
   114   57   58 1    
   115   57   59 1    
   116   57  180 1    
   117   58  181 1    
   118   58  182 1    
   119   58  183 1    
   120   59   60 am   BACKBONE|DICT|INTERRES
   121   59  184 1    
   122   60   61 2    
   123   60   62 1    
   124   62   63 1    
   125   62   64 1    
   126   62  185 1    
   127   63  186 1    
   128   63  187 1    
   129   63  188 1    
   130   64   65 am   BACKBONE|DICT|INTERRES
   131   64  189 1    
   132   65   66 2    
   133   67   68 2    
   134   67   69 am   BACKBONE|DICT|INTERRES
   135   69   70 1    
   136   69  190 1    
   137   70   71 1    
   138   70   72 1    
   139   70  191 1    
   140   71  192 1    
   141   71  193 1    
   142   71  194 1    
   143   72   73 2    
   144   72   74 am   BACKBONE|DICT|INTERRES
   145   74   75 1    
   146   74  195 1    
   147   75   76 1    
   148   75   77 1    
   149   75  196 1    
   150   76  197 1    
   151   76  198 1    
   152   76  199 1    
   153   77   78 2    
   154   77   79 am   BACKBONE|DICT|INTERRES
   155   79   80 1    
   156   79  200 1    
   157   80   81 1    
   158   80   82 1    
   159   80  201 1    
   160   81  202 1    
   161   81  203 1    
   162   81  204 1    
   163   82   83 2    
   164   82   84 am   BACKBONE|DICT|INTERRES
   165   84   85 1    
   166   84  205 1    
   167   85   86 1    
   168   85   87 1    
   169   85  206 1    
   170   86  207 1    
   171   86  208 1    
   172   86  209 1    
   173   87   88 2    
   174   87   89 am   BACKBONE|DICT|INTERRES
   175   89   90 1    
   176   89  210 1    
   177   90   91 1    
   178   90   92 1    
   179   90  211 1    
   180   91  212 1    
   181   91  213 1    
   182   91  214 1    
   183   92   93 2    
   184   92   94 am   BACKBONE|DICT|INTERRES
   185   94   95 1    
   186   94  215 1    
   187   95   96 1    
   188   95   97 1    
   189   95  216 1    
   190   96  217 1    
   191   96  218 1    
   192   96  219 1    
   193   97   98 2    
   194   97   99 am   BACKBONE|DICT|INTERRES
   195   99  100 1    
   196   99  220 1    
   197  100  101 1    
   198  100  102 1    
   199  100  221 1    
   200  101  222 1    
   201  101  223 1    
   202  101  224 1    
   203  102  103 2    
   204  102  104 am   BACKBONE|DICT|INTERRES
   205  104  105 1    
   206  104  225 1    
   207  105  106 1    
   208  105  107 1    
   209  105  226 1    
   210  106  227 1    
   211  106  228 1    
   212  106  229 1    
   213  107  108 2    
   214  107  109 am   BACKBONE|DICT|INTERRES
   215  109  110 1    
   216  109  230 1    
   217  110  111 1    
   218  110  112 1    
   219  110  231 1    
   220  111  232 1    
   221  111  233 1    
   222  111  234 1    
   223  112  113 2    
   224  112  114 am   BACKBONE|DICT|INTERRES
   225  114  115 1    
   226  114  235 1    
   227  115  116 1    
   228  115  117 1    
   229  115  236 1    
   230  116  237 1    
   231  116  238 1    
   232  116  239 1    
   233  117  118 2    
   234  117  119 am   BACKBONE|DICT|INTERRES
   235  119  120 1    
   236  119  240 1    
   237  120  121 1    
   238  120  124 1    
   239  120  241 1    
   240  121  122 am   BACKBONE|DICT|INTERRES
   241  121  123 2    
   242  122  242 1    
   243  122  243 1    
   244  124  125 1    
   245  124  244 1    
   246  124  245 1    
   247  125  126 1    
   248  126  246 1    
   249  126  247 1    
@<TRIPOS>SUBSTRUCTURE
     1 UNK         1 GROUP             0       ****    0 ROOT    
