@<TRIPOS>MOLECULE
3R540
247   249    1
SMALL
USER_CHARGES


@<TRIPOS>ATOM
      1 CA         -2.5194  -18.7164  -45.5309 C.3       0 UNK        -0.1800 
      2 C          -3.0861  -17.3597  -45.9256 C.2       0 UNK         0.5000 
      3 O          -4.2471  -17.0730  -45.6352 O.2       0 UNK        -0.5000 
      4 N          -2.2763  -16.5388  -46.6055 N.am      1 UNK        -0.5000 
      5 CA         -2.6344  -15.2015  -47.0903 C.3       1 UNK         0.1400 
      6 C6         -1.5570  -14.6199  -48.0403 C.3       23 UNK        -0.0398 
      7 S7         -1.2484  -15.7120  -49.4714 S.3       23 UNK        -0.2404 
      8 C8          0.5692  -15.8013  -49.5312 C.3       23 UNK        -0.0205 
      9 C9          1.0399  -17.1800  -49.9687 C.ar      23 UNK        -0.0193 
     10 C10         0.9792  -17.5644  -51.3119 C.ar      23 UNK        -0.1150 
     11 C11         1.4184  -18.8327  -51.7063 C.ar      23 UNK        -0.0193 
     12 C12         1.9423  -19.7071  -50.7489 C.ar      23 UNK        -0.1150 
     13 C13         2.0029  -19.3374  -49.4020 C.ar      23 UNK        -0.0193 
     14 C14         1.5496  -18.0724  -49.0228 C.ar      23 UNK        -0.1150 
     15 C15         2.5879  -20.2830  -48.3598 C.3       23 UNK        -0.0205 
     16 S16         1.7652  -21.9070  -48.3303 S.3       23 UNK        -0.2404 
     17 C17         0.0824  -21.4810  -47.7710 C.3       23 UNK        -0.0398 
     18 CA         -0.5459  -22.6634  -46.9959 C.3       11 UNK         0.1400 
     19 N           0.1303  -22.9043  -45.7176 N.am      11 UNK        -0.5000 
     20 C          -0.0433  -23.9647  -44.9158 C.2       10 UNK         0.5000 
     21 O          -0.8027  -24.8999  -45.1743 O.2       10 UNK        -0.5000 
     22 CA          0.7009  -23.9272  -43.5659 C.3       10 UNK         0.1400 
     23 CB          2.0727  -24.6053  -43.6905 C.3       10 UNK        -0.1800 
     24 N           0.8783  -22.5668  -43.0408 N.am      10 UNK        -0.5000 
     25 C          -0.1227  -21.7224  -42.7483 C.2       9 UNK         0.5000 
     26 O          -1.3100  -22.0162  -42.8817 O.2       9 UNK        -0.5000 
     27 CA          0.2622  -20.2962  -42.3155 C.3       9 UNK         0.1400 
     28 CB         -0.7996  -19.6239  -41.4207 C.3       9 UNK        -0.1800 
     29 N           1.6063  -20.1852  -41.7420 N.am      9 UNK        -0.5000 
     30 C           2.0280  -20.6369  -40.5509 C.2       8 UNK         0.5000 
     31 O           1.3365  -21.3076  -39.7841 O.2       8 UNK        -0.5000 
     32 CA          3.4711  -20.2738  -40.1396 C.3       8 UNK         0.1400 
     33 CB          4.3937  -21.4933  -40.2915 C.3       8 UNK        -0.1800 
     34 N           4.0366  -19.1588  -40.9050 N.am      8 UNK        -0.5000 
     35 C           3.6274  -17.8832  -40.8479 C.2       7 UNK         0.5000 
     36 O           2.7651  -17.4748  -40.0694 O.2       7 UNK        -0.5000 
     37 CA          4.2679  -16.9023  -41.8507 C.3       7 UNK         0.1400 
     38 CB          5.7366  -17.2426  -42.1853 C.3       7 UNK        -0.1800 
     39 N           3.4834  -16.7565  -43.0826 N.am      7 UNK        -0.5000 
     40 C           3.1246  -17.7167  -43.9522 C.2       6 UNK         0.5000 
     41 O           3.3472  -18.9154  -43.7779 O.2       6 UNK        -0.5000 
     42 CA          2.3764  -17.2925  -45.2338 C.3       6 UNK         0.1400 
     43 CB          0.9478  -17.8567  -45.2432 C.3       6 UNK        -0.1800 
     44 N           2.3002  -15.8462  -45.4249 N.am      6 UNK        -0.5000 
     45 C           3.3039  -15.0612  -45.8402 C.2       5 UNK         0.5000 
     46 O           4.4029  -15.4868  -46.1949 O.2       5 UNK        -0.5000 
     47 CA          3.0400  -13.5409  -45.8322 C.3       5 UNK         0.1400 
     48 CB          2.8006  -13.0247  -47.2598 C.3       5 UNK        -0.1800 
     49 N           1.9038  -13.1426  -44.9948 N.am      5 UNK        -0.5000 
     50 C           1.8195  -13.2746  -43.6625 C.2       4 UNK         0.5000 
     51 O           2.7142  -13.7706  -42.9756 O.2       4 UNK        -0.5000 
     52 CA          0.4892  -12.8524  -43.0053 C.3       4 UNK         0.1400 
     53 CB          0.6879  -12.1771  -41.6327 C.3       4 UNK        -0.1800 
     54 N          -0.3781  -12.0627  -43.8905 N.am      4 UNK        -0.5000 
     55 C          -0.2128  -10.7922  -44.2963 C.2       3 UNK         0.5000 
     56 O           0.7247  -10.0781  -43.9408 O.2       3 UNK        -0.5000 
     57 CA         -1.2414  -10.2246  -45.3013 C.3       3 UNK         0.1400 
     58 CB         -0.5672   -9.9408  -46.6542 C.3       3 UNK        -0.1800 
     59 N          -2.3891  -11.1037  -45.5364 N.am      3 UNK        -0.5000 
     60 C          -3.3807  -11.3400  -44.6670 C.2       2 UNK         0.5000 
     61 O          -3.4905  -10.7622  -43.5853 O.2       2 UNK        -0.5000 
     62 CA         -4.4036  -12.4284  -45.0545 C.3       2 UNK         0.1400 
     63 CB         -5.7057  -11.7841  -45.5550 C.3       2 UNK        -0.1800 
     64 N          -3.9333  -13.3901  -46.0616 N.am      2 UNK        -0.5000 
     65 C          -2.8963  -14.2288  -45.9211 C.2       1 UNK         0.5000 
     66 O          -2.1363  -14.2233  -44.9487 O.2       1 UNK        -0.5000 
     67 C          -2.0775  -22.5127  -46.8732 C.2       11 UNK         0.5000 
     68 O          -2.7604  -22.6642  -47.8867 O.2       11 UNK        -0.5000 
     69 N          -2.6115  -22.2915  -45.6596 N.am      12 UNK        -0.5000 
     70 CA         -4.0487  -22.3521  -45.3695 C.3       12 UNK         0.1400 
     71 CB         -4.3110  -21.9195  -43.9199 C.3       12 UNK        -0.1800 
     72 C          -4.6493  -23.7472  -45.6287 C.2       12 UNK         0.5000 
     73 O          -5.7991  -23.8387  -46.0574 O.2       12 UNK        -0.5000 
     74 N          -3.8473  -24.7953  -45.4001 N.am      13 UNK        -0.5000 
     75 CA         -4.1899  -26.1820  -45.6957 C.3       13 UNK         0.1400 
     76 CB         -3.7421  -27.0737  -44.5264 C.3       13 UNK        -0.1800 
     77 C          -3.5309  -26.6347  -47.0074 C.2       13 UNK         0.5000 
     78 O          -4.2138  -27.1886  -47.8685 O.2       13 UNK        -0.5000 
     79 N          -2.2186  -26.3910  -47.1402 N.am      14 UNK        -0.5000 
     80 CA         -1.3804  -26.9271  -48.2161 C.3       14 UNK         0.1400 
     81 CB          0.0992  -26.7613  -47.8345 C.3       14 UNK        -0.1800 
     82 C          -1.6527  -26.3264  -49.6078 C.2       14 UNK         0.5000 
     83 O          -1.3978  -27.0018  -50.6057 O.2       14 UNK        -0.5000 
     84 N          -2.1587  -25.0877  -49.6578 N.am      15 UNK        -0.5000 
     85 CA         -2.4816  -24.3700  -50.8938 C.3       15 UNK         0.1400 
     86 CB         -1.4361  -23.2636  -51.1195 C.3       15 UNK        -0.1800 
     87 C          -3.9110  -23.7993  -50.8682 C.2       15 UNK         0.5000 
     88 O          -4.2378  -22.9678  -51.7158 O.2       15 UNK        -0.5000 
     89 N          -4.7275  -24.2246  -49.8900 N.am      16 UNK        -0.5000 
     90 CA         -6.1076  -23.7898  -49.6381 C.3       16 UNK         0.1400 
     91 CB         -7.0507  -24.3673  -50.7131 C.3       16 UNK        -0.1800 
     92 C          -6.2435  -22.2589  -49.4639 C.2       16 UNK         0.5000 
     93 O          -7.1676  -21.6522  -50.0075 O.2       16 UNK        -0.5000 
     94 N          -5.2916  -21.6710  -48.7233 N.am      17 UNK        -0.5000 
     95 CA         -5.1024  -20.2364  -48.4805 C.3       17 UNK         0.1400 
     96 CB         -6.3058  -19.6158  -47.7411 C.3       17 UNK        -0.1800 
     97 C          -4.6965  -19.4835  -49.7610 C.2       17 UNK         0.5000 
     98 O          -5.1935  -18.3879  -50.0255 O.2       17 UNK        -0.5000 
     99 N          -3.7830  -20.1090  -50.5178 N.am      18 UNK        -0.5000 
    100 CA        -3.2168  -19.6630  -51.7920 C.3       18 UNK         0.1400 
    101 CB        -2.3602  -18.3993  -51.5983 C.3       18 UNK        -0.1800 
    102 C         -4.2899  -19.5067  -52.8838 C.2       18 UNK         0.5000 
    103 O         -4.4073  -18.4456  -53.5023 O.2       18 UNK        -0.5000 
    104 N         -5.0606  -20.5812  -53.0991 N.am      19 UNK        -0.5000 
    105 CA        -6.0795  -20.6848  -54.1424 C.3       19 UNK         0.1400 
    106 CB        -6.7905  -22.0399  -54.0272 C.3       19 UNK        -0.1800 
    107 C         -5.4621  -20.4980  -55.5399 C.2       19 UNK         0.5000 
    108 O         -4.4523  -21.1360  -55.8480 O.2       19 UNK        -0.5000 
    109 N         -6.0431  -19.5788  -56.3248 N.am      20 UNK        -0.5000 
    110 CA        -5.5655  -19.1141  -57.6352 C.3       20 UNK         0.1400 
    111 CB        -5.7264  -20.2261  -58.6930 C.3       20 UNK        -0.1800 
    112 C         -4.1311  -18.5360  -57.5910 C.2       20 UNK         0.5000 
    113 O         -3.3781  -18.6832  -58.5555 O.2       20 UNK        -0.5000 
    114 N         -3.7612  -17.9347  -56.4474 N.am      21 UNK        -0.5000 
    115 CA        -2.4293  -17.4182  -56.1042 C.3       21 UNK         0.1400 
    116 CB        -2.0928  -16.1758  -56.9549 C.3       21 UNK        -0.1800 
    117 C         -1.3265  -18.5001  -56.1569 C.2       21 UNK         0.5000 
    118 O         -0.1744  -18.1891  -56.4624 O.2       21 UNK        -0.5000 
    119 N         -1.7145  -19.7531  -55.8803 N.am      22 UNK        -0.5000 
    120 CA        -0.9091  -20.9781  -56.0159 C.3       22 UNK         0.1400 
    121 C         -0.6590  -21.4202  -57.4917 C.2       22 UNK         0.5000 
    122 N         -1.3069  -20.8353  -58.4935 N.am      22 UNK        -0.7600 
    123 O          0.1198  -22.3371  -57.7389 O.2       22 UNK        -0.5000 
    124 C124        0.4004  -20.9822  -55.1746 C.3       23 UNK        -0.0398 
    125 S125        0.1382  -20.6025  -53.4085 S.3       23 UNK        -0.2404 
    126 C126        1.3442  -19.2607  -53.1642 C.3       23 UNK        -0.0205 
    127 H127       -1.6873  -19.0077  -46.1713 H         1 UNK         0.0600 
    128 H128       -2.1743  -18.6970  -44.4972 H         1 UNK         0.0600 
    129 H129       -3.2914  -19.4788  -45.6182 H         1 UNK         0.0600 
    130 H130       -1.3403  -16.8378  -46.8289 H         1 UNK         0.3000 
    131 H131       -3.5619  -15.3069  -47.6578 H         1 UNK         0.0600 
    132 H132       -1.8734  -13.6508  -48.4300 H         1 UNK         0.0800 
    133 H133       -0.6287  -14.4398  -47.4963 H         1 UNK         0.0800 
    134 H134        0.9970  -15.5641  -48.5569 H         1 UNK         0.0800 
    135 H135        0.9437  -15.0446  -50.2220 H         1 UNK         0.0800 
    136 H136        0.5780  -16.8787  -52.0449 H         1 UNK         0.1150 
    137 H137        2.2926  -20.6837  -51.0525 H         1 UNK         0.1150 
    138 H138        1.6084  -17.7712  -47.9905 H         1 UNK         0.1150 
    139 H139        3.6453  -20.4320  -48.5817 H         1 UNK         0.0800 
    140 H140        2.5440  -19.8467  -47.3612 H         1 UNK         0.0800 
    141 H141        0.1097  -20.5832  -47.1521 H         1 UNK         0.0800 
    142 H142       -0.5004  -21.2243  -48.6571 H         1 UNK         0.0800 
    143 H143       -0.4034  -23.5596  -47.6011 H         1 UNK         0.0600 
    144 H144        0.7873  -22.1975  -45.4235 H         1 UNK         0.3000 
    145 H145        0.1020  -24.4882  -42.8457 H         1 UNK         0.0600 
    146 H146        2.5759  -24.6581  -42.7248 H         1 UNK         0.0600 
    147 H147        1.9708  -25.6270  -44.0591 H         1 UNK         0.0600 
    148 H148        2.7257  -24.0705  -44.3815 H         1 UNK         0.0600 
    149 H149        1.8267  -22.2478  -42.9078 H         1 UNK         0.3000 
    150 H150        0.2946  -19.7239  -43.2392 H         1 UNK         0.0600 
    151 H151       -1.7575  -19.5511  -41.9372 H         1 UNK         0.0600 
    152 H152       -0.5016  -18.6110  -41.1493 H         1 UNK         0.0600 
    153 H153       -0.9700  -20.1831  -40.5006 H         1 UNK         0.0600 
    154 H154        2.2836  -19.6908  -42.3161 H         1 UNK         0.3000 
    155 H155        3.4488  -19.9862  -39.0866 H         1 UNK         0.0600 
    156 H156        4.0239  -22.3392  -39.7104 H         1 UNK         0.0600 
    157 H157        5.4006  -21.2731  -39.9363 H         1 UNK         0.0600 
    158 H158        4.4665  -21.8158  -41.3310 H         1 UNK         0.0600 
    159 H159        4.7177  -19.4009  -41.6106 H         1 UNK         0.3000 
    160 H160        4.2632  -15.9237  -41.3679 H         1 UNK         0.0600 
    161 H161        5.8319  -18.1636  -42.7610 H         1 UNK         0.0600 
    162 H162        6.1940  -16.4442  -42.7698 H         1 UNK         0.0600 
    163 H163        6.3296  -17.3562  -41.2769 H         1 UNK         0.0600 
    164 H164        3.2035  -15.8039  -43.2876 H         1 UNK         0.3000 
    165 H165        2.9242  -17.7204  -46.0752 H         1 UNK         0.0600 
    166 H166        0.3917  -17.5609  -44.3525 H         1 UNK         0.0600 
    167 H167        0.3891  -17.5087  -46.1099 H         1 UNK         0.0600 
    168 H168        0.9630  -18.9456  -45.2888 H         1 UNK         0.0600 
    169 H169        1.4397  -15.3993  -45.1463 H         1 UNK         0.3000 
    170 H170        3.9355  -13.0583  -45.4356 H         1 UNK         0.0600 
    171 H171        3.6274  -13.2937  -47.9186 H         1 UNK         0.0600 
    172 H172        1.8887  -13.4380  -47.6913 H         1 UNK         0.0600 
    173 H173        2.7155  -11.9379  -47.2760 H         1 UNK         0.0600 
    174 H174        1.1178  -12.7271  -45.4707 H         1 UNK         0.3000 
    175 H175       -0.0538  -13.7818  -42.8275 H         1 UNK         0.0600 
    176 H176        1.3211  -11.2923  -41.6995 H         1 UNK         0.0600 
    177 H177       -0.2659  -11.8778  -41.1981 H         1 UNK         0.0600 
    178 H178        1.1637  -12.8607  -40.9286 H         1 UNK         0.0600 
    179 H179       -1.1692  -12.5787  -44.2630 H         1 UNK         0.3000 
    180 H180       -1.6073   -9.2800  -44.8936 H         1 UNK         0.0600 
    181 H181       -0.1811  -10.8524  -47.1121 H         1 UNK         0.0600 
    182 H182       -1.2658   -9.4826  -47.3547 H         1 UNK         0.0600 
    183 H183        0.2705   -9.2516  -46.5394 H         1 UNK         0.0600 
    184 H184       -2.3971  -11.6104  -46.4085 H         1 UNK         0.3000 
    185 H185       -4.6291  -12.9911  -44.1463 H         1 UNK         0.0600 
    186 H186       -5.5499  -11.2309  -46.4821 H         1 UNK         0.0600 
    187 H187       -6.4746  -12.5355  -45.7360 H         1 UNK         0.0600 
    188 H188       -6.1055  -11.0850  -44.8191 H         1 UNK         0.0600 
    189 H189       -4.4949  -13.4524  -46.8989 H         1 UNK         0.3000 
    190 H190       -2.0016  -22.1991  -44.8546 H         1 UNK         0.3000 
    191 H191       -4.5576  -21.6441  -46.0219 H         1 UNK         0.0600 
    192 H192       -3.8846  -22.6252  -43.2062 H         1 UNK         0.0600 
    193 H193       -5.3816  -21.8613  -43.7201 H         1 UNK         0.0600 
    194 H194       -3.8879  -20.9367  -43.7125 H         1 UNK         0.0600 
    195 H195       -2.9015  -24.6242  -45.0801 H         1 UNK         0.3000 
    196 H196       -5.2707  -26.2943  -45.8059 H         1 UNK         0.0600 
    197 H197       -3.9715  -28.1216  -44.7239 H         1 UNK         0.0600 
    198 H198       -4.2551  -26.7971  -43.6051 H         1 UNK         0.0600 
    199 H199       -2.6691  -26.9998  -44.3447 H         1 UNK         0.0600 
    200 H200       -1.7262  -25.9186  -46.3853 H         1 UNK         0.3000 
    201 H201       -1.5849  -27.9976  -48.2866 H         1 UNK         0.0600 
    202 H202        0.3175  -27.2449  -46.8821 H         1 UNK         0.0600 
    203 H203        0.3833  -25.7132  -47.7487 H         1 UNK         0.0600 
    204 H204        0.7488  -27.2146  -48.5843 H         1 UNK         0.0600 
    205 H205       -2.3384  -24.5874  -48.7967 H         1 UNK         0.3000 
    206 H206       -2.4473  -25.0474  -51.7491 H         1 UNK         0.0600 
    207 H207       -0.4224  -23.6641  -51.1024 H         1 UNK         0.0600 
    208 H208       -1.5769  -22.7876  -52.0902 H         1 UNK         0.0600 
    209 H209       -1.5019  -22.4860  -50.3600 H         1 UNK         0.0600 
    210 H210       -4.3733  -24.9318  -49.2621 H         1 UNK         0.3000 
    211 H211       -6.3989  -24.2273  -48.6826 H         1 UNK         0.0600 
    212 H212       -6.8087  -23.9920  -51.7066 H         1 UNK         0.0600 
    213 H213       -8.0901  -24.1101  -50.5066 H         1 UNK         0.0600 
    214 H214       -6.9878  -25.4549  -50.7447 H         1 UNK         0.0600 
    215 H215       -4.5381  -22.2602  -48.3794 H         1 UNK         0.3000 
    216 H216       -4.2419  -20.1541  -47.8164 H         1 UNK         0.0600 
    217 H217       -6.5515  -20.1811  -46.8422 H         1 UNK         0.0600 
    218 H218       -7.1961  -19.5776  -48.3689 H         1 UNK         0.0600 
    219 H219       -6.0836  -18.5941  -47.4304 H         1 UNK         0.0600 
    220 H220       -3.5010  -21.0333  -50.2255 H         1 UNK         0.3000 
    221 H221       -2.5542  -20.4612  -52.1266 H         1 UNK         0.0600 
    222 H222       -2.9640  -17.5344  -51.3231 H         1 UNK         0.0600 
    223 H223       -1.6174  -18.5523  -50.8161 H         1 UNK         0.0600 
    224 H224       -1.8245  -18.1477  -52.5141 H         1 UNK         0.0600 
    225 H225       -4.8670  -21.4287  -52.5697 H         1 UNK         0.3000 
    226 H226       -6.8139  -19.8961  -53.9675 H         1 UNK         0.0600 
    227 H227       -7.3093  -22.1251  -53.0724 H         1 UNK         0.0600 
    228 H228       -7.5358  -22.1609  -54.8142 H         1 UNK         0.0600 
    229 H229       -6.0879  -22.8708  -54.1053 H         1 UNK         0.0600 
    230 H230       -6.8568  -19.0954  -55.9696 H         1 UNK         0.3000 
    231 H231       -6.2147  -18.2866  -57.9245 H         1 UNK         0.0600 
    232 H232       -5.0535  -21.0636  -58.5061 H         1 UNK         0.0600 
    233 H233       -6.7457  -20.6118  -58.7080 H         1 UNK         0.0600 
    234 H234       -5.5091  -19.8499  -59.6934 H         1 UNK         0.0600 
    235 H235       -4.4265  -17.9198  -55.6832 H         1 UNK         0.3000 
    236 H236       -2.4851  -17.0986  -55.0627 H         1 UNK         0.0600 
    237 H237       -2.8839  -15.4287  -56.8913 H         1 UNK         0.0600 
    238 H238       -1.1733  -15.7021  -56.6093 H         1 UNK         0.0600 
    239 H239       -1.9542  -16.4299  -58.0061 H         1 UNK         0.0600 
    240 H240       -2.6961  -19.9193  -55.6937 H         1 UNK         0.3000 
    241 H241       -1.5441  -21.7649  -55.6073 H         1 UNK         0.0600 
    242 H242       -1.1347  -21.1475  -59.4357 H         1 UNK         0.3800 
    243 H243       -1.9643  -20.0793  -58.3342 H         1 UNK         0.3800 
    244 H244        1.1270  -20.2892  -55.6001 H         1 UNK         0.0800 
    245 H245        0.8713  -21.9654  -55.2191 H         1 UNK         0.0800 
    246 H246        2.3310  -19.5955  -53.4870 H         1 UNK         0.0800 
    247 H247        1.0749  -18.4178  -53.8027 H         1 UNK         0.0800 
@<TRIPOS>BOND
     1    1    2 1    
     2    1  127 1    
     3    1  128 1    
     4    1  129 1    
     5    2    3 2    
     6    2    4 am   BACKBONE|DICT|INTERRES
     7    4    5 1    
     8    4  130 1    
     9    5    6 1    
    10    5   65 1    
    11    5  131 1    
    12    6    7 1    
    13    6  132 1    
    14    6  133 1    
    15    7    8 1    
    16    8    9 1    
    17    8  134 1    
    18    8  135 1    
    19    9   10 ar   
    20    9   14 ar   
    21   10   11 ar   
    22   10  136 1    
    23   11   12 ar   
    24   11  126 1    
    25   12   13 ar   
    26   12  137 1    
    27   13   14 ar   
    28   13   15 1    
    29   14  138 1    
    30   15   16 1    
    31   15  139 1    
    32   15  140 1    
    33   16   17 1    
    34   17   18 1    
    35   17  141 1    
    36   17  142 1    
    37   18   19 1    
    38   18   67 1    
    39   18  143 1    
    40   19   20 am   BACKBONE|DICT|INTERRES
    41   19  144 1    
    42   20   21 2    
    43   20   22 1    
    44   22   23 1    
    45   22   24 1    
    46   22  145 1    
    47   23  146 1    
    48   23  147 1    
    49   23  148 1    
    50   24   25 am   BACKBONE|DICT|INTERRES
    51   24  149 1    
    52   25   26 2    
    53   25   27 1    
    54   27   28 1    
    55   27   29 1    
    56   27  150 1    
    57   28  151 1    
    58   28  152 1    
    59   28  153 1    
    60   29   30 am   BACKBONE|DICT|INTERRES
    61   29  154 1    
    62   30   31 2    
    63   30   32 1    
    64   32   33 1    
    65   32   34 1    
    66   32  155 1    
    67   33  156 1    
    68   33  157 1    
    69   33  158 1    
    70   34   35 am   BACKBONE|DICT|INTERRES
    71   34  159 1    
    72   35   36 2    
    73   35   37 1    
    74   37   38 1    
    75   37   39 1    
    76   37  160 1    
    77   38  161 1    
    78   38  162 1    
    79   38  163 1    
    80   39   40 am   BACKBONE|DICT|INTERRES
    81   39  164 1    
    82   40   41 2    
    83   40   42 1    
    84   42   43 1    
    85   42   44 1    
    86   42  165 1    
    87   43  166 1    
    88   43  167 1    
    89   43  168 1    
    90   44   45 am   BACKBONE|DICT|INTERRES
    91   44  169 1    
    92   45   46 2    
    93   45   47 1    
    94   47   48 1    
    95   47   49 1    
    96   47  170 1    
    97   48  171 1    
    98   48  172 1    
    99   48  173 1    
   100   49   50 am   BACKBONE|DICT|INTERRES
   101   49  174 1    
   102   50   51 2    
   103   50   52 1    
   104   52   53 1    
   105   52   54 1    
   106   52  175 1    
   107   53  176 1    
   108   53  177 1    
   109   53  178 1    
   110   54   55 am   BACKBONE|DICT|INTERRES
   111   54  179 1    
   112   55   56 2    
   113   55   57 1    
   114   57   58 1    
   115   57   59 1    
   116   57  180 1    
   117   58  181 1    
   118   58  182 1    
   119   58  183 1    
   120   59   60 am   BACKBONE|DICT|INTERRES
   121   59  184 1    
   122   60   61 2    
   123   60   62 1    
   124   62   63 1    
   125   62   64 1    
   126   62  185 1    
   127   63  186 1    
   128   63  187 1    
   129   63  188 1    
   130   64   65 am   BACKBONE|DICT|INTERRES
   131   64  189 1    
   132   65   66 2    
   133   67   68 2    
   134   67   69 am   BACKBONE|DICT|INTERRES
   135   69   70 1    
   136   69  190 1    
   137   70   71 1    
   138   70   72 1    
   139   70  191 1    
   140   71  192 1    
   141   71  193 1    
   142   71  194 1    
   143   72   73 2    
   144   72   74 am   BACKBONE|DICT|INTERRES
   145   74   75 1    
   146   74  195 1    
   147   75   76 1    
   148   75   77 1    
   149   75  196 1    
   150   76  197 1    
   151   76  198 1    
   152   76  199 1    
   153   77   78 2    
   154   77   79 am   BACKBONE|DICT|INTERRES
   155   79   80 1    
   156   79  200 1    
   157   80   81 1    
   158   80   82 1    
   159   80  201 1    
   160   81  202 1    
   161   81  203 1    
   162   81  204 1    
   163   82   83 2    
   164   82   84 am   BACKBONE|DICT|INTERRES
   165   84   85 1    
   166   84  205 1    
   167   85   86 1    
   168   85   87 1    
   169   85  206 1    
   170   86  207 1    
   171   86  208 1    
   172   86  209 1    
   173   87   88 2    
   174   87   89 am   BACKBONE|DICT|INTERRES
   175   89   90 1    
   176   89  210 1    
   177   90   91 1    
   178   90   92 1    
   179   90  211 1    
   180   91  212 1    
   181   91  213 1    
   182   91  214 1    
   183   92   93 2    
   184   92   94 am   BACKBONE|DICT|INTERRES
   185   94   95 1    
   186   94  215 1    
   187   95   96 1    
   188   95   97 1    
   189   95  216 1    
   190   96  217 1    
   191   96  218 1    
   192   96  219 1    
   193   97   98 2    
   194   97   99 am   BACKBONE|DICT|INTERRES
   195   99  100 1    
   196   99  220 1    
   197  100  101 1    
   198  100  102 1    
   199  100  221 1    
   200  101  222 1    
   201  101  223 1    
   202  101  224 1    
   203  102  103 2    
   204  102  104 am   BACKBONE|DICT|INTERRES
   205  104  105 1    
   206  104  225 1    
   207  105  106 1    
   208  105  107 1    
   209  105  226 1    
   210  106  227 1    
   211  106  228 1    
   212  106  229 1    
   213  107  108 2    
   214  107  109 am   BACKBONE|DICT|INTERRES
   215  109  110 1    
   216  109  230 1    
   217  110  111 1    
   218  110  112 1    
   219  110  231 1    
   220  111  232 1    
   221  111  233 1    
   222  111  234 1    
   223  112  113 2    
   224  112  114 am   BACKBONE|DICT|INTERRES
   225  114  115 1    
   226  114  235 1    
   227  115  116 1    
   228  115  117 1    
   229  115  236 1    
   230  116  237 1    
   231  116  238 1    
   232  116  239 1    
   233  117  118 2    
   234  117  119 am   BACKBONE|DICT|INTERRES
   235  119  120 1    
   236  119  240 1    
   237  120  121 1    
   238  120  124 1    
   239  120  241 1    
   240  121  122 am   BACKBONE|DICT|INTERRES
   241  121  123 2    
   242  122  242 1    
   243  122  243 1    
   244  124  125 1    
   245  124  244 1    
   246  124  245 1    
   247  125  126 1    
   248  126  246 1    
   249  126  247 1    
@<TRIPOS>SUBSTRUCTURE
     1 UNK         1 GROUP             0       ****    0 ROOT    
