@<TRIPOS>MOLECULE
3R540
247   249    1
SMALL
USER_CHARGES


@<TRIPOS>ATOM
      1 CA         -2.2840  -10.7886  -47.5597 C.3       0 UNK        -0.1800 
      2 C          -0.9766  -11.5261  -47.3063 C.2       0 UNK         0.5000 
      3 O          -0.7684  -12.0186  -46.1992 O.2       0 UNK        -0.5000 
      4 N          -0.1189  -11.6056  -48.3342 N.am      1 UNK        -0.5000 
      5 CA          1.2214  -12.2058  -48.3483 C.3       1 UNK         0.1400 
      6 C6          1.2543  -13.6670  -47.8182 C.3       23 UNK        -0.0398 
      7 S7          2.8000  -14.5563  -48.2054 S.3       23 UNK        -0.2404 
      8 C8          2.4605  -15.1702  -49.8833 C.3       23 UNK        -0.0205 
      9 C9          1.7176  -16.4974  -49.8800 C.ar      23 UNK        -0.0193 
     10 C10         0.3327  -16.5417  -50.0746 C.ar      23 UNK        -0.1150 
     11 C11        -0.3312  -17.7701  -50.1500 C.ar      23 UNK        -0.0193 
     12 C12         0.4020  -18.9535  -50.0406 C.ar      23 UNK        -0.1150 
     13 C13         1.7820  -18.9248  -49.8201 C.ar      23 UNK        -0.0193 
     14 C14         2.4323  -17.6908  -49.7356 C.ar      23 UNK        -0.1150 
     15 C15         2.5754  -20.2222  -49.7168 C.3       23 UNK        -0.0205 
     16 S16         2.4519  -20.9891  -48.0676 S.3       23 UNK        -0.2404 
     17 C17         0.7247  -21.5649  -48.0959 C.3       23 UNK        -0.0398 
     18 CA          0.4219  -22.6966  -47.0917 C.3       11 UNK         0.1400 
     19 N           0.4907  -22.2576  -45.6962 N.am      11 UNK        -0.5000 
     20 C           0.3482  -23.0644  -44.6346 C.2       10 UNK         0.5000 
     21 O           0.2325  -24.2885  -44.7138 O.2       10 UNK        -0.5000 
     22 CA          0.2531  -22.3831  -43.2571 C.3       10 UNK         0.1400 
     23 CB          1.6452  -22.0171  -42.7215 C.3       10 UNK        -0.1800 
     24 N          -0.6046  -21.1954  -43.2801 N.am      10 UNK        -0.5000 
     25 C          -1.9203  -21.2235  -43.5405 C.2       9 UNK         0.5000 
     26 O          -2.5529  -22.2603  -43.7380 O.2       9 UNK        -0.5000 
     27 CA         -2.6504  -19.8721  -43.6330 C.3       9 UNK         0.1400 
     28 CB         -2.9958  -19.3451  -42.2325 C.3       9 UNK        -0.1800 
     29 N          -1.8878  -18.8632  -44.3670 N.am      9 UNK        -0.5000 
     30 C          -1.5622  -18.9396  -45.6654 C.2       8 UNK         0.5000 
     31 O          -1.9195  -19.8533  -46.4070 O.2       8 UNK        -0.5000 
     32 CA         -0.6318  -17.8416  -46.2147 C.3       8 UNK         0.1400 
     33 CB         -1.4231  -16.5748  -46.5691 C.3       8 UNK        -0.1800 
     34 N           0.4501  -17.5090  -45.2867 N.am      8 UNK        -0.5000 
     35 C           1.3819  -18.3821  -44.8767 C.2       7 UNK         0.5000 
     36 O           1.4379  -19.5520  -45.2505 O.2       7 UNK        -0.5000 
     37 CA          2.3763  -17.8831  -43.8195 C.3       7 UNK         0.1400 
     38 CB          3.4805  -17.0371  -44.4649 C.3       7 UNK        -0.1800 
     39 N           1.7004  -17.1153  -42.7750 N.am      7 UNK        -0.5000 
     40 C           0.9048  -17.6649  -41.8453 C.2       6 UNK         0.5000 
     41 O           0.7007  -18.8756  -41.7523 O.2       6 UNK        -0.5000 
     42 CA          0.1822  -16.7021  -40.8838 C.3       6 UNK         0.1400 
     43 CB          1.0858  -16.3467  -39.6938 C.3       6 UNK        -0.1800 
     44 N          -0.2616  -15.4707  -41.5369 N.am      6 UNK        -0.5000 
     45 C          -1.1588  -15.4149  -42.5311 C.2       5 UNK         0.5000 
     46 O          -1.7594  -16.3974  -42.9611 O.2       5 UNK        -0.5000 
     47 CA         -1.3989  -14.0430  -43.1864 C.3       5 UNK         0.1400 
     48 CB         -2.6389  -13.3680  -42.5824 C.3       5 UNK        -0.1800 
     49 N          -0.2605  -13.1261  -43.0957 N.am      5 UNK        -0.5000 
     50 C           0.9541  -13.3466  -43.6166 C.2       4 UNK         0.5000 
     51 O           1.2790  -14.4050  -44.1618 O.2       4 UNK        -0.5000 
     52 CA          1.9427  -12.1728  -43.4926 C.3       4 UNK         0.1400 
     53 CB          2.2623  -11.8382  -42.0196 C.3       4 UNK        -0.1800 
     54 N           3.1626  -12.3534  -44.2842 N.am      4 UNK        -0.5000 
     55 C           4.2047  -13.1703  -44.0620 C.2       3 UNK         0.5000 
     56 O           4.3079  -13.9001  -43.0753 O.2       3 UNK        -0.5000 
     57 CA          5.3418  -13.1604  -45.1109 C.3       3 UNK         0.1400 
     58 CB          5.7435  -14.5814  -45.5396 C.3       3 UNK        -0.1800 
     59 N           4.9994  -12.3962  -46.3117 N.am      3 UNK        -0.5000 
     60 C           5.2004  -11.0828  -46.4840 C.2       2 UNK         0.5000 
     61 O           5.7841  -10.3661  -45.6711 O.2       2 UNK        -0.5000 
     62 CA          4.6124  -10.4595  -47.7667 C.3       2 UNK         0.1400 
     63 CB          5.6844  -10.3751  -48.8637 C.3       2 UNK        -0.1800 
     64 N           3.4526  -11.1928  -48.2871 N.am      2 UNK        -0.5000 
     65 C           2.2685  -11.2967  -47.6662 C.2       1 UNK         0.5000 
     66 O           2.0220  -10.7399  -46.5951 O.2       1 UNK        -0.5000 
     67 C          -0.9499  -23.3166  -47.4172 C.2       11 UNK         0.5000 
     68 O          -0.9936  -24.4215  -47.9519 O.2       11 UNK        -0.5000 
     69 N          -2.0403  -22.6172  -47.0722 N.am      12 UNK        -0.5000 
     70 CA         -3.4173  -23.0584  -47.2971 C.3       12 UNK         0.1400 
     71 CB         -4.3889  -21.9380  -46.9004 C.3       12 UNK        -0.1800 
     72 C          -3.7694  -24.3704  -46.5742 C.2       12 UNK         0.5000 
     73 O          -4.4790  -25.1976  -47.1454 O.2       12 UNK        -0.5000 
     74 N          -3.2488  -24.5602  -45.3557 N.am      13 UNK        -0.5000 
     75 CA         -3.3884  -25.7979  -44.5891 C.3       13 UNK         0.1400 
     76 CB         -2.8724  -25.5758  -43.1593 C.3       13 UNK        -0.1800 
     77 C          -2.6723  -26.9915  -45.2501 C.2       13 UNK         0.5000 
     78 O          -3.2178  -28.0955  -45.2599 O.2       13 UNK        -0.5000 
     79 N          -1.4745  -26.7482  -45.7980 N.am      14 UNK        -0.5000 
     80 CA         -0.6543  -27.7555  -46.4690 C.3       14 UNK         0.1400 
     81 CB          0.8032  -27.2700  -46.5098 C.3       14 UNK        -0.1800 
     82 C          -1.1541  -28.0892  -47.8869 C.2       14 UNK         0.5000 
     83 O          -1.2184  -29.2642  -48.2497 O.2       14 UNK        -0.5000 
     84 N          -1.4809  -27.0516  -48.6664 N.am      15 UNK        -0.5000 
     85 CA         -1.7975  -27.1326  -50.0940 C.3       15 UNK         0.1400 
     86 CB         -1.2016  -25.8998  -50.7949 C.3       15 UNK        -0.1800 
     87 C          -3.3037  -27.2614  -50.3931 C.2       15 UNK         0.5000 
     88 O          -3.6801  -27.1938  -51.5635 O.2       15 UNK        -0.5000 
     89 N          -4.1355  -27.4312  -49.3543 N.am      16 UNK        -0.5000 
     90 CA         -5.5943  -27.5946  -49.4015 C.3       16 UNK         0.1400 
     91 CB         -5.9760  -28.9249  -50.0838 C.3       16 UNK        -0.1800 
     92 C          -6.2909  -26.3701  -50.0296 C.2       16 UNK         0.5000 
     93 O          -6.8558  -26.4561  -51.1205 O.2       16 UNK        -0.5000 
     94 N          -6.1786  -25.2398  -49.3217 N.am      17 UNK        -0.5000 
     95 CA         -6.6470  -23.8837  -49.6366 C.3       17 UNK         0.1400 
     96 CB         -8.1180  -23.8542  -50.0982 C.3       17 UNK        -0.1800 
     97 C          -5.7260  -23.1076  -50.5972 C.2       17 UNK         0.5000 
     98 O          -5.9085  -21.8986  -50.7435 O.2       17 UNK        -0.5000 
     99 N          -4.7493  -23.7904  -51.2133 N.am      18 UNK        -0.5000 
    100 CA        -3.7193  -23.3056  -52.1448 C.3       18 UNK         0.1400 
    101 CB        -2.8100  -22.2515  -51.4809 C.3       18 UNK        -0.1800 
    102 C         -4.2556  -22.8187  -53.5083 C.2       18 UNK         0.5000 
    103 O         -3.6899  -23.1885  -54.5382 O.2       18 UNK        -0.5000 
    104 N         -5.3453  -22.0402  -53.4905 N.am      19 UNK        -0.5000 
    105 CA        -6.0739  -21.4733  -54.6282 C.3       19 UNK         0.1400 
    106 CB        -6.7474  -22.5994  -55.4444 C.3       19 UNK        -0.1800 
    107 C         -5.2176  -20.5150  -55.4873 C.2       19 UNK         0.5000 
    108 O         -4.2324  -19.9580  -54.9958 O.2       19 UNK        -0.5000 
    109 N         -5.6325  -20.3072  -56.7462 N.am      20 UNK        -0.5000 
    110 CA        -5.0600  -19.3769  -57.7236 C.3       20 UNK         0.1400 
    111 CB        -3.6526  -19.8388  -58.1665 C.3       20 UNK        -0.1800 
    112 C         -5.1184  -17.9262  -57.2030 C.2       20 UNK         0.5000 
    113 O         -6.2077  -17.3528  -57.1509 O.2       20 UNK        -0.5000 
    114 N         -3.9661  -17.3675  -56.8132 N.am      21 UNK        -0.5000 
    115 CA        -3.8494  -16.0438  -56.2015 C.3       21 UNK         0.1400 
    116 CB        -2.3853  -15.5854  -56.2894 C.3       21 UNK        -0.1800 
    117 C         -4.3381  -16.0020  -54.7391 C.2       21 UNK         0.5000 
    118 O         -4.7108  -14.9281  -54.2639 O.2       21 UNK        -0.5000 
    119 N         -4.3142  -17.1481  -54.0476 N.am      22 UNK        -0.5000 
    120 CA        -4.7477  -17.2901  -52.6517 C.3       22 UNK         0.1400 
    121 C         -6.2918  -17.4047  -52.5505 C.2       22 UNK         0.5000 
    122 N         -6.9127  -16.7129  -51.6047 N.am      22 UNK        -0.7600 
    123 O         -6.9288  -18.1470  -53.2947 O.2       22 UNK        -0.5000 
    124 C124       -4.0674  -18.4952  -51.9552 C.3       23 UNK        -0.0398 
    125 S125       -2.2445  -18.4175  -52.0292 S.3       23 UNK        -0.2404 
    126 C126       -1.8369  -17.8363  -50.3548 C.3       23 UNK        -0.0205 
    127 H127       -2.3502  -10.4156  -48.5820 H         1 UNK         0.0600 
    128 H128       -2.3720   -9.9398  -46.8815 H         1 UNK         0.0600 
    129 H129       -3.1293  -11.4542  -47.3851 H         1 UNK         0.0600 
    130 H130       -0.3789  -11.1527  -49.1993 H         1 UNK         0.3000 
    131 H131        1.4781  -12.2422  -49.4080 H         1 UNK         0.0600 
    132 H132        1.1206  -13.6911  -46.7367 H         1 UNK         0.0800 
    133 H133        0.4192  -14.2289  -48.2348 H         1 UNK         0.0800 
    134 H134        1.9075  -14.4230  -50.4539 H         1 UNK         0.0800 
    135 H135        3.4119  -15.2953  -50.4025 H         1 UNK         0.0800 
    136 H136       -0.2249  -15.6226  -50.1857 H         1 UNK         0.1150 
    137 H137       -0.1126  -19.8979  -50.1369 H         1 UNK         0.1150 
    138 H138        3.5019  -17.6569  -49.5825 H         1 UNK         0.1150 
    139 H139        2.2391  -20.9259  -50.4796 H         1 UNK         0.0800 
    140 H140        3.6284  -20.0323  -49.9300 H         1 UNK         0.0800 
    141 H141        0.5088  -21.9041  -49.1110 H         1 UNK         0.0800 
    142 H142        0.0762  -20.7098  -47.9057 H         1 UNK         0.0800 
    143 H143        1.1701  -23.4809  -47.2253 H         1 UNK         0.0600 
    144 H144        0.6456  -21.2642  -45.5406 H         1 UNK         0.3000 
    145 H145       -0.1942  -23.1003  -42.5657 H         1 UNK         0.0600 
    146 H146        1.5827  -21.5978  -41.7172 H         1 UNK         0.0600 
    147 H147        2.2852  -22.8985  -42.6671 H         1 UNK         0.0600 
    148 H148        2.1462  -21.2875  -43.3572 H         1 UNK         0.0600 
    149 H149       -0.1568  -20.3054  -43.0942 H         1 UNK         0.3000 
    150 H150       -3.5860  -20.0355  -44.1709 H         1 UNK         0.0600 
    151 H151       -3.5932  -18.4351  -42.2908 H         1 UNK         0.0600 
    152 H152       -3.5749  -20.0788  -41.6704 H         1 UNK         0.0600 
    153 H153       -2.0994  -19.1199  -41.6543 H         1 UNK         0.0600 
    154 H154       -1.6106  -18.0375  -43.8420 H         1 UNK         0.3000 
    155 H155       -0.1717  -18.2213  -47.1293 H         1 UNK         0.0600 
    156 H156       -1.9333  -16.1595  -45.7004 H         1 UNK         0.0600 
    157 H157       -2.1813  -16.7898  -47.3228 H         1 UNK         0.0600 
    158 H158       -0.7702  -15.8040  -46.9754 H         1 UNK         0.0600 
    159 H159        0.4771  -16.5662  -44.9213 H         1 UNK         0.3000 
    160 H160        2.8463  -18.7545  -43.3584 H         1 UNK         0.0600 
    161 H161        3.0742  -16.1575  -44.9642 H         1 UNK         0.0600 
    162 H162        4.0265  -17.6135  -45.2127 H         1 UNK         0.0600 
    163 H163        4.2019  -16.6987  -43.7213 H         1 UNK         0.0600 
    164 H164        1.7652  -16.1068  -42.8422 H         1 UNK         0.3000 
    165 H165       -0.7020  -17.2164  -40.5015 H         1 UNK         0.0600 
    166 H166        0.5565  -15.7312  -38.9663 H         1 UNK         0.0600 
    167 H167        1.4195  -17.2467  -39.1754 H         1 UNK         0.0600 
    168 H168        1.9756  -15.8017  -40.0120 H         1 UNK         0.0600 
    169 H169        0.1874  -14.6134  -41.2514 H         1 UNK         0.3000 
    170 H170       -1.5895  -14.2181  -44.2470 H         1 UNK         0.0600 
    171 H171       -3.5125  -14.0172  -42.6570 H         1 UNK         0.0600 
    172 H172       -2.4946  -13.1309  -41.5276 H         1 UNK         0.0600 
    173 H173       -2.8786  -12.4428  -43.1069 H         1 UNK         0.0600 
    174 H174       -0.4495  -12.2285  -42.6746 H         1 UNK         0.3000 
    175 H175        1.4458  -11.3050  -43.9289 H         1 UNK         0.0600 
    176 H176        2.6352  -12.7056  -41.4742 H         1 UNK         0.0600 
    177 H177        3.0107  -11.0490  -41.9476 H         1 UNK         0.0600 
    178 H178        1.3746  -11.4857  -41.4939 H         1 UNK         0.0600 
    179 H179        3.1668  -11.8210  -45.1451 H         1 UNK         0.3000 
    180 H180        6.2083  -12.7043  -44.6280 H         1 UNK         0.0600 
    181 H181        4.9297  -15.0911  -46.0542 H         1 UNK         0.0600 
    182 H182        6.0274  -15.1901  -44.6806 H         1 UNK         0.0600 
    183 H183        6.5996  -14.5593  -46.2140 H         1 UNK         0.0600 
    184 H184        4.5013  -12.9018  -47.0312 H         1 UNK         0.3000 
    185 H185        4.2903   -9.4451  -47.5224 H         1 UNK         0.0600 
    186 H186        6.5531   -9.8127  -48.5183 H         1 UNK         0.0600 
    187 H187        6.0322  -11.3643  -49.1641 H         1 UNK         0.0600 
    188 H188        5.3031   -9.8684  -49.7504 H         1 UNK         0.0600 
    189 H189        3.5925  -11.6804  -49.1606 H         1 UNK         0.3000 
    190 H190       -1.9269  -21.6909  -46.6657 H         1 UNK         0.3000 
    191 H191       -3.5299  -23.2404  -48.3675 H         1 UNK         0.0600 
    192 H192       -4.2387  -21.0515  -47.5170 H         1 UNK         0.0600 
    193 H193       -5.4264  -22.2476  -47.0227 H         1 UNK         0.0600 
    194 H194       -4.2594  -21.6476  -45.8583 H         1 UNK         0.0600 
    195 H195       -2.7375  -23.8004  -44.9153 H         1 UNK         0.3000 
    196 H196       -4.4518  -26.0392  -44.5315 H         1 UNK         0.0600 
    197 H197       -2.9785  -26.4808  -42.5598 H         1 UNK         0.0600 
    198 H198       -3.4314  -24.7856  -42.6578 H         1 UNK         0.0600 
    199 H199       -1.8185  -25.2960  -43.1499 H         1 UNK         0.0600 
    200 H200       -1.0901  -25.8127  -45.7369 H         1 UNK         0.3000 
    201 H201       -0.6835  -28.6749  -45.8802 H         1 UNK         0.0600 
    202 H202        1.1911  -27.1066  -45.5041 H         1 UNK         0.0600 
    203 H203        0.9020  -26.3331  -47.0596 H         1 UNK         0.0600 
    204 H204        1.4479  -28.0054  -46.9926 H         1 UNK         0.0600 
    205 H205       -1.3780  -26.1085  -48.2914 H         1 UNK         0.3000 
    206 H206       -1.3163  -28.0160  -50.5184 H         1 UNK         0.0600 
    207 H207       -0.1355  -25.8046  -50.5879 H         1 UNK         0.0600 
    208 H208       -1.3151  -25.9653  -51.8775 H         1 UNK         0.0600 
    209 H209       -1.6881  -24.9819  -50.4664 H         1 UNK         0.0600 
    210 H210       -3.7269  -27.4124  -48.4299 H         1 UNK         0.3000 
    211 H211       -5.9328  -27.6519  -48.3656 H         1 UNK         0.0600 
    212 H212       -5.6801  -28.9486  -51.1330 H         1 UNK         0.0600 
    213 H213       -7.0542  -29.0841  -50.0466 H         1 UNK         0.0600 
    214 H214       -5.5050  -29.7717  -49.5846 H         1 UNK         0.0600 
    215 H215       -5.6270  -25.2975  -48.4645 H         1 UNK         0.3000 
    216 H216       -6.6062  -23.3463  -48.6898 H         1 UNK         0.0600 
    217 H217       -8.4927  -22.8303  -50.1268 H         1 UNK         0.0600 
    218 H218       -8.7590  -24.4149  -49.4179 H         1 UNK         0.0600 
    219 H219       -8.2419  -24.2669  -51.0995 H         1 UNK         0.0600 
    220 H220       -4.7422  -24.7902  -51.0643 H         1 UNK         0.3000 
    221 H221       -3.0984  -24.1758  -52.3612 H         1 UNK         0.0600 
    222 H222       -3.3580  -21.3506  -51.2072 H         1 UNK         0.0600 
    223 H223       -2.3427  -22.6417  -50.5771 H         1 UNK         0.0600 
    224 H224       -2.0089  -21.9482  -52.1560 H         1 UNK         0.0600 
    225 H225       -5.6973  -21.7863  -52.5706 H         1 UNK         0.3000 
    226 H226       -6.8649  -20.8604  -54.1942 H         1 UNK         0.0600 
    227 H227       -7.2826  -23.2894  -54.7918 H         1 UNK         0.0600 
    228 H228       -7.4786  -22.2019  -56.1486 H         1 UNK         0.0600 
    229 H229       -6.0188  -23.1786  -56.0130 H         1 UNK         0.0600 
    230 H230       -6.4693  -20.7849  -57.0490 H         1 UNK         0.3000 
    231 H231       -5.7055  -19.4119  -58.6024 H         1 UNK         0.0600 
    232 H232       -2.9459  -19.8879  -57.3378 H         1 UNK         0.0600 
    233 H233       -3.2380  -19.1653  -58.9176 H         1 UNK         0.0600 
    234 H234       -3.6961  -20.8309  -58.6159 H         1 UNK         0.0600 
    235 H235       -3.1235  -17.9217  -56.8618 H         1 UNK         0.3000 
    236 H236       -4.4603  -15.3424  -56.7738 H         1 UNK         0.0600 
    237 H237       -2.0447  -15.5468  -57.3243 H         1 UNK         0.0600 
    238 H238       -2.2633  -14.5857  -55.8705 H         1 UNK         0.0600 
    239 H239       -1.7212  -16.2543  -55.7404 H         1 UNK         0.0600 
    240 H240       -4.0585  -18.0115  -54.5157 H         1 UNK         0.3000 
    241 H241       -4.4382  -16.3919  -52.1131 H         1 UNK         0.0600 
    242 H242       -6.4131  -16.0982  -50.9809 H         1 UNK         0.3800 
    243 H243       -7.9144  -16.7919  -51.5212 H         1 UNK         0.3800 
    244 H244       -4.3827  -18.5626  -50.9125 H         1 UNK         0.0800 
    245 H245       -4.3820  -19.4305  -52.4194 H         1 UNK         0.0800 
    246 H246       -2.2929  -16.8591  -50.1892 H         1 UNK         0.0800 
    247 H247       -2.2684  -18.5140  -49.6161 H         1 UNK         0.0800 
@<TRIPOS>BOND
     1    1    2 1    
     2    1  127 1    
     3    1  128 1    
     4    1  129 1    
     5    2    3 2    
     6    2    4 am   BACKBONE|DICT|INTERRES
     7    4    5 1    
     8    4  130 1    
     9    5    6 1    
    10    5   65 1    
    11    5  131 1    
    12    6    7 1    
    13    6  132 1    
    14    6  133 1    
    15    7    8 1    
    16    8    9 1    
    17    8  134 1    
    18    8  135 1    
    19    9   10 ar   
    20    9   14 ar   
    21   10   11 ar   
    22   10  136 1    
    23   11   12 ar   
    24   11  126 1    
    25   12   13 ar   
    26   12  137 1    
    27   13   14 ar   
    28   13   15 1    
    29   14  138 1    
    30   15   16 1    
    31   15  139 1    
    32   15  140 1    
    33   16   17 1    
    34   17   18 1    
    35   17  141 1    
    36   17  142 1    
    37   18   19 1    
    38   18   67 1    
    39   18  143 1    
    40   19   20 am   BACKBONE|DICT|INTERRES
    41   19  144 1    
    42   20   21 2    
    43   20   22 1    
    44   22   23 1    
    45   22   24 1    
    46   22  145 1    
    47   23  146 1    
    48   23  147 1    
    49   23  148 1    
    50   24   25 am   BACKBONE|DICT|INTERRES
    51   24  149 1    
    52   25   26 2    
    53   25   27 1    
    54   27   28 1    
    55   27   29 1    
    56   27  150 1    
    57   28  151 1    
    58   28  152 1    
    59   28  153 1    
    60   29   30 am   BACKBONE|DICT|INTERRES
    61   29  154 1    
    62   30   31 2    
    63   30   32 1    
    64   32   33 1    
    65   32   34 1    
    66   32  155 1    
    67   33  156 1    
    68   33  157 1    
    69   33  158 1    
    70   34   35 am   BACKBONE|DICT|INTERRES
    71   34  159 1    
    72   35   36 2    
    73   35   37 1    
    74   37   38 1    
    75   37   39 1    
    76   37  160 1    
    77   38  161 1    
    78   38  162 1    
    79   38  163 1    
    80   39   40 am   BACKBONE|DICT|INTERRES
    81   39  164 1    
    82   40   41 2    
    83   40   42 1    
    84   42   43 1    
    85   42   44 1    
    86   42  165 1    
    87   43  166 1    
    88   43  167 1    
    89   43  168 1    
    90   44   45 am   BACKBONE|DICT|INTERRES
    91   44  169 1    
    92   45   46 2    
    93   45   47 1    
    94   47   48 1    
    95   47   49 1    
    96   47  170 1    
    97   48  171 1    
    98   48  172 1    
    99   48  173 1    
   100   49   50 am   BACKBONE|DICT|INTERRES
   101   49  174 1    
   102   50   51 2    
   103   50   52 1    
   104   52   53 1    
   105   52   54 1    
   106   52  175 1    
   107   53  176 1    
   108   53  177 1    
   109   53  178 1    
   110   54   55 am   BACKBONE|DICT|INTERRES
   111   54  179 1    
   112   55   56 2    
   113   55   57 1    
   114   57   58 1    
   115   57   59 1    
   116   57  180 1    
   117   58  181 1    
   118   58  182 1    
   119   58  183 1    
   120   59   60 am   BACKBONE|DICT|INTERRES
   121   59  184 1    
   122   60   61 2    
   123   60   62 1    
   124   62   63 1    
   125   62   64 1    
   126   62  185 1    
   127   63  186 1    
   128   63  187 1    
   129   63  188 1    
   130   64   65 am   BACKBONE|DICT|INTERRES
   131   64  189 1    
   132   65   66 2    
   133   67   68 2    
   134   67   69 am   BACKBONE|DICT|INTERRES
   135   69   70 1    
   136   69  190 1    
   137   70   71 1    
   138   70   72 1    
   139   70  191 1    
   140   71  192 1    
   141   71  193 1    
   142   71  194 1    
   143   72   73 2    
   144   72   74 am   BACKBONE|DICT|INTERRES
   145   74   75 1    
   146   74  195 1    
   147   75   76 1    
   148   75   77 1    
   149   75  196 1    
   150   76  197 1    
   151   76  198 1    
   152   76  199 1    
   153   77   78 2    
   154   77   79 am   BACKBONE|DICT|INTERRES
   155   79   80 1    
   156   79  200 1    
   157   80   81 1    
   158   80   82 1    
   159   80  201 1    
   160   81  202 1    
   161   81  203 1    
   162   81  204 1    
   163   82   83 2    
   164   82   84 am   BACKBONE|DICT|INTERRES
   165   84   85 1    
   166   84  205 1    
   167   85   86 1    
   168   85   87 1    
   169   85  206 1    
   170   86  207 1    
   171   86  208 1    
   172   86  209 1    
   173   87   88 2    
   174   87   89 am   BACKBONE|DICT|INTERRES
   175   89   90 1    
   176   89  210 1    
   177   90   91 1    
   178   90   92 1    
   179   90  211 1    
   180   91  212 1    
   181   91  213 1    
   182   91  214 1    
   183   92   93 2    
   184   92   94 am   BACKBONE|DICT|INTERRES
   185   94   95 1    
   186   94  215 1    
   187   95   96 1    
   188   95   97 1    
   189   95  216 1    
   190   96  217 1    
   191   96  218 1    
   192   96  219 1    
   193   97   98 2    
   194   97   99 am   BACKBONE|DICT|INTERRES
   195   99  100 1    
   196   99  220 1    
   197  100  101 1    
   198  100  102 1    
   199  100  221 1    
   200  101  222 1    
   201  101  223 1    
   202  101  224 1    
   203  102  103 2    
   204  102  104 am   BACKBONE|DICT|INTERRES
   205  104  105 1    
   206  104  225 1    
   207  105  106 1    
   208  105  107 1    
   209  105  226 1    
   210  106  227 1    
   211  106  228 1    
   212  106  229 1    
   213  107  108 2    
   214  107  109 am   BACKBONE|DICT|INTERRES
   215  109  110 1    
   216  109  230 1    
   217  110  111 1    
   218  110  112 1    
   219  110  231 1    
   220  111  232 1    
   221  111  233 1    
   222  111  234 1    
   223  112  113 2    
   224  112  114 am   BACKBONE|DICT|INTERRES
   225  114  115 1    
   226  114  235 1    
   227  115  116 1    
   228  115  117 1    
   229  115  236 1    
   230  116  237 1    
   231  116  238 1    
   232  116  239 1    
   233  117  118 2    
   234  117  119 am   BACKBONE|DICT|INTERRES
   235  119  120 1    
   236  119  240 1    
   237  120  121 1    
   238  120  124 1    
   239  120  241 1    
   240  121  122 am   BACKBONE|DICT|INTERRES
   241  121  123 2    
   242  122  242 1    
   243  122  243 1    
   244  124  125 1    
   245  124  244 1    
   246  124  245 1    
   247  125  126 1    
   248  126  246 1    
   249  126  247 1    
@<TRIPOS>SUBSTRUCTURE
     1 UNK         1 GROUP             0       ****    0 ROOT    
