@<TRIPOS>MOLECULE
3R540
247   249    1
SMALL
USER_CHARGES


@<TRIPOS>ATOM
      1 CA         -0.7624  -21.2457  -42.8078 C.3       0 UNK        -0.1800 
      2 C          -1.3157  -19.9481  -43.3732 C.2       0 UNK         0.5000 
      3 O          -2.0200  -19.2221  -42.6722 O.2       0 UNK        -0.5000 
      4 N          -0.9697  -19.6310  -44.6271 N.am      1 UNK        -0.5000 
      5 CA         -1.4025  -18.4309  -45.3590 C.3       1 UNK         0.1400 
      6 C6         -1.0351  -18.5249  -46.8594 C.3       23 UNK        -0.0398 
      7 S7         -2.1301  -19.7095  -47.7082 S.3       23 UNK        -0.2404 
      8 C8         -2.1116  -19.1022  -49.4318 C.3       23 UNK        -0.0205 
      9 C9         -0.8556  -19.4937  -50.2054 C.ar      23 UNK        -0.0193 
     10 C10        -0.2705  -18.5869  -51.0937 C.ar      23 UNK        -0.1150 
     11 C11         0.8921  -18.9203  -51.7960 C.ar      23 UNK        -0.0193 
     12 C12         1.4849  -20.1687  -51.5856 C.ar      23 UNK        -0.1150 
     13 C13         0.9011  -21.0946  -50.7178 C.ar      23 UNK        -0.0193 
     14 C14        -0.2808  -20.7594  -50.0541 C.ar      23 UNK        -0.1150 
     15 C15         1.5519  -22.4510  -50.4913 C.3       23 UNK        -0.0205 
     16 S16         2.5895  -22.4530  -48.9914 S.3       23 UNK        -0.2404 
     17 C17         1.3369  -22.6003  -47.6699 C.3       23 UNK        -0.0398 
     18 CA          1.7802  -23.5586  -46.5365 C.3       11 UNK         0.1400 
     19 N           2.9610  -23.0508  -45.8330 N.am      11 UNK        -0.5000 
     20 C           3.8567  -23.7957  -45.1722 C.2       10 UNK         0.5000 
     21 O           3.8271  -25.0267  -45.1431 O.2       10 UNK        -0.5000 
     22 CA          4.9256  -23.0421  -44.3591 C.3       10 UNK         0.1400 
     23 CB          6.1952  -22.8408  -45.2000 C.3       10 UNK        -0.1800 
     24 N           4.4733  -21.7404  -43.8615 N.am      10 UNK        -0.5000 
     25 C           3.4558  -21.5309  -43.0111 C.2       9 UNK         0.5000 
     26 O           2.7755  -22.4316  -42.5212 O.2       9 UNK        -0.5000 
     27 CA          3.1454  -20.0658  -42.6439 C.3       9 UNK         0.1400 
     28 CB          3.6707  -19.7559  -41.2332 C.3       9 UNK        -0.1800 
     29 N           3.7240  -19.1042  -43.5870 N.am      9 UNK        -0.5000 
     30 C           3.2645  -18.8671  -44.8225 C.2       8 UNK         0.5000 
     31 O           2.2535  -19.3962  -45.2921 O.2       8 UNK        -0.5000 
     32 CA          4.1348  -17.9297  -45.6783 C.3       8 UNK         0.1400 
     33 CB          5.3369  -18.7043  -46.2438 C.3       8 UNK        -0.1800 
     34 N           3.3989  -17.3480  -46.7968 N.am      8 UNK        -0.5000 
     35 C           2.5783  -16.2941  -46.7232 C.2       7 UNK         0.5000 
     36 O           2.3532  -15.6737  -45.6834 O.2       7 UNK        -0.5000 
     37 CA          1.9122  -15.8369  -48.0326 C.3       7 UNK         0.1400 
     38 CB          1.7964  -16.9655  -49.0796 C.3       7 UNK        -0.1800 
     39 N           0.6099  -15.2458  -47.7252 N.am      7 UNK        -0.5000 
     40 C          -0.1689  -14.5592  -48.5725 C.2       6 UNK         0.5000 
     41 O           0.1087  -14.3615  -49.7554 O.2       6 UNK        -0.5000 
     42 CA         -1.4738  -13.9715  -48.0074 C.3       6 UNK         0.1400 
     43 CB         -2.6597  -14.9253  -48.2322 C.3       6 UNK        -0.1800 
     44 N          -1.3773  -13.6616  -46.5831 N.am      6 UNK        -0.5000 
     45 C          -0.8958  -12.5171  -46.0793 C.2       5 UNK         0.5000 
     46 O          -0.4278  -11.6135  -46.7743 O.2       5 UNK        -0.5000 
     47 CA         -0.9632  -12.3578  -44.5428 C.3       5 UNK         0.1400 
     48 CB         -0.9664  -10.8841  -44.0873 C.3       5 UNK        -0.1800 
     49 N          -2.0809  -13.0945  -43.9402 N.am      5 UNK        -0.5000 
     50 C          -3.3937  -12.9415  -44.1796 C.2       4 UNK         0.5000 
     51 O          -3.8641  -12.0372  -44.8704 O.2       4 UNK        -0.5000 
     52 CA         -4.3428  -14.0048  -43.5901 C.3       4 UNK         0.1400 
     53 CB         -5.0516  -14.7645  -44.7220 C.3       4 UNK        -0.1800 
     54 N          -3.6311  -14.9842  -42.7678 N.am      4 UNK        -0.5000 
     55 C          -3.5561  -14.9642  -41.4308 C.2       3 UNK         0.5000 
     56 O          -4.1524  -14.1546  -40.7202 O.2       3 UNK        -0.5000 
     57 CA         -2.6283  -16.0106  -40.7802 C.3       3 UNK         0.1400 
     58 CB         -3.4233  -17.2659  -40.3924 C.3       3 UNK        -0.1800 
     59 N          -1.5014  -16.3928  -41.6393 N.am      3 UNK        -0.5000 
     60 C          -0.5164  -15.5560  -42.0039 C.2       2 UNK         0.5000 
     61 O          -0.4484  -14.3877  -41.6240 O.2       2 UNK        -0.5000 
     62 CA          0.5450  -16.0712  -42.9935 C.3       2 UNK         0.1400 
     63 CB          1.8100  -16.4918  -42.2354 C.3       2 UNK        -0.1800 
     64 N           0.0867  -17.1774  -43.8365 N.am      2 UNK        -0.5000 
     65 C          -0.9126  -17.1083  -44.7269 C.2       1 UNK         0.5000 
     66 O          -1.4881  -16.0562  -45.0118 O.2       1 UNK        -0.5000 
     67 C           0.6456  -23.8425  -45.5233 C.2       11 UNK         0.5000 
     68 O          -0.4494  -23.2944  -45.6447 O.2       11 UNK        -0.5000 
     69 N           0.9370  -24.6791  -44.5182 N.am      12 UNK        -0.5000 
     70 CA          0.0677  -24.9824  -43.3784 C.3       12 UNK         0.1400 
     71 CB          0.8728  -25.7772  -42.3397 C.3       12 UNK        -0.1800 
     72 C          -1.2227  -25.7341  -43.7543 C.2       12 UNK         0.5000 
     73 O          -2.2302  -25.5961  -43.0603 O.2       12 UNK        -0.5000 
     74 N          -1.1670  -26.5129  -44.8417 N.am      13 UNK        -0.5000 
     75 CA         -2.2947  -27.2737  -45.3806 C.3       13 UNK         0.1400 
     76 CB         -1.7409  -28.4841  -46.1498 C.3       13 UNK        -0.1800 
     77 C          -3.2163  -26.4352  -46.2897 C.2       13 UNK         0.5000 
     78 O          -4.3098  -26.8978  -46.6193 O.2       13 UNK        -0.5000 
     79 N          -2.7634  -25.2454  -46.7064 N.am      14 UNK        -0.5000 
     80 CA         -3.4980  -24.3480  -47.5943 C.3       14 UNK         0.1400 
     81 CB         -2.4873  -23.5175  -48.4021 C.3       14 UNK        -0.1800 
     82 C          -4.4501  -23.4239  -46.8153 C.2       14 UNK         0.5000 
     83 O          -4.3504  -23.2941  -45.5926 O.2       14 UNK        -0.5000 
     84 N          -5.3332  -22.7671  -47.5692 N.am      15 UNK        -0.5000 
     85 CA         -6.1444  -21.6331  -47.1445 C.3       15 UNK         0.1400 
     86 CB         -7.6303  -22.0016  -47.2785 C.3       15 UNK        -0.1800 
     87 C          -5.7944  -20.4567  -48.0661 C.2       15 UNK         0.5000 
     88 O          -5.2904  -20.6816  -49.1696 O.2       15 UNK        -0.5000 
     89 N          -6.0920  -19.2282  -47.6223 N.am      16 UNK        -0.5000 
     90 CA         -5.7345  -17.9687  -48.2911 C.3       16 UNK         0.1400 
     91 CB         -6.2736  -16.7961  -47.4619 C.3       16 UNK        -0.1800 
     92 C          -6.1978  -17.8471  -49.7572 C.2       16 UNK         0.5000 
     93 O          -5.5339  -17.1779  -50.5477 O.2       16 UNK        -0.5000 
     94 N          -7.2909  -18.5393  -50.1076 N.am      17 UNK        -0.5000 
     95 CA         -7.8169  -18.6695  -51.4683 C.3       17 UNK         0.1400 
     96 CB         -9.1442  -19.4407  -51.4132 C.3       17 UNK        -0.1800 
     97 C          -6.8453  -19.3434  -52.4613 C.2       17 UNK         0.5000 
     98 O          -6.9598  -19.1069  -53.6649 O.2       17 UNK        -0.5000 
     99 N          -5.8885  -20.1398  -51.9570 N.am      18 UNK        -0.5000 
    100 CA        -4.8423  -20.7855  -52.7529 C.3       18 UNK         0.1400 
    101 CB        -4.1325  -21.8588  -51.9131 C.3       18 UNK        -0.1800 
    102 C         -3.8183  -19.7972  -53.3423 C.2       18 UNK         0.5000 
    103 O         -3.1156  -20.1675  -54.2822 O.2       18 UNK        -0.5000 
    104 N         -3.7741  -18.5530  -52.8372 N.am      19 UNK        -0.5000 
    105 CA        -2.9033  -17.4712  -53.3143 C.3       19 UNK         0.1400 
    106 CB        -3.0327  -16.2653  -52.3718 C.3       19 UNK        -0.1800 
    107 C         -3.1465  -17.0423  -54.7765 C.2       19 UNK         0.5000 
    108 O         -2.3067  -16.3506  -55.3524 O.2       19 UNK        -0.5000 
    109 N         -4.2704  -17.4747  -55.3637 N.am      20 UNK        -0.5000 
    110 CA        -4.5725  -17.3475  -56.7879 C.3       20 UNK         0.1400 
    111 CB        -6.0525  -17.6975  -57.0064 C.3       20 UNK        -0.1800 
    112 C         -3.6732  -18.2226  -57.6894 C.2       20 UNK         0.5000 
    113 O         -3.5680  -17.9287  -58.8812 O.2       20 UNK        -0.5000 
    114 N         -3.0574  -19.2736  -57.1266 N.am      21 UNK        -0.5000 
    115 CA        -2.1970  -20.2180  -57.8423 C.3       21 UNK         0.1400 
    116 CB        -2.9412  -21.5541  -57.9992 C.3       21 UNK        -0.1800 
    117 C         -0.8444  -20.4341  -57.1420 C.2       21 UNK         0.5000 
    118 O          0.1662  -20.5780  -57.8309 O.2       21 UNK        -0.5000 
    119 N         -0.8438  -20.4691  -55.8021 N.am      22 UNK        -0.5000 
    120 CA         0.3143  -20.7378  -54.9281 C.3       22 UNK         0.1400 
    121 C          0.8932  -22.1835  -55.0344 C.2       22 UNK         0.5000 
    122 N          0.1618  -23.1503  -55.5758 N.am      22 UNK        -0.7600 
    123 O          2.0075  -22.4493  -54.5918 O.2       22 UNK        -0.5000 
    124 C124        1.4129  -19.6387  -55.0068 C.3       23 UNK        -0.0398 
    125 S125        0.8095  -18.0158  -54.4303 S.3       23 UNK        -0.2404 
    126 C126        1.5240  -17.9204  -52.7559 C.3       23 UNK        -0.0205 
    127 H127       -1.5497  -21.9983  -42.7680 H         1 UNK         0.0600 
    128 H128       -0.3825  -21.0895  -41.7982 H         1 UNK         0.0600 
    129 H129        0.0543  -21.6307  -43.4184 H         1 UNK         0.0600 
    130 H130       -0.3801  -20.2647  -45.1488 H         1 UNK         0.3000 
    131 H131       -2.4914  -18.3888  -45.2816 H         1 UNK         0.0600 
    132 H132       -1.1266  -17.5591  -47.3549 H         1 UNK         0.0800 
    133 H133        0.0021  -18.8387  -46.9861 H         1 UNK         0.0800 
    134 H134       -2.9771  -19.5090  -49.9527 H         1 UNK         0.0800 
    135 H135       -2.2427  -18.0196  -49.4293 H         1 UNK         0.0800 
    136 H136       -0.7066  -17.6081  -51.2269 H         1 UNK         0.1150 
    137 H137        2.3993  -20.4249  -52.1013 H         1 UNK         0.1150 
    138 H138       -0.7414  -21.4768  -49.3940 H         1 UNK         0.1150 
    139 H139        0.7925  -23.2318  -50.4297 H         1 UNK         0.0800 
    140 H140        2.1768  -22.7082  -51.3482 H         1 UNK         0.0800 
    141 H141        0.4154  -22.9722  -48.1157 H         1 UNK         0.0800 
    142 H142        1.1142  -21.6047  -47.2808 H         1 UNK         0.0800 
    143 H143        2.0298  -24.5167  -46.9975 H         1 UNK         0.0600 
    144 H144        3.0411  -22.0458  -45.7753 H         1 UNK         0.3000 
    145 H145        5.1774  -23.6598  -43.4947 H         1 UNK         0.0600 
    146 H146        6.9905  -22.3823  -44.6120 H         1 UNK         0.0600 
    147 H147        6.5748  -23.7947  -45.5688 H         1 UNK         0.0600 
    148 H148        6.0077  -22.2052  -46.0665 H         1 UNK         0.0600 
    149 H149        4.9828  -20.9355  -44.1915 H         1 UNK         0.3000 
    150 H150        2.0603  -19.9449  -42.6437 H         1 UNK         0.0600 
    151 H151        4.7503  -19.8970  -41.1666 H         1 UNK         0.0600 
    152 H152        3.2089  -20.4106  -40.4929 H         1 UNK         0.0600 
    153 H153        3.4515  -18.7304  -40.9383 H         1 UNK         0.0600 
    154 H154        4.5610  -18.6305  -43.2778 H         1 UNK         0.3000 
    155 H155        4.5047  -17.1215  -45.0435 H         1 UNK         0.0600 
    156 H156        5.0201  -19.5407  -46.8689 H         1 UNK         0.0600 
    157 H157        5.9609  -19.1082  -45.4458 H         1 UNK         0.0600 
    158 H158        5.9723  -18.0573  -46.8491 H         1 UNK         0.0600 
    159 H159        3.4856  -17.8273  -47.6805 H         1 UNK         0.3000 
    160 H160        2.5450  -15.0487  -48.4445 H         1 UNK         0.0600 
    161 H161        1.2083  -17.8044  -48.7100 H         1 UNK         0.0600 
    162 H162        2.7737  -17.3474  -49.3755 H         1 UNK         0.0600 
    163 H163        1.3284  -16.6062  -49.9928 H         1 UNK         0.0600 
    164 H164        0.3485  -15.2908  -46.7486 H         1 UNK         0.3000 
    165 H165       -1.6814  -13.0519  -48.5589 H         1 UNK         0.0600 
    166 H166       -2.7341  -15.2223  -49.2787 H         1 UNK         0.0600 
    167 H167       -2.5758  -15.8322  -47.6353 H         1 UNK         0.0600 
    168 H168       -3.6009  -14.4442  -47.9657 H         1 UNK         0.0600 
    169 H169       -1.6804  -14.3868  -45.9394 H         1 UNK         0.3000 
    170 H170       -0.0538  -12.8182  -44.1546 H         1 UNK         0.0600 
    171 H171       -0.0580  -10.3733  -44.4087 H         1 UNK         0.0600 
    172 H172       -1.8129  -10.3335  -44.4984 H         1 UNK         0.0600 
    173 H173       -1.0119  -10.8085  -43.0009 H         1 UNK         0.0600 
    174 H174       -1.8104  -13.8402  -43.3142 H         1 UNK         0.3000 
    175 H175       -5.0976  -13.4839  -42.9976 H         1 UNK         0.0600 
    176 H176       -5.7432  -15.5067  -44.3231 H         1 UNK         0.0600 
    177 H177       -5.6311  -14.0876  -45.3510 H         1 UNK         0.0600 
    178 H178       -4.3369  -15.2798  -45.3654 H         1 UNK         0.0600 
    179 H179       -3.0984  -15.6821  -43.2695 H         1 UNK         0.3000 
    180 H180       -2.2210  -15.5700  -39.8678 H         1 UNK         0.0600 
    181 H181       -3.8719  -17.7430  -41.2647 H         1 UNK         0.0600 
    182 H182       -4.2308  -17.0189  -39.7022 H         1 UNK         0.0600 
    183 H183       -2.7866  -18.0007  -39.8993 H         1 UNK         0.0600 
    184 H184       -1.5124  -17.3410  -42.0018 H         1 UNK         0.3000 
    185 H185        0.7989  -15.2334  -43.6448 H         1 UNK         0.0600 
    186 H186        2.6363  -16.6645  -42.9223 H         1 UNK         0.0600 
    187 H187        2.1332  -15.7131  -41.5431 H         1 UNK         0.0600 
    188 H188        1.6433  -17.3993  -41.6555 H         1 UNK         0.0600 
    189 H189        0.5145  -18.0783  -43.6824 H         1 UNK         0.3000 
    190 H190        1.8731  -25.0684  -44.4915 H         1 UNK         0.3000 
    191 H191       -0.2270  -24.0373  -42.9220 H         1 UNK         0.0600 
    192 H192        1.2272  -26.7257  -42.7449 H         1 UNK         0.0600 
    193 H193        0.2665  -25.9999  -41.4607 H         1 UNK         0.0600 
    194 H194        1.7407  -25.2114  -41.9995 H         1 UNK         0.0600 
    195 H195       -0.2941  -26.5723  -45.3450 H         1 UNK         0.3000 
    196 H196       -2.9027  -27.6475  -44.5539 H         1 UNK         0.0600 
    197 H197       -2.5492  -29.1045  -46.5391 H         1 UNK         0.0600 
    198 H198       -1.1313  -29.1166  -45.5042 H         1 UNK         0.0600 
    199 H199       -1.1266  -28.1762  -46.9969 H         1 UNK         0.0600 
    200 H200       -1.9095  -24.8771  -46.3084 H         1 UNK         0.3000 
    201 H201       -4.0895  -24.9405  -48.2958 H         1 UNK         0.0600 
    202 H202       -2.9870  -22.9202  -49.1652 H         1 UNK         0.0600 
    203 H203       -1.9424  -22.8257  -47.7604 H         1 UNK         0.0600 
    204 H204       -1.7629  -24.1530  -48.9115 H         1 UNK         0.0600 
    205 H205       -5.2751  -22.8660  -48.5740 H         1 UNK         0.3000 
    206 H206       -5.9226  -21.3521  -46.1129 H         1 UNK         0.0600 
    207 H207       -7.8774  -22.8629  -46.6576 H         1 UNK         0.0600 
    208 H208       -8.2701  -21.1778  -46.9599 H         1 UNK         0.0600 
    209 H209       -7.8949  -22.2455  -48.3084 H         1 UNK         0.0600 
    210 H210       -6.5324  -19.1366  -46.7184 H         1 UNK         0.3000 
    211 H211       -4.6449  -17.9064  -48.2940 H         1 UNK         0.0600 
    212 H212       -7.3639  -16.7904  -47.4336 H         1 UNK         0.0600 
    213 H213       -5.9482  -15.8404  -47.8754 H         1 UNK         0.0600 
    214 H214       -5.9128  -16.8476  -46.4359 H         1 UNK         0.0600 
    215 H215       -7.7599  -19.0725  -49.3908 H         1 UNK         0.3000 
    216 H216       -8.0180  -17.6640  -51.8433 H         1 UNK         0.0600 
    217 H217       -9.5837  -19.5351  -52.4072 H         1 UNK         0.0600 
    218 H218       -9.8733  -18.9286  -50.7849 H         1 UNK         0.0600 
    219 H219       -9.0069  -20.4481  -51.0177 H         1 UNK         0.0600 
    220 H220       -5.8305  -20.2746  -50.9506 H         1 UNK         0.3000 
    221 H221       -5.3262  -21.2861  -53.5940 H         1 UNK         0.0600 
    222 H222       -3.5723  -21.4226  -51.0872 H         1 UNK         0.0600 
    223 H223       -4.8441  -22.5719  -51.4969 H         1 UNK         0.0600 
    224 H224       -3.4239  -22.4229  -52.5209 H         1 UNK         0.0600 
    225 H225       -4.4089  -18.3125  -52.0853 H         1 UNK         0.3000 
    226 H226       -1.8794  -17.8400  -53.2656 H         1 UNK         0.0600 
    227 H227       -2.3121  -15.4879  -52.6291 H         1 UNK         0.0600 
    228 H228       -4.0279  -15.8224  -52.4240 H         1 UNK         0.0600 
    229 H229       -2.8486  -16.5480  -51.3363 H         1 UNK         0.0600 
    230 H230       -4.9208  -18.0166  -54.8110 H         1 UNK         0.3000 
    231 H231       -4.4185  -16.3065  -57.0791 H         1 UNK         0.0600 
    232 H232       -6.2693  -18.7257  -56.7132 H         1 UNK         0.0600 
    233 H233       -6.3308  -17.5884  -58.0554 H         1 UNK         0.0600 
    234 H234       -6.7030  -17.0409  -56.4282 H         1 UNK         0.0600 
    235 H235       -3.1816  -19.4375  -56.1337 H         1 UNK         0.3000 
    236 H236       -1.9700  -19.8405  -58.8415 H         1 UNK         0.0600 
    237 H237       -2.3237  -22.2891  -58.5173 H         1 UNK         0.0600 
    238 H238       -3.2179  -21.9763  -57.0323 H         1 UNK         0.0600 
    239 H239       -3.8537  -21.4282  -58.5821 H         1 UNK         0.0600 
    240 H240       -1.7249  -20.3649  -55.3024 H         1 UNK         0.3000 
    241 H241       -0.0959  -20.7057  -53.9186 H         1 UNK         0.0600 
    242 H242       -0.7613  -22.9586  -55.9291 H         1 UNK         0.3800 
    243 H243        0.5380  -24.0836  -55.6319 H         1 UNK         0.3800 
    244 H244        1.7783  -19.5309  -56.0281 H         1 UNK         0.0800 
    245 H245        2.2878  -19.9075  -54.4148 H         1 UNK         0.0800 
    246 H246        2.6037  -18.0690  -52.8068 H         1 UNK         0.0800 
    247 H247        1.3780  -16.9077  -52.3782 H         1 UNK         0.0800 
@<TRIPOS>BOND
     1    1    2 1    
     2    1  127 1    
     3    1  128 1    
     4    1  129 1    
     5    2    3 2    
     6    2    4 am   BACKBONE|DICT|INTERRES
     7    4    5 1    
     8    4  130 1    
     9    5    6 1    
    10    5   65 1    
    11    5  131 1    
    12    6    7 1    
    13    6  132 1    
    14    6  133 1    
    15    7    8 1    
    16    8    9 1    
    17    8  134 1    
    18    8  135 1    
    19    9   10 ar   
    20    9   14 ar   
    21   10   11 ar   
    22   10  136 1    
    23   11   12 ar   
    24   11  126 1    
    25   12   13 ar   
    26   12  137 1    
    27   13   14 ar   
    28   13   15 1    
    29   14  138 1    
    30   15   16 1    
    31   15  139 1    
    32   15  140 1    
    33   16   17 1    
    34   17   18 1    
    35   17  141 1    
    36   17  142 1    
    37   18   19 1    
    38   18   67 1    
    39   18  143 1    
    40   19   20 am   BACKBONE|DICT|INTERRES
    41   19  144 1    
    42   20   21 2    
    43   20   22 1    
    44   22   23 1    
    45   22   24 1    
    46   22  145 1    
    47   23  146 1    
    48   23  147 1    
    49   23  148 1    
    50   24   25 am   BACKBONE|DICT|INTERRES
    51   24  149 1    
    52   25   26 2    
    53   25   27 1    
    54   27   28 1    
    55   27   29 1    
    56   27  150 1    
    57   28  151 1    
    58   28  152 1    
    59   28  153 1    
    60   29   30 am   BACKBONE|DICT|INTERRES
    61   29  154 1    
    62   30   31 2    
    63   30   32 1    
    64   32   33 1    
    65   32   34 1    
    66   32  155 1    
    67   33  156 1    
    68   33  157 1    
    69   33  158 1    
    70   34   35 am   BACKBONE|DICT|INTERRES
    71   34  159 1    
    72   35   36 2    
    73   35   37 1    
    74   37   38 1    
    75   37   39 1    
    76   37  160 1    
    77   38  161 1    
    78   38  162 1    
    79   38  163 1    
    80   39   40 am   BACKBONE|DICT|INTERRES
    81   39  164 1    
    82   40   41 2    
    83   40   42 1    
    84   42   43 1    
    85   42   44 1    
    86   42  165 1    
    87   43  166 1    
    88   43  167 1    
    89   43  168 1    
    90   44   45 am   BACKBONE|DICT|INTERRES
    91   44  169 1    
    92   45   46 2    
    93   45   47 1    
    94   47   48 1    
    95   47   49 1    
    96   47  170 1    
    97   48  171 1    
    98   48  172 1    
    99   48  173 1    
   100   49   50 am   BACKBONE|DICT|INTERRES
   101   49  174 1    
   102   50   51 2    
   103   50   52 1    
   104   52   53 1    
   105   52   54 1    
   106   52  175 1    
   107   53  176 1    
   108   53  177 1    
   109   53  178 1    
   110   54   55 am   BACKBONE|DICT|INTERRES
   111   54  179 1    
   112   55   56 2    
   113   55   57 1    
   114   57   58 1    
   115   57   59 1    
   116   57  180 1    
   117   58  181 1    
   118   58  182 1    
   119   58  183 1    
   120   59   60 am   BACKBONE|DICT|INTERRES
   121   59  184 1    
   122   60   61 2    
   123   60   62 1    
   124   62   63 1    
   125   62   64 1    
   126   62  185 1    
   127   63  186 1    
   128   63  187 1    
   129   63  188 1    
   130   64   65 am   BACKBONE|DICT|INTERRES
   131   64  189 1    
   132   65   66 2    
   133   67   68 2    
   134   67   69 am   BACKBONE|DICT|INTERRES
   135   69   70 1    
   136   69  190 1    
   137   70   71 1    
   138   70   72 1    
   139   70  191 1    
   140   71  192 1    
   141   71  193 1    
   142   71  194 1    
   143   72   73 2    
   144   72   74 am   BACKBONE|DICT|INTERRES
   145   74   75 1    
   146   74  195 1    
   147   75   76 1    
   148   75   77 1    
   149   75  196 1    
   150   76  197 1    
   151   76  198 1    
   152   76  199 1    
   153   77   78 2    
   154   77   79 am   BACKBONE|DICT|INTERRES
   155   79   80 1    
   156   79  200 1    
   157   80   81 1    
   158   80   82 1    
   159   80  201 1    
   160   81  202 1    
   161   81  203 1    
   162   81  204 1    
   163   82   83 2    
   164   82   84 am   BACKBONE|DICT|INTERRES
   165   84   85 1    
   166   84  205 1    
   167   85   86 1    
   168   85   87 1    
   169   85  206 1    
   170   86  207 1    
   171   86  208 1    
   172   86  209 1    
   173   87   88 2    
   174   87   89 am   BACKBONE|DICT|INTERRES
   175   89   90 1    
   176   89  210 1    
   177   90   91 1    
   178   90   92 1    
   179   90  211 1    
   180   91  212 1    
   181   91  213 1    
   182   91  214 1    
   183   92   93 2    
   184   92   94 am   BACKBONE|DICT|INTERRES
   185   94   95 1    
   186   94  215 1    
   187   95   96 1    
   188   95   97 1    
   189   95  216 1    
   190   96  217 1    
   191   96  218 1    
   192   96  219 1    
   193   97   98 2    
   194   97   99 am   BACKBONE|DICT|INTERRES
   195   99  100 1    
   196   99  220 1    
   197  100  101 1    
   198  100  102 1    
   199  100  221 1    
   200  101  222 1    
   201  101  223 1    
   202  101  224 1    
   203  102  103 2    
   204  102  104 am   BACKBONE|DICT|INTERRES
   205  104  105 1    
   206  104  225 1    
   207  105  106 1    
   208  105  107 1    
   209  105  226 1    
   210  106  227 1    
   211  106  228 1    
   212  106  229 1    
   213  107  108 2    
   214  107  109 am   BACKBONE|DICT|INTERRES
   215  109  110 1    
   216  109  230 1    
   217  110  111 1    
   218  110  112 1    
   219  110  231 1    
   220  111  232 1    
   221  111  233 1    
   222  111  234 1    
   223  112  113 2    
   224  112  114 am   BACKBONE|DICT|INTERRES
   225  114  115 1    
   226  114  235 1    
   227  115  116 1    
   228  115  117 1    
   229  115  236 1    
   230  116  237 1    
   231  116  238 1    
   232  116  239 1    
   233  117  118 2    
   234  117  119 am   BACKBONE|DICT|INTERRES
   235  119  120 1    
   236  119  240 1    
   237  120  121 1    
   238  120  124 1    
   239  120  241 1    
   240  121  122 am   BACKBONE|DICT|INTERRES
   241  121  123 2    
   242  122  242 1    
   243  122  243 1    
   244  124  125 1    
   245  124  244 1    
   246  124  245 1    
   247  125  126 1    
   248  126  246 1    
   249  126  247 1    
@<TRIPOS>SUBSTRUCTURE
     1 UNK         1 GROUP             0       ****    0 ROOT    
