@<TRIPOS>MOLECULE
3R540
247   249    1
SMALL
USER_CHARGES


@<TRIPOS>ATOM
      1 CA          1.2339   -9.7945  -49.9193 C.3       0 UNK        -0.1800 
      2 C           2.0225  -11.0696  -50.1831 C.2       0 UNK         0.5000 
      3 O           3.2401  -11.0117  -50.3592 O.2       0 UNK        -0.5000 
      4 N           1.3325  -12.2156  -50.2201 N.am      1 UNK        -0.5000 
      5 CA          1.9183  -13.5486  -50.3936 C.3       1 UNK         0.1400 
      6 C6          0.8315  -14.6218  -50.6384 C.3       23 UNK        -0.0398 
      7 S7         -0.0776  -14.3539  -52.1934 S.3       23 UNK        -0.2404 
      8 C8         -0.8090  -15.9994  -52.4523 C.3       23 UNK        -0.0205 
      9 C9         -1.9911  -16.2493  -51.5286 C.ar      23 UNK        -0.0193 
     10 C10        -3.2810  -15.9097  -51.9431 C.ar      23 UNK        -0.1150 
     11 C11        -4.3834  -16.1573  -51.1212 C.ar      23 UNK        -0.0193 
     12 C12        -4.1827  -16.7334  -49.8626 C.ar      23 UNK        -0.1150 
     13 C13        -2.8944  -17.0563  -49.4253 C.ar      23 UNK        -0.0193 
     14 C14        -1.8037  -16.8203  -50.2669 C.ar      23 UNK        -0.1150 
     15 C15        -2.6731  -17.6384  -48.0383 C.3       23 UNK        -0.0205 
     16 S16        -2.3185  -19.4124  -48.1193 S.3       23 UNK        -0.2404 
     17 C17        -2.0145  -19.7891  -46.3629 C.3       23 UNK        -0.0398 
     18 CA         -1.2620  -21.1288  -46.1945 C.3       11 UNK         0.1400 
     19 N          -0.4899  -21.1594  -44.9510 N.am      11 UNK        -0.5000 
     20 C           0.4692  -22.0545  -44.6809 C.2       10 UNK         0.5000 
     21 O           0.8371  -22.9183  -45.4739 O.2       10 UNK        -0.5000 
     22 CA          1.0685  -22.0203  -43.2663 C.3       10 UNK         0.1400 
     23 CB          2.1638  -20.9480  -43.1518 C.3       10 UNK        -0.1800 
     24 N           0.0306  -21.7990  -42.2580 N.am      10 UNK        -0.5000 
     25 C          -0.8944  -22.7123  -41.9273 C.2       9 UNK         0.5000 
     26 O          -0.9229  -23.8490  -42.3992 O.2       9 UNK        -0.5000 
     27 CA         -1.9911  -22.2760  -40.9357 C.3       9 UNK         0.1400 
     28 CB         -1.5284  -22.5083  -39.4900 C.3       9 UNK        -0.1800 
     29 N          -2.3864  -20.8755  -41.0943 N.am      9 UNK        -0.5000 
     30 C          -3.0104  -20.3673  -42.1676 C.2       8 UNK         0.5000 
     31 O          -3.3692  -21.0397  -43.1319 O.2       8 UNK        -0.5000 
     32 CA         -3.1925  -18.8362  -42.2004 C.3       8 UNK         0.1400 
     33 CB         -4.4953  -18.4286  -41.4975 C.3       8 UNK        -0.1800 
     34 N          -2.0619  -18.1245  -41.5947 N.am      8 UNK        -0.5000 
     35 C          -0.8035  -18.2100  -42.0451 C.2       7 UNK         0.5000 
     36 O          -0.4915  -18.8402  -43.0567 O.2       7 UNK        -0.5000 
     37 CA          0.2853  -17.6128  -41.1472 C.3       7 UNK         0.1400 
     38 CB          0.6397  -18.6456  -40.0522 C.3       7 UNK        -0.1800 
     39 N           1.4615  -17.2654  -41.9459 N.am      7 UNK        -0.5000 
     40 C           2.5676  -16.6752  -41.4709 C.2       6 UNK         0.5000 
     41 O           2.7142  -16.3370  -40.2953 O.2       6 UNK        -0.5000 
     42 CA          3.7002  -16.3891  -42.4721 C.3       6 UNK         0.1400 
     43 CB          4.1796  -17.6647  -43.1861 C.3       6 UNK        -0.1800 
     44 N           3.3133  -15.3741  -43.4486 N.am      6 UNK        -0.5000 
     45 C           3.1182  -14.0768  -43.1682 C.2       5 UNK         0.5000 
     46 O           3.3224  -13.5756  -42.0618 O.2       5 UNK        -0.5000 
     47 CA          2.5998  -13.1814  -44.3101 C.3       5 UNK         0.1400 
     48 CB          3.7689  -12.5770  -45.1023 C.3       5 UNK        -0.1800 
     49 N           1.7093  -13.8873  -45.2293 N.am      5 UNK        -0.5000 
     50 C           0.4980  -14.3643  -44.9107 C.2       4 UNK         0.5000 
     51 O          -0.0409  -14.2039  -43.8151 O.2       4 UNK        -0.5000 
     52 CA         -0.2166  -15.1853  -45.9981 C.3       4 UNK         0.1400 
     53 CB         -0.9440  -14.2575  -46.9860 C.3       4 UNK        -0.1800 
     54 N           0.7063  -16.0598  -46.7264 N.am      4 UNK        -0.5000 
     55 C           1.3333  -17.1154  -46.1859 C.2       3 UNK         0.5000 
     56 O           1.1900  -17.4724  -45.0191 O.2       3 UNK        -0.5000 
     57 CA          2.3245  -17.8693  -47.0898 C.3       3 UNK         0.1400 
     58 CB          1.5806  -18.8359  -48.0214 C.3       3 UNK        -0.1800 
     59 N           3.1521  -16.9626  -47.8858 N.am      3 UNK        -0.5000 
     60 C           4.0739  -16.1357  -47.3709 C.2       2 UNK         0.5000 
     61 O           4.3529  -16.0835  -46.1743 O.2       2 UNK        -0.5000 
     62 CA          4.7625  -15.1695  -48.3534 C.3       2 UNK         0.1400 
     63 CB          5.9809  -15.8395  -49.0058 C.3       2 UNK        -0.1800 
     64 N           3.8641  -14.6674  -49.3981 N.am      2 UNK        -0.5000 
     65 C           2.7608  -13.9434  -49.1650 C.2       1 UNK         0.5000 
     66 O           2.3682  -13.6445  -48.0350 O.2       1 UNK        -0.5000 
     67 C          -2.1879  -22.3600  -46.3459 C.2       11 UNK         0.5000 
     68 O          -2.3580  -22.8664  -47.4585 O.2       11 UNK        -0.5000 
     69 N          -2.7490  -22.8485  -45.2296 N.am      12 UNK        -0.5000 
     70 CA         -3.5101  -24.0974  -45.1536 C.3       12 UNK         0.1400 
     71 CB         -4.1641  -24.2481  -43.7732 C.3       12 UNK        -0.1800 
     72 C          -2.6523  -25.3227  -45.5072 C.2       12 UNK         0.5000 
     73 O          -3.0816  -26.1475  -46.3155 O.2       12 UNK        -0.5000 
     74 N          -1.4406  -25.3841  -44.9381 N.am      13 UNK        -0.5000 
     75 CA         -0.4372  -26.4065  -45.2332 C.3       13 UNK         0.1400 
     76 CB          0.7179  -26.2941  -44.2267 C.3       13 UNK        -0.1800 
     77 C           0.0873  -26.3404  -46.6812 C.2       13 UNK         0.5000 
     78 O           0.3473  -27.3900  -47.2706 O.2       13 UNK        -0.5000 
     79 N           0.2250  -25.1219  -47.2263 N.am      14 UNK        -0.5000 
     80 CA          0.6490  -24.8606  -48.6013 C.3       14 UNK         0.1400 
     81 CB          0.9217  -23.3599  -48.8034 C.3       14 UNK        -0.1800 
     82 C          -0.3611  -25.3883  -49.6341 C.2       14 UNK         0.5000 
     83 O          -0.0015  -26.2580  -50.4292 O.2       14 UNK        -0.5000 
     84 N          -1.5991  -24.8745  -49.5952 N.am      15 UNK        -0.5000 
     85 CA         -2.6825  -25.2760  -50.4933 C.3       15 UNK         0.1400 
     86 CB         -2.3931  -24.8737  -51.9588 C.3       15 UNK        -0.1800 
     87 C          -4.0265  -24.7204  -50.0001 C.2       15 UNK         0.5000 
     88 O          -4.6440  -23.9093  -50.6900 O.2       15 UNK        -0.5000 
     89 N          -4.4641  -25.1674  -48.8142 N.am      16 UNK        -0.5000 
     90 CA         -5.8210  -24.9945  -48.2725 C.3       16 UNK         0.1400 
     91 CB         -6.8133  -25.8764  -49.0592 C.3       16 UNK        -0.1800 
     92 C          -6.2920  -23.5254  -48.1646 C.2       16 UNK         0.5000 
     93 O          -7.4604  -23.2303  -48.4206 O.2       16 UNK        -0.5000 
     94 N          -5.3631  -22.6394  -47.7808 N.am      17 UNK        -0.5000 
     95 CA         -5.5330  -21.1952  -47.5984 C.3       17 UNK         0.1400 
     96 CB         -6.6372  -20.8602  -46.5736 C.3       17 UNK        -0.1800 
     97 C          -5.6567  -20.4231  -48.9271 C.2       17 UNK         0.5000 
     98 O          -6.2521  -19.3456  -48.9565 O.2       17 UNK        -0.5000 
     99 N          -5.0571  -20.9706  -49.9908 N.am      18 UNK        -0.5000 
    100 CA        -4.9516  -20.3633  -51.3097 C.3       18 UNK         0.1400 
    101 CB        -6.2149  -20.6917  -52.1279 C.3       18 UNK        -0.1800 
    102 C         -3.6537  -20.8570  -51.9692 C.2       18 UNK         0.5000 
    103 O         -3.7069  -21.5658  -52.9750 O.2       18 UNK        -0.5000 
    104 N         -2.5045  -20.4923  -51.3770 N.am      19 UNK        -0.5000 
    105 CA        -1.1540  -20.9633  -51.7288 C.3       19 UNK         0.1400 
    106 CB        -0.1131  -20.2434  -50.8589 C.3       19 UNK        -0.1800 
    107 C         -0.7612  -20.8492  -53.2169 C.2       19 UNK         0.5000 
    108 O         -0.0114  -21.6953  -53.7048 O.2       19 UNK        -0.5000 
    109 N         -1.2802  -19.8253  -53.9060 N.am      20 UNK        -0.5000 
    110 CA        -1.1086  -19.6075  -55.3459 C.3       20 UNK         0.1400 
    111 CB        -0.2494  -18.3502  -55.5694 C.3       20 UNK        -0.1800 
    112 C         -2.4744  -19.5193  -56.0563 C.2       20 UNK         0.5000 
    113 O         -2.6055  -18.7990  -57.0475 O.2       20 UNK        -0.5000 
    114 N         -3.4859  -20.2127  -55.5084 N.am      21 UNK        -0.5000 
    115 CA        -4.8879  -20.2731  -55.9509 C.3       21 UNK         0.1400 
    116 CB        -4.9918  -20.8980  -57.3576 C.3       21 UNK        -0.1800 
    117 C         -5.6498  -18.9308  -55.8547 C.2       21 UNK         0.5000 
    118 O         -6.7728  -18.8344  -56.3516 O.2       21 UNK        -0.5000 
    119 N         -5.0303  -17.9264  -55.2199 N.am      22 UNK        -0.5000 
    120 CA        -5.4978  -16.5356  -55.0957 C.3       22 UNK         0.1400 
    121 C         -5.6083  -15.7718  -56.4519 C.2       22 UNK         0.5000 
    122 N         -4.8949  -16.1842  -57.4942 N.am      22 UNK        -0.7600 
    123 O         -6.3202  -14.7768  -56.5595 O.2       22 UNK        -0.5000 
    124 C124       -6.7555  -16.3809  -54.1954 C.3       23 UNK        -0.0398 
    125 S125       -6.5578  -17.1271  -52.5377 S.3       23 UNK        -0.2404 
    126 C126       -5.7853  -15.7824  -51.5814 C.3       23 UNK        -0.0205 
    127 H127        0.1693   -9.9946  -49.7949 H         1 UNK         0.0600 
    128 H128        1.3544   -9.0994  -50.7502 H         1 UNK         0.0600 
    129 H129        1.5967   -9.3106  -49.0125 H         1 UNK         0.0600 
    130 H130        0.3348  -12.1962  -50.0683 H         1 UNK         0.3000 
    131 H131        2.5775  -13.5142  -51.2638 H         1 UNK         0.0600 
    132 H132        1.2814  -15.6154  -50.6800 H         1 UNK         0.0800 
    133 H133        0.1128  -14.6388  -49.8178 H         1 UNK         0.0800 
    134 H134       -1.1415  -16.0600  -53.4882 H         1 UNK         0.0800 
    135 H135       -0.0527  -16.7765  -52.3308 H         1 UNK         0.0800 
    136 H136       -3.4206  -15.4419  -52.9053 H         1 UNK         0.1150 
    137 H137       -5.0313  -16.9227  -49.2201 H         1 UNK         0.1150 
    138 H138       -0.8088  -17.0752  -49.9334 H         1 UNK         0.1150 
    139 H139       -1.8369  -17.1316  -47.5589 H         1 UNK         0.0800 
    140 H140       -3.5463  -17.4715  -47.4057 H         1 UNK         0.0800 
    141 H141       -1.4102  -18.9762  -45.9554 H         1 UNK         0.0800 
    142 H142       -2.9508  -19.7755  -45.8024 H         1 UNK         0.0800 
    143 H143       -0.5301  -21.2008  -46.9999 H         1 UNK         0.0600 
    144 H144       -0.6924  -20.4442  -44.2590 H         1 UNK         0.3000 
    145 H145        1.5296  -22.9915  -43.0739 H         1 UNK         0.0600 
    146 H146        2.5859  -20.9172  -42.1474 H         1 UNK         0.0600 
    147 H147        2.9822  -21.1575  -43.8415 H         1 UNK         0.0600 
    148 H148        1.7910  -19.9528  -43.3901 H         1 UNK         0.0600 
    149 H149       -0.0476  -20.8647  -41.8860 H         1 UNK         0.3000 
    150 H150       -2.8708  -22.8967  -41.1159 H         1 UNK         0.0600 
    151 H151       -1.2469  -23.5505  -39.3332 H         1 UNK         0.0600 
    152 H152       -2.3225  -22.2775  -38.7797 H         1 UNK         0.0600 
    153 H153       -0.6632  -21.8932  -39.2390 H         1 UNK         0.0600 
    154 H154       -2.1373  -20.2477  -40.3451 H         1 UNK         0.3000 
    155 H155       -3.2582  -18.5337  -43.2478 H         1 UNK         0.0600 
    156 H156       -4.6700  -17.3559  -41.5826 H         1 UNK         0.0600 
    157 H157       -4.4798  -18.6841  -40.4373 H         1 UNK         0.0600 
    158 H158       -5.3532  -18.9328  -41.9445 H         1 UNK         0.0600 
    159 H159       -2.2527  -17.6048  -40.7499 H         1 UNK         0.3000 
    160 H160       -0.1029  -16.7021  -40.6871 H         1 UNK         0.0600 
    161 H161        1.1420  -19.5180  -40.4712 H         1 UNK         0.0600 
    162 H162       -0.2517  -18.9984  -39.5322 H         1 UNK         0.0600 
    163 H163        1.2916  -18.2237  -39.2886 H         1 UNK         0.0600 
    164 H164        1.3820  -17.4805  -42.9380 H         1 UNK         0.3000 
    165 H165        4.5479  -15.9996  -41.9043 H         1 UNK         0.0600 
    166 H166        3.4191  -18.0807  -43.8446 H         1 UNK         0.0600 
    167 H167        5.0646  -17.4646  -43.7902 H         1 UNK         0.0600 
    168 H168        4.4466  -18.4384  -42.4652 H         1 UNK         0.0600 
    169 H169        3.1779  -15.6900  -44.4011 H         1 UNK         0.3000 
    170 H170        2.0346  -12.3629  -43.8597 H         1 UNK         0.0600 
    171 H171        4.4260  -12.0007  -44.4499 H         1 UNK         0.0600 
    172 H172        4.3734  -13.3496  -45.5776 H         1 UNK         0.0600 
    173 H173        3.4118  -11.9045  -45.8826 H         1 UNK         0.0600 
    174 H174        2.0401  -14.0024  -46.1835 H         1 UNK         0.3000 
    175 H175       -0.9612  -15.8154  -45.5065 H         1 UNK         0.0600 
    176 H176       -1.6859  -13.6488  -46.4680 H         1 UNK         0.0600 
    177 H177       -0.2554  -13.5741  -47.4832 H         1 UNK         0.0600 
    178 H178       -1.4703  -14.8189  -47.7568 H         1 UNK         0.0600 
    179 H179        0.9406  -15.7884  -47.6677 H         1 UNK         0.3000 
    180 H180        2.9839  -18.4562  -46.4466 H         1 UNK         0.0600 
    181 H181        0.8932  -18.3122  -48.6858 H         1 UNK         0.0600 
    182 H182        0.9974  -19.5510  -47.4433 H         1 UNK         0.0600 
    183 H183        2.2745  -19.4086  -48.6368 H         1 UNK         0.0600 
    184 H184        3.0014  -16.9563  -48.8830 H         1 UNK         0.3000 
    185 H185        5.1142  -14.3109  -47.7778 H         1 UNK         0.0600 
    186 H186        6.5284  -15.1366  -49.6340 H         1 UNK         0.0600 
    187 H187        6.6761  -16.2059  -48.2491 H         1 UNK         0.0600 
    188 H188        5.6915  -16.6895  -49.6248 H         1 UNK         0.0600 
    189 H189        4.1254  -14.8765  -50.3511 H         1 UNK         0.3000 
    190 H190       -2.6619  -22.3189  -44.3671 H         1 UNK         0.3000 
    191 H191       -4.3160  -24.0449  -45.8798 H         1 UNK         0.0600 
    192 H192       -4.7915  -25.1394  -43.7377 H         1 UNK         0.0600 
    193 H193       -4.8012  -23.3940  -43.5429 H         1 UNK         0.0600 
    194 H194       -3.4253  -24.3408  -42.9794 H         1 UNK         0.0600 
    195 H195       -1.1864  -24.6834  -44.2496 H         1 UNK         0.3000 
    196 H196       -0.9087  -27.3822  -45.0982 H         1 UNK         0.0600 
    197 H197        1.4640  -27.0704  -44.4002 H         1 UNK         0.0600 
    198 H198        0.3609  -26.4082  -43.2029 H         1 UNK         0.0600 
    199 H199        1.2235  -25.3310  -44.2980 H         1 UNK         0.0600 
    200 H200        0.0851  -24.3109  -46.6326 H         1 UNK         0.3000 
    201 H201        1.5911  -25.3898  -48.7585 H         1 UNK         0.0600 
    202 H202        1.6811  -22.9982  -48.1101 H         1 UNK         0.0600 
    203 H203        0.0250  -22.7592  -48.6613 H         1 UNK         0.0600 
    204 H204        1.2851  -23.1640  -49.8128 H         1 UNK         0.0600 
    205 H205       -1.8313  -24.1821  -48.8874 H         1 UNK         0.3000 
    206 H206       -2.7647  -26.3642  -50.4558 H         1 UNK         0.0600 
    207 H207       -1.4829  -25.3307  -52.3443 H         1 UNK         0.0600 
    208 H208       -3.2050  -25.1927  -52.6136 H         1 UNK         0.0600 
    209 H209       -2.2993  -23.7959  -52.0707 H         1 UNK         0.0600 
    210 H210       -3.8545  -25.7618  -48.2621 H         1 UNK         0.3000 
    211 H211       -5.7923  -25.3765  -47.2514 H         1 UNK         0.0600 
    212 H212       -6.9319  -25.5310  -50.0869 H         1 UNK         0.0600 
    213 H213       -7.8002  -25.8700  -48.5949 H         1 UNK         0.0600 
    214 H214       -6.4799  -26.9137  -49.0905 H         1 UNK         0.0600 
    215 H215       -4.4118  -22.9737  -47.6700 H         1 UNK         0.3000 
    216 H216       -4.6014  -20.8560  -47.1538 H         1 UNK         0.0600 
    217 H217       -6.5064  -21.4289  -45.6529 H         1 UNK         0.0600 
    218 H218       -6.6095  -19.8032  -46.3065 H         1 UNK         0.0600 
    219 H219       -7.6338  -21.0681  -46.9627 H         1 UNK         0.0600 
    220 H220       -4.6459  -21.8937  -49.9073 H         1 UNK         0.3000 
    221 H221       -4.8688  -19.2796  -51.2092 H         1 UNK         0.0600 
    222 H222       -6.3372  -21.7670  -52.2648 H         1 UNK         0.0600 
    223 H223       -7.1115  -20.3126  -51.6375 H         1 UNK         0.0600 
    224 H224       -6.1709  -20.2309  -53.1136 H         1 UNK         0.0600 
    225 H225       -2.5643  -19.9204  -50.5444 H         1 UNK         0.3000 
    226 H226       -1.1088  -22.0208  -51.4686 H         1 UNK         0.0600 
    227 H227       -0.1709  -19.1617  -50.9746 H         1 UNK         0.0600 
    228 H228       -0.2457  -20.4838  -49.8054 H         1 UNK         0.0600 
    229 H229        0.9006  -20.5469  -51.1242 H         1 UNK         0.0600 
    230 H230       -1.8886  -19.1841  -53.4184 H         1 UNK         0.3000 
    231 H231       -0.5886  -20.4532  -55.7997 H         1 UNK         0.0600 
    232 H232        0.0161  -18.2418  -56.6217 H         1 UNK         0.0600 
    233 H233        0.6817  -18.3998  -55.0046 H         1 UNK         0.0600 
    234 H234       -0.7775  -17.4450  -55.2731 H         1 UNK         0.0600 
    235 H235       -3.2923  -20.7627  -54.6746 H         1 UNK         0.3000 
    236 H236       -5.3876  -20.9520  -55.2592 H         1 UNK         0.0600 
    237 H237       -4.4599  -21.8481  -57.4071 H         1 UNK         0.0600 
    238 H238       -6.0310  -21.0967  -57.6219 H         1 UNK         0.0600 
    239 H239       -4.5817  -20.2421  -58.1258 H         1 UNK         0.0600 
    240 H240       -4.1085  -18.1094  -54.8574 H         1 UNK         0.3000 
    241 H241       -4.6897  -16.0149  -54.5880 H         1 UNK         0.0600 
    242 H242       -4.2892  -16.9894  -57.4187 H         1 UNK         0.3800 
    243 H243       -4.9583  -15.6852  -58.3677 H         1 UNK         0.3800 
    244 H244       -7.0206  -15.3297  -54.0738 H         1 UNK         0.0800 
    245 H245       -7.6165  -16.8487  -54.6744 H         1 UNK         0.0800 
    246 H246       -6.4138  -15.5646  -50.7165 H         1 UNK         0.0800 
    247 H247       -5.7490  -14.8618  -52.1651 H         1 UNK         0.0800 
@<TRIPOS>BOND
     1    1    2 1    
     2    1  127 1    
     3    1  128 1    
     4    1  129 1    
     5    2    3 2    
     6    2    4 am   BACKBONE|DICT|INTERRES
     7    4    5 1    
     8    4  130 1    
     9    5    6 1    
    10    5   65 1    
    11    5  131 1    
    12    6    7 1    
    13    6  132 1    
    14    6  133 1    
    15    7    8 1    
    16    8    9 1    
    17    8  134 1    
    18    8  135 1    
    19    9   10 ar   
    20    9   14 ar   
    21   10   11 ar   
    22   10  136 1    
    23   11   12 ar   
    24   11  126 1    
    25   12   13 ar   
    26   12  137 1    
    27   13   14 ar   
    28   13   15 1    
    29   14  138 1    
    30   15   16 1    
    31   15  139 1    
    32   15  140 1    
    33   16   17 1    
    34   17   18 1    
    35   17  141 1    
    36   17  142 1    
    37   18   19 1    
    38   18   67 1    
    39   18  143 1    
    40   19   20 am   BACKBONE|DICT|INTERRES
    41   19  144 1    
    42   20   21 2    
    43   20   22 1    
    44   22   23 1    
    45   22   24 1    
    46   22  145 1    
    47   23  146 1    
    48   23  147 1    
    49   23  148 1    
    50   24   25 am   BACKBONE|DICT|INTERRES
    51   24  149 1    
    52   25   26 2    
    53   25   27 1    
    54   27   28 1    
    55   27   29 1    
    56   27  150 1    
    57   28  151 1    
    58   28  152 1    
    59   28  153 1    
    60   29   30 am   BACKBONE|DICT|INTERRES
    61   29  154 1    
    62   30   31 2    
    63   30   32 1    
    64   32   33 1    
    65   32   34 1    
    66   32  155 1    
    67   33  156 1    
    68   33  157 1    
    69   33  158 1    
    70   34   35 am   BACKBONE|DICT|INTERRES
    71   34  159 1    
    72   35   36 2    
    73   35   37 1    
    74   37   38 1    
    75   37   39 1    
    76   37  160 1    
    77   38  161 1    
    78   38  162 1    
    79   38  163 1    
    80   39   40 am   BACKBONE|DICT|INTERRES
    81   39  164 1    
    82   40   41 2    
    83   40   42 1    
    84   42   43 1    
    85   42   44 1    
    86   42  165 1    
    87   43  166 1    
    88   43  167 1    
    89   43  168 1    
    90   44   45 am   BACKBONE|DICT|INTERRES
    91   44  169 1    
    92   45   46 2    
    93   45   47 1    
    94   47   48 1    
    95   47   49 1    
    96   47  170 1    
    97   48  171 1    
    98   48  172 1    
    99   48  173 1    
   100   49   50 am   BACKBONE|DICT|INTERRES
   101   49  174 1    
   102   50   51 2    
   103   50   52 1    
   104   52   53 1    
   105   52   54 1    
   106   52  175 1    
   107   53  176 1    
   108   53  177 1    
   109   53  178 1    
   110   54   55 am   BACKBONE|DICT|INTERRES
   111   54  179 1    
   112   55   56 2    
   113   55   57 1    
   114   57   58 1    
   115   57   59 1    
   116   57  180 1    
   117   58  181 1    
   118   58  182 1    
   119   58  183 1    
   120   59   60 am   BACKBONE|DICT|INTERRES
   121   59  184 1    
   122   60   61 2    
   123   60   62 1    
   124   62   63 1    
   125   62   64 1    
   126   62  185 1    
   127   63  186 1    
   128   63  187 1    
   129   63  188 1    
   130   64   65 am   BACKBONE|DICT|INTERRES
   131   64  189 1    
   132   65   66 2    
   133   67   68 2    
   134   67   69 am   BACKBONE|DICT|INTERRES
   135   69   70 1    
   136   69  190 1    
   137   70   71 1    
   138   70   72 1    
   139   70  191 1    
   140   71  192 1    
   141   71  193 1    
   142   71  194 1    
   143   72   73 2    
   144   72   74 am   BACKBONE|DICT|INTERRES
   145   74   75 1    
   146   74  195 1    
   147   75   76 1    
   148   75   77 1    
   149   75  196 1    
   150   76  197 1    
   151   76  198 1    
   152   76  199 1    
   153   77   78 2    
   154   77   79 am   BACKBONE|DICT|INTERRES
   155   79   80 1    
   156   79  200 1    
   157   80   81 1    
   158   80   82 1    
   159   80  201 1    
   160   81  202 1    
   161   81  203 1    
   162   81  204 1    
   163   82   83 2    
   164   82   84 am   BACKBONE|DICT|INTERRES
   165   84   85 1    
   166   84  205 1    
   167   85   86 1    
   168   85   87 1    
   169   85  206 1    
   170   86  207 1    
   171   86  208 1    
   172   86  209 1    
   173   87   88 2    
   174   87   89 am   BACKBONE|DICT|INTERRES
   175   89   90 1    
   176   89  210 1    
   177   90   91 1    
   178   90   92 1    
   179   90  211 1    
   180   91  212 1    
   181   91  213 1    
   182   91  214 1    
   183   92   93 2    
   184   92   94 am   BACKBONE|DICT|INTERRES
   185   94   95 1    
   186   94  215 1    
   187   95   96 1    
   188   95   97 1    
   189   95  216 1    
   190   96  217 1    
   191   96  218 1    
   192   96  219 1    
   193   97   98 2    
   194   97   99 am   BACKBONE|DICT|INTERRES
   195   99  100 1    
   196   99  220 1    
   197  100  101 1    
   198  100  102 1    
   199  100  221 1    
   200  101  222 1    
   201  101  223 1    
   202  101  224 1    
   203  102  103 2    
   204  102  104 am   BACKBONE|DICT|INTERRES
   205  104  105 1    
   206  104  225 1    
   207  105  106 1    
   208  105  107 1    
   209  105  226 1    
   210  106  227 1    
   211  106  228 1    
   212  106  229 1    
   213  107  108 2    
   214  107  109 am   BACKBONE|DICT|INTERRES
   215  109  110 1    
   216  109  230 1    
   217  110  111 1    
   218  110  112 1    
   219  110  231 1    
   220  111  232 1    
   221  111  233 1    
   222  111  234 1    
   223  112  113 2    
   224  112  114 am   BACKBONE|DICT|INTERRES
   225  114  115 1    
   226  114  235 1    
   227  115  116 1    
   228  115  117 1    
   229  115  236 1    
   230  116  237 1    
   231  116  238 1    
   232  116  239 1    
   233  117  118 2    
   234  117  119 am   BACKBONE|DICT|INTERRES
   235  119  120 1    
   236  119  240 1    
   237  120  121 1    
   238  120  124 1    
   239  120  241 1    
   240  121  122 am   BACKBONE|DICT|INTERRES
   241  121  123 2    
   242  122  242 1    
   243  122  243 1    
   244  124  125 1    
   245  124  244 1    
   246  124  245 1    
   247  125  126 1    
   248  126  246 1    
   249  126  247 1    
@<TRIPOS>SUBSTRUCTURE
     1 UNK         1 GROUP             0       ****    0 ROOT    
