@<TRIPOS>MOLECULE
3R540
247   249    1
SMALL
USER_CHARGES


@<TRIPOS>ATOM
      1 CA          1.3186  -11.0398  -43.9378 C.3       0 UNK        -0.1800 
      2 C           1.5529  -11.4054  -45.3963 C.2       0 UNK         0.5000 
      3 O           2.5451  -10.9775  -45.9854 O.2       0 UNK        -0.5000 
      4 N           0.6516  -12.2116  -45.9740 N.am      1 UNK        -0.5000 
      5 CA          0.6780  -12.6759  -47.3712 C.3       1 UNK         0.1400 
      6 C6         -0.6914  -13.3183  -47.7591 C.3       23 UNK        -0.0398 
      7 S7         -0.7356  -14.5592  -49.1075 S.3       23 UNK        -0.2404 
      8 C8         -1.4167  -15.9891  -48.2147 C.3       23 UNK        -0.0205 
      9 C9         -1.4230  -17.2498  -49.0627 C.ar      23 UNK        -0.0193 
     10 C10        -2.5817  -17.6605  -49.7277 C.ar      23 UNK        -0.1150 
     11 C11        -2.5996  -18.8645  -50.4387 C.ar      23 UNK        -0.0193 
     12 C12        -1.4593  -19.6713  -50.4494 C.ar      23 UNK        -0.1150 
     13 C13        -0.2904  -19.2720  -49.7941 C.ar      23 UNK        -0.0193 
     14 C14        -0.2716  -18.0351  -49.1394 C.ar      23 UNK        -0.1150 
     15 C15         0.9181  -20.2079  -49.8322 C.3       23 UNK        -0.0205 
     16 S16         2.1903  -19.9838  -48.5356 S.3       23 UNK        -0.2404 
     17 C17         1.2846  -19.9163  -46.9494 C.3       23 UNK        -0.0398 
     18 CA          0.6601  -21.2458  -46.4630 C.3       11 UNK         0.1400 
     19 N           0.6442  -21.3111  -45.0008 N.am      11 UNK        -0.5000 
     20 C           0.2877  -22.3720  -44.2673 C.2       10 UNK         0.5000 
     21 O          -0.0228  -23.4621  -44.7482 O.2       10 UNK        -0.5000 
     22 CA          0.2266  -22.1575  -42.7425 C.3       10 UNK         0.1400 
     23 CB          1.6223  -22.2782  -42.1129 C.3       10 UNK        -0.1800 
     24 N          -0.3627  -20.8649  -42.3815 N.am      10 UNK        -0.5000 
     25 C          -1.6458  -20.5378  -42.5941 C.2       9 UNK         0.5000 
     26 O          -2.4725  -21.3073  -43.0824 O.2       9 UNK        -0.5000 
     27 CA         -2.0698  -19.0991  -42.2436 C.3       9 UNK         0.1400 
     28 CB         -2.2899  -18.9440  -40.7315 C.3       9 UNK        -0.1800 
     29 N          -1.1113  -18.0955  -42.7060 N.am      9 UNK        -0.5000 
     30 C          -0.7979  -17.8811  -43.9913 C.2       8 UNK         0.5000 
     31 O          -1.3152  -18.4757  -44.9334 O.2       8 UNK        -0.5000 
     32 CA          0.3253  -16.8744  -44.2780 C.3       8 UNK         0.1400 
     33 CB         -0.2163  -15.4379  -44.2672 C.3       8 UNK        -0.1800 
     34 N           1.4468  -16.9931  -43.3464 N.am      8 UNK        -0.5000 
     35 C           2.1904  -18.0968  -43.1751 C.2       7 UNK         0.5000 
     36 O           2.0138  -19.1447  -43.7917 O.2       7 UNK        -0.5000 
     37 CA          3.2836  -18.0367  -42.0992 C.3       7 UNK         0.1400 
     38 CB          4.5058  -17.2525  -42.5985 C.3       7 UNK        -0.1800 
     39 N           2.7786  -17.4472  -40.8620 N.am      7 UNK        -0.5000 
     40 C           1.8544  -18.0202  -40.0772 C.2       6 UNK         0.5000 
     41 O           1.3817  -19.1404  -40.2758 O.2       6 UNK        -0.5000 
     42 CA          1.3421  -17.1708  -38.9006 C.3       6 UNK         0.1400 
     43 CB          2.2770  -17.3002  -37.6889 C.3       6 UNK        -0.1800 
     44 N           1.2003  -15.7570  -39.2580 N.am      6 UNK        -0.5000 
     45 C           0.2966  -15.2880  -40.1301 C.2       5 UNK         0.5000 
     46 O          -0.5305  -15.9961  -40.7042 O.2       5 UNK        -0.5000 
     47 CA          0.3604  -13.7824  -40.4449 C.3       5 UNK         0.1400 
     48 CB         -0.3830  -12.9708  -39.3738 C.3       5 UNK        -0.1800 
     49 N           1.7323  -13.2816  -40.5742 N.am      5 UNK        -0.5000 
     50 C           2.5704  -13.6342  -41.5563 C.2       4 UNK         0.5000 
     51 O           2.2853  -14.4435  -42.4422 O.2       4 UNK        -0.5000 
     52 CA          3.9609  -12.9916  -41.5475 C.3       4 UNK         0.1400 
     53 CB          4.9287  -13.7787  -40.6469 C.3       4 UNK        -0.1800 
     54 N           4.4508  -12.9666  -42.9209 N.am      4 UNK        -0.5000 
     55 C           5.3740  -12.1345  -43.4109 C.2       3 UNK         0.5000 
     56 O           5.9837  -11.3221  -42.7136 O.2       3 UNK        -0.5000 
     57 CA          5.6394  -12.1611  -44.9314 C.3       3 UNK         0.1400 
     58 CB          7.1253  -12.4237  -45.2523 C.3       3 UNK        -0.1800 
     59 N           4.7507  -13.0368  -45.7109 N.am      3 UNK        -0.5000 
     60 C           4.7525  -14.3758  -45.8006 C.2       2 UNK         0.5000 
     61 O           5.5106  -15.1021  -45.1590 O.2       2 UNK        -0.5000 
     62 CA          3.7130  -14.9968  -46.7573 C.3       2 UNK         0.1400 
     63 CB          3.4455  -16.4828  -46.4655 C.3       2 UNK        -0.1800 
     64 N           2.4506  -14.2558  -46.6944 N.am      2 UNK        -0.5000 
     65 C           1.9362  -13.5242  -47.6932 C.2       1 UNK         0.5000 
     66 O           2.4477  -13.4457  -48.8112 O.2       1 UNK        -0.5000 
     67 C          -0.7531  -21.4636  -47.0434 C.2       11 UNK         0.5000 
     68 O          -0.9234  -22.3051  -47.9229 O.2       11 UNK        -0.5000 
     69 N          -1.7529  -20.7506  -46.5071 N.am      12 UNK        -0.5000 
     70 CA         -3.1566  -20.8544  -46.9071 C.3       12 UNK         0.1400 
     71 CB         -3.9518  -19.6942  -46.2923 C.3       12 UNK        -0.1800 
     72 C          -3.8025  -22.2079  -46.5539 C.2       12 UNK         0.5000 
     73 O          -4.7267  -22.6268  -47.2495 O.2       12 UNK        -0.5000 
     74 N          -3.3021  -22.8827  -45.5080 N.am      13 UNK        -0.5000 
     75 CA         -3.6983  -24.2449  -45.1442 C.3       13 UNK         0.1400 
     76 CB         -3.2099  -24.5761  -43.7260 C.3       13 UNK        -0.1800 
     77 C          -3.2019  -25.2906  -46.1618 C.2       13 UNK         0.5000 
     78 O          -3.9334  -26.2362  -46.4582 O.2       13 UNK        -0.5000 
     79 N          -1.9911  -25.0895  -46.7050 N.am      14 UNK        -0.5000 
     80 CA         -1.4674  -25.8487  -47.8459 C.3       14 UNK         0.1400 
     81 CB          0.0535  -25.6516  -47.9419 C.3       14 UNK        -0.1800 
     82 C          -2.1638  -25.4494  -49.1636 C.2       14 UNK         0.5000 
     83 O          -2.3961  -26.3044  -50.0176 O.2       14 UNK        -0.5000 
     84 N          -2.5008  -24.1574  -49.2741 N.am      15 UNK        -0.5000 
     85 CA         -3.3121  -23.4868  -50.2932 C.3       15 UNK         0.1400 
     86 CB         -4.6946  -24.1537  -50.4396 C.3       15 UNK        -0.1800 
     87 C          -2.6158  -23.2850  -51.6503 C.2       15 UNK         0.5000 
     88 O          -3.2564  -22.7809  -52.5717 O.2       15 UNK        -0.5000 
     89 N          -1.3263  -23.6393  -51.7561 N.am      16 UNK        -0.5000 
     90 CA         -0.4714  -23.5262  -52.9437 C.3       16 UNK         0.1400 
     91 CB         -0.1235  -22.0454  -53.2170 C.3       16 UNK        -0.1800 
     92 C          -1.0739  -24.2567  -54.1638 C.2       16 UNK         0.5000 
     93 O          -1.0474  -25.4871  -54.2029 O.2       16 UNK        -0.5000 
     94 N          -1.6262  -23.4942  -55.1172 N.am      17 UNK        -0.5000 
     95 CA         -2.3121  -23.9863  -56.3152 C.3       17 UNK         0.1400 
     96 CB         -2.1771  -22.9314  -57.4260 C.3       17 UNK        -0.1800 
     97 C          -3.7934  -24.3538  -56.0682 C.2       17 UNK         0.5000 
     98 O          -4.5174  -24.6077  -57.0321 O.2       17 UNK        -0.5000 
     99 N          -4.2253  -24.3600  -54.7990 N.am      18 UNK        -0.5000 
    100 CA        -5.5814  -24.6108  -54.3135 C.3       18 UNK         0.1400 
    101 CB        -6.0708  -26.0296  -54.6834 C.3       18 UNK        -0.1800 
    102 C         -6.5154  -23.4659  -54.7379 C.2       18 UNK         0.5000 
    103 O         -6.1804  -22.3065  -54.4894 O.2       18 UNK        -0.5000 
    104 N         -7.6472  -23.7837  -55.3799 N.am      19 UNK        -0.5000 
    105 CA        -8.6675  -22.8298  -55.8291 C.3       19 UNK         0.1400 
    106 CB        -9.8327  -23.6070  -56.4595 C.3       19 UNK        -0.1800 
    107 C         -8.1536  -21.7477  -56.8016 C.2       19 UNK         0.5000 
    108 O         -8.7336  -20.6634  -56.8574 O.2       19 UNK        -0.5000 
    109 N         -7.0619  -22.0388  -57.5215 N.am      20 UNK        -0.5000 
    110 CA        -6.3836  -21.0982  -58.4127 C.3       20 UNK         0.1400 
    111 CB        -5.4706  -21.8874  -59.3628 C.3       20 UNK        -0.1800 
    112 C         -5.5869  -20.0022  -57.6722 C.2       20 UNK         0.5000 
    113 O         -5.2817  -18.9794  -58.2871 O.2       20 UNK        -0.5000 
    114 N         -5.2605  -20.2218  -56.3899 N.am      21 UNK        -0.5000 
    115 CA        -4.5167  -19.2830  -55.5485 C.3       21 UNK         0.1400 
    116 CB        -3.2555  -19.9741  -55.0014 C.3       21 UNK        -0.1800 
    117 C         -5.3892  -18.7558  -54.3995 C.2       21 UNK         0.5000 
    118 O         -5.4993  -17.5419  -54.2260 O.2       21 UNK        -0.5000 
    119 N         -5.9788  -19.6764  -53.6295 N.am      22 UNK        -0.5000 
    120 CA        -6.7931  -19.4051  -52.4328 C.3       22 UNK         0.1400 
    121 C         -8.3212  -19.3225  -52.7272 C.2       22 UNK         0.5000 
    122 N         -8.7791  -19.4624  -53.9645 N.am      22 UNK        -0.7600 
    123 O         -9.1131  -19.1012  -51.8151 O.2       22 UNK        -0.5000 
    124 C124       -6.4671  -20.4278  -51.3016 C.3       23 UNK        -0.0398 
    125 S125       -5.1503  -19.9167  -50.1359 S.3       23 UNK        -0.2404 
    126 C126       -3.8372  -19.2784  -51.2190 C.3       23 UNK        -0.0205 
    127 H127        0.8827  -10.0435  -43.8672 H         1 UNK         0.0600 
    128 H128        0.6473  -11.7462  -43.4486 H         1 UNK         0.0600 
    129 H129        2.2617  -11.0369  -43.3924 H         1 UNK         0.0600 
    130 H130       -0.1478  -12.5049  -45.4314 H         1 UNK         0.3000 
    131 H131        0.7815  -11.7797  -47.9872 H         1 UNK         0.0600 
    132 H132       -1.1348  -13.7812  -46.8774 H         1 UNK         0.0800 
    133 H133       -1.3877  -12.5229  -48.0282 H         1 UNK         0.0800 
    134 H134       -2.4284  -15.7578  -47.8773 H         1 UNK         0.0800 
    135 H135       -0.8263  -16.1698  -47.3153 H         1 UNK         0.0800 
    136 H136       -3.4710  -17.0472  -49.6906 H         1 UNK         0.1150 
    137 H137       -1.4785  -20.6121  -50.9795 H         1 UNK         0.1150 
    138 H138        0.6281  -17.6862  -48.6546 H         1 UNK         0.1150 
    139 H139        0.5813  -21.2447  -49.8006 H         1 UNK         0.0800 
    140 H140        1.4078  -20.0808  -50.7980 H         1 UNK         0.0800 
    141 H141        0.5611  -19.1041  -46.9233 H         1 UNK         0.0800 
    142 H142        2.0555  -19.6089  -46.2446 H         1 UNK         0.0800 
    143 H143        1.2898  -22.0698  -46.8053 H         1 UNK         0.0600 
    144 H144        0.9413  -20.4701  -44.5107 H         1 UNK         0.3000 
    145 H145       -0.4035  -22.9443  -42.3224 H         1 UNK         0.0600 
    146 H146        1.5730  -22.1898  -41.0274 H         1 UNK         0.0600 
    147 H147        2.0711  -23.2456  -42.3417 H         1 UNK         0.0600 
    148 H148        2.3001  -21.5065  -42.4788 H         1 UNK         0.0600 
    149 H149        0.2567  -20.1773  -41.9696 H         1 UNK         0.3000 
    150 H150       -3.0198  -18.9040  -42.7455 H         1 UNK         0.0600 
    151 H151       -3.0168  -19.6703  -40.3659 H         1 UNK         0.0600 
    152 H152       -2.6709  -17.9517  -40.4893 H         1 UNK         0.0600 
    153 H153       -1.3663  -19.0919  -40.1714 H         1 UNK         0.0600 
    154 H154       -0.6747  -17.5170  -41.9950 H         1 UNK         0.3000 
    155 H155        0.7047  -17.0852  -45.2795 H         1 UNK         0.0600 
    156 H156       -0.5893  -15.1568  -43.2829 H         1 UNK         0.0600 
    157 H157       -1.0413  -15.3260  -44.9707 H         1 UNK         0.0600 
    158 H158        0.5557  -14.7235  -44.5461 H         1 UNK         0.0600 
    159 H159        1.6876  -16.1538  -42.8255 H         1 UNK         0.3000 
    160 H160        3.6009  -19.0596  -41.8847 H         1 UNK         0.0600 
    161 H161        5.3019  -17.2441  -41.8543 H         1 UNK         0.0600 
    162 H162        4.2579  -16.2187  -42.8384 H         1 UNK         0.0600 
    163 H163        4.9133  -17.7036  -43.5042 H         1 UNK         0.0600 
    164 H164        3.0869  -16.5133  -40.6413 H         1 UNK         0.3000 
    165 H165        0.3588  -17.5526  -38.6173 H         1 UNK         0.0600 
    166 H166        1.8835  -16.7592  -36.8282 H         1 UNK         0.0600 
    167 H167        2.3879  -18.3441  -37.3922 H         1 UNK         0.0600 
    168 H168        3.2736  -16.9119  -37.9031 H         1 UNK         0.0600 
    169 H169        1.8420  -15.1074  -38.8283 H         1 UNK         0.3000 
    170 H170       -0.1463  -13.6233  -41.3990 H         1 UNK         0.0600 
    171 H171       -1.4134  -13.3136  -39.2699 H         1 UNK         0.0600 
    172 H172        0.0926  -13.0591  -38.3962 H         1 UNK         0.0600 
    173 H173       -0.4190  -11.9131  -39.6356 H         1 UNK         0.0600 
    174 H174        2.0364  -12.6135  -39.8804 H         1 UNK         0.3000 
    175 H175        3.8658  -11.9676  -41.1802 H         1 UNK         0.0600 
    176 H176        5.0692  -14.7999  -41.0003 H         1 UNK         0.0600 
    177 H177        5.9088  -13.3032  -40.6109 H         1 UNK         0.0600 
    178 H178        4.5586  -13.8316  -39.6224 H         1 UNK         0.0600 
    179 H179        3.9775  -13.6072  -43.5442 H         1 UNK         0.3000 
    180 H180        5.4128  -11.1523  -45.2795 H         1 UNK         0.0600 
    181 H181        7.4644  -13.3831  -44.8615 H         1 UNK         0.0600 
    182 H182        7.7600  -11.6546  -44.8107 H         1 UNK         0.0600 
    183 H183        7.3060  -12.4134  -46.3271 H         1 UNK         0.0600 
    184 H184        4.0400  -12.5361  -46.2325 H         1 UNK         0.3000 
    185 H185        4.1446  -14.9344  -47.7580 H         1 UNK         0.0600 
    186 H186        2.6636  -16.8823  -47.1116 H         1 UNK         0.0600 
    187 H187        4.3412  -17.0824  -46.6306 H         1 UNK         0.0600 
    188 H188        3.1419  -16.6312  -45.4328 H         1 UNK         0.0600 
    189 H189        1.9970  -14.2216  -45.7935 H         1 UNK         0.3000 
    190 H190       -1.5407  -20.0415  -45.8073 H         1 UNK         0.3000 
    191 H191       -3.1945  -20.7498  -47.9928 H         1 UNK         0.0600 
    192 H192       -3.9168  -19.7173  -45.2025 H         1 UNK         0.0600 
    193 H193       -4.9994  -19.7359  -46.5927 H         1 UNK         0.0600 
    194 H194       -3.5585  -18.7323  -46.6225 H         1 UNK         0.0600 
    195 H195       -2.5994  -22.4379  -44.9297 H         1 UNK         0.3000 
    196 H196       -4.7896  -24.2855  -45.1364 H         1 UNK         0.0600 
    197 H197       -2.1233  -24.5582  -43.6544 H         1 UNK         0.0600 
    198 H198       -3.5401  -25.5708  -43.4244 H         1 UNK         0.0600 
    199 H199       -3.6057  -23.8684  -42.9975 H         1 UNK         0.0600 
    200 H200       -1.4368  -24.3062  -46.3813 H         1 UNK         0.3000 
    201 H201       -1.6598  -26.9098  -47.6740 H         1 UNK         0.0600 
    202 H202        0.3210  -24.6102  -48.1198 H         1 UNK         0.0600 
    203 H203        0.4710  -26.2410  -48.7591 H         1 UNK         0.0600 
    204 H204        0.5492  -25.9699  -47.0246 H         1 UNK         0.0600 
    205 H205       -2.1261  -23.5311  -48.5648 H         1 UNK         0.3000 
    206 H206       -3.4798  -22.4821  -49.9042 H         1 UNK         0.0600 
    207 H207       -5.1728  -24.2862  -49.4692 H         1 UNK         0.0600 
    208 H208       -5.3613  -23.5388  -51.0434 H         1 UNK         0.0600 
    209 H209       -4.6264  -25.1310  -50.9178 H         1 UNK         0.0600 
    210 H210       -0.9023  -24.0712  -50.9482 H         1 UNK         0.3000 
    211 H211        0.4599  -24.0434  -52.7084 H         1 UNK         0.0600 
    212 H212       -1.0091  -21.4269  -53.3652 H         1 UNK         0.0600 
    213 H213        0.5057  -21.9450  -54.1024 H         1 UNK         0.0600 
    214 H214        0.4350  -21.6229  -52.3838 H         1 UNK         0.0600 
    215 H215       -1.6400  -22.4953  -54.9732 H         1 UNK         0.3000 
    216 H216       -1.8109  -24.8946  -56.6556 H         1 UNK         0.0600 
    217 H217       -2.5138  -23.3308  -58.3831 H         1 UNK         0.0600 
    218 H218       -1.1404  -22.6208  -57.5569 H         1 UNK         0.0600 
    219 H219       -2.7724  -22.0434  -57.2142 H         1 UNK         0.0600 
    220 H220       -3.5918  -24.0006  -54.0923 H         1 UNK         0.3000 
    221 H221       -5.5256  -24.5612  -53.2268 H         1 UNK         0.0600 
    222 H222       -6.2053  -26.1602  -55.7573 H         1 UNK         0.0600 
    223 H223       -5.3584  -26.7833  -54.3479 H         1 UNK         0.0600 
    224 H224       -7.0220  -26.2547  -54.1996 H         1 UNK         0.0600 
    225 H225       -7.8334  -24.7585  -55.5655 H         1 UNK         0.3000 
    226 H226       -9.0415  -22.3133  -54.9428 H         1 UNK         0.0600 
    227 H227      -10.2728  -24.3058  -55.7479 H         1 UNK         0.0600 
    228 H228      -10.6262  -22.9306  -56.7804 H         1 UNK         0.0600 
    229 H229       -9.5108  -24.1740  -57.3339 H         1 UNK         0.0600 
    230 H230       -6.6349  -22.9481  -57.4081 H         1 UNK         0.3000 
    231 H231       -7.1397  -20.5930  -59.0175 H         1 UNK         0.0600 
    232 H232       -6.0449  -22.5882  -59.9688 H         1 UNK         0.0600 
    233 H233       -4.7208  -22.4567  -58.8154 H         1 UNK         0.0600 
    234 H234       -4.9443  -21.2215  -60.0479 H         1 UNK         0.0600 
    235 H235       -5.5865  -21.0698  -55.9386 H         1 UNK         0.3000 
    236 H236       -4.1908  -18.4158  -56.1265 H         1 UNK         0.0600 
    237 H237       -2.7385  -19.3384  -54.2814 H         1 UNK         0.0600 
    238 H238       -3.4937  -20.9136  -54.5020 H         1 UNK         0.0600 
    239 H239       -2.5492  -20.1875  -55.8026 H         1 UNK         0.0600 
    240 H240       -5.8891  -20.6603  -53.8775 H         1 UNK         0.3000 
    241 H241       -6.5502  -18.4091  -52.0593 H         1 UNK         0.0600 
    242 H242       -8.1527  -19.6204  -54.7381 H         1 UNK         0.3800 
    243 H243       -9.7694  -19.3888  -54.1351 H         1 UNK         0.3800 
    244 H244       -7.3401  -20.6285  -50.6784 H         1 UNK         0.0800 
    245 H245       -6.1978  -21.3951  -51.7277 H         1 UNK         0.0800 
    246 H246       -3.5866  -20.0377  -51.9611 H         1 UNK         0.0800 
    247 H247       -4.2002  -18.4084  -51.7650 H         1 UNK         0.0800 
@<TRIPOS>BOND
     1    1    2 1    
     2    1  127 1    
     3    1  128 1    
     4    1  129 1    
     5    2    3 2    
     6    2    4 am   BACKBONE|DICT|INTERRES
     7    4    5 1    
     8    4  130 1    
     9    5    6 1    
    10    5   65 1    
    11    5  131 1    
    12    6    7 1    
    13    6  132 1    
    14    6  133 1    
    15    7    8 1    
    16    8    9 1    
    17    8  134 1    
    18    8  135 1    
    19    9   10 ar   
    20    9   14 ar   
    21   10   11 ar   
    22   10  136 1    
    23   11   12 ar   
    24   11  126 1    
    25   12   13 ar   
    26   12  137 1    
    27   13   14 ar   
    28   13   15 1    
    29   14  138 1    
    30   15   16 1    
    31   15  139 1    
    32   15  140 1    
    33   16   17 1    
    34   17   18 1    
    35   17  141 1    
    36   17  142 1    
    37   18   19 1    
    38   18   67 1    
    39   18  143 1    
    40   19   20 am   BACKBONE|DICT|INTERRES
    41   19  144 1    
    42   20   21 2    
    43   20   22 1    
    44   22   23 1    
    45   22   24 1    
    46   22  145 1    
    47   23  146 1    
    48   23  147 1    
    49   23  148 1    
    50   24   25 am   BACKBONE|DICT|INTERRES
    51   24  149 1    
    52   25   26 2    
    53   25   27 1    
    54   27   28 1    
    55   27   29 1    
    56   27  150 1    
    57   28  151 1    
    58   28  152 1    
    59   28  153 1    
    60   29   30 am   BACKBONE|DICT|INTERRES
    61   29  154 1    
    62   30   31 2    
    63   30   32 1    
    64   32   33 1    
    65   32   34 1    
    66   32  155 1    
    67   33  156 1    
    68   33  157 1    
    69   33  158 1    
    70   34   35 am   BACKBONE|DICT|INTERRES
    71   34  159 1    
    72   35   36 2    
    73   35   37 1    
    74   37   38 1    
    75   37   39 1    
    76   37  160 1    
    77   38  161 1    
    78   38  162 1    
    79   38  163 1    
    80   39   40 am   BACKBONE|DICT|INTERRES
    81   39  164 1    
    82   40   41 2    
    83   40   42 1    
    84   42   43 1    
    85   42   44 1    
    86   42  165 1    
    87   43  166 1    
    88   43  167 1    
    89   43  168 1    
    90   44   45 am   BACKBONE|DICT|INTERRES
    91   44  169 1    
    92   45   46 2    
    93   45   47 1    
    94   47   48 1    
    95   47   49 1    
    96   47  170 1    
    97   48  171 1    
    98   48  172 1    
    99   48  173 1    
   100   49   50 am   BACKBONE|DICT|INTERRES
   101   49  174 1    
   102   50   51 2    
   103   50   52 1    
   104   52   53 1    
   105   52   54 1    
   106   52  175 1    
   107   53  176 1    
   108   53  177 1    
   109   53  178 1    
   110   54   55 am   BACKBONE|DICT|INTERRES
   111   54  179 1    
   112   55   56 2    
   113   55   57 1    
   114   57   58 1    
   115   57   59 1    
   116   57  180 1    
   117   58  181 1    
   118   58  182 1    
   119   58  183 1    
   120   59   60 am   BACKBONE|DICT|INTERRES
   121   59  184 1    
   122   60   61 2    
   123   60   62 1    
   124   62   63 1    
   125   62   64 1    
   126   62  185 1    
   127   63  186 1    
   128   63  187 1    
   129   63  188 1    
   130   64   65 am   BACKBONE|DICT|INTERRES
   131   64  189 1    
   132   65   66 2    
   133   67   68 2    
   134   67   69 am   BACKBONE|DICT|INTERRES
   135   69   70 1    
   136   69  190 1    
   137   70   71 1    
   138   70   72 1    
   139   70  191 1    
   140   71  192 1    
   141   71  193 1    
   142   71  194 1    
   143   72   73 2    
   144   72   74 am   BACKBONE|DICT|INTERRES
   145   74   75 1    
   146   74  195 1    
   147   75   76 1    
   148   75   77 1    
   149   75  196 1    
   150   76  197 1    
   151   76  198 1    
   152   76  199 1    
   153   77   78 2    
   154   77   79 am   BACKBONE|DICT|INTERRES
   155   79   80 1    
   156   79  200 1    
   157   80   81 1    
   158   80   82 1    
   159   80  201 1    
   160   81  202 1    
   161   81  203 1    
   162   81  204 1    
   163   82   83 2    
   164   82   84 am   BACKBONE|DICT|INTERRES
   165   84   85 1    
   166   84  205 1    
   167   85   86 1    
   168   85   87 1    
   169   85  206 1    
   170   86  207 1    
   171   86  208 1    
   172   86  209 1    
   173   87   88 2    
   174   87   89 am   BACKBONE|DICT|INTERRES
   175   89   90 1    
   176   89  210 1    
   177   90   91 1    
   178   90   92 1    
   179   90  211 1    
   180   91  212 1    
   181   91  213 1    
   182   91  214 1    
   183   92   93 2    
   184   92   94 am   BACKBONE|DICT|INTERRES
   185   94   95 1    
   186   94  215 1    
   187   95   96 1    
   188   95   97 1    
   189   95  216 1    
   190   96  217 1    
   191   96  218 1    
   192   96  219 1    
   193   97   98 2    
   194   97   99 am   BACKBONE|DICT|INTERRES
   195   99  100 1    
   196   99  220 1    
   197  100  101 1    
   198  100  102 1    
   199  100  221 1    
   200  101  222 1    
   201  101  223 1    
   202  101  224 1    
   203  102  103 2    
   204  102  104 am   BACKBONE|DICT|INTERRES
   205  104  105 1    
   206  104  225 1    
   207  105  106 1    
   208  105  107 1    
   209  105  226 1    
   210  106  227 1    
   211  106  228 1    
   212  106  229 1    
   213  107  108 2    
   214  107  109 am   BACKBONE|DICT|INTERRES
   215  109  110 1    
   216  109  230 1    
   217  110  111 1    
   218  110  112 1    
   219  110  231 1    
   220  111  232 1    
   221  111  233 1    
   222  111  234 1    
   223  112  113 2    
   224  112  114 am   BACKBONE|DICT|INTERRES
   225  114  115 1    
   226  114  235 1    
   227  115  116 1    
   228  115  117 1    
   229  115  236 1    
   230  116  237 1    
   231  116  238 1    
   232  116  239 1    
   233  117  118 2    
   234  117  119 am   BACKBONE|DICT|INTERRES
   235  119  120 1    
   236  119  240 1    
   237  120  121 1    
   238  120  124 1    
   239  120  241 1    
   240  121  122 am   BACKBONE|DICT|INTERRES
   241  121  123 2    
   242  122  242 1    
   243  122  243 1    
   244  124  125 1    
   245  124  244 1    
   246  124  245 1    
   247  125  126 1    
   248  126  246 1    
   249  126  247 1    
@<TRIPOS>SUBSTRUCTURE
     1 UNK         1 GROUP             0       ****    0 ROOT    
