@<TRIPOS>MOLECULE
3R540
247   249    1
SMALL
USER_CHARGES


@<TRIPOS>ATOM
      1 CA          2.1160  -18.3751  -44.7624 C.3       0 UNK        -0.1800 
      2 C           3.0110  -17.3587  -45.4608 C.2       0 UNK         0.5000 
      3 O           3.9134  -16.8120  -44.8275 O.2       0 UNK        -0.5000 
      4 N           2.7522  -17.1026  -46.7525 N.am      1 UNK        -0.5000 
      5 CA          3.3433  -16.0343  -47.5740 C.3       1 UNK         0.1400 
      6 C6          4.9012  -16.0496  -47.6019 C.3       23 UNK        -0.0398 
      7 S7          5.6119  -15.2080  -49.0653 S.3       23 UNK        -0.2404 
      8 C8          6.1488  -16.5937  -50.1233 C.3       23 UNK        -0.0205 
      9 C9          5.0247  -17.5761  -50.4199 C.ar      23 UNK        -0.0193 
     10 C10         3.8446  -17.1442  -51.0328 C.ar      23 UNK        -0.1150 
     11 C11         2.7798  -18.0278  -51.2333 C.ar      23 UNK        -0.0193 
     12 C12         2.9236  -19.3661  -50.8523 C.ar      23 UNK        -0.1150 
     13 C13         4.1099  -19.8168  -50.2667 C.ar      23 UNK        -0.0193 
     14 C14         5.1563  -18.9172  -50.0535 C.ar      23 UNK        -0.1150 
     15 C15         4.2549  -21.2685  -49.8356 C.3       23 UNK        -0.0205 
     16 S16         4.2489  -21.4346  -48.0225 S.3       23 UNK        -0.2404 
     17 C17         2.5549  -20.8936  -47.6160 C.3       23 UNK        -0.0398 
     18 CA          1.6578  -22.0243  -47.0647 C.3       11 UNK         0.1400 
     19 N           0.5331  -21.4601  -46.3195 N.am      11 UNK        -0.5000 
     20 C          -0.2038  -22.1240  -45.4203 C.2       10 UNK         0.5000 
     21 O           0.0266  -23.2807  -45.0678 O.2       10 UNK        -0.5000 
     22 CA         -1.4136  -21.3742  -44.8266 C.3       10 UNK         0.1400 
     23 CB         -1.0671  -20.8278  -43.4338 C.3       10 UNK        -0.1800 
     24 N          -1.9222  -20.2779  -45.6621 N.am      10 UNK        -0.5000 
     25 C          -2.3973  -20.4178  -46.9110 C.2       9 UNK         0.5000 
     26 O          -2.3932  -21.4877  -47.5152 O.2       9 UNK        -0.5000 
     27 CA         -2.9461  -19.1688  -47.6261 C.3       9 UNK         0.1400 
     28 CB         -4.4773  -19.1434  -47.5149 C.3       9 UNK        -0.1800 
     29 N          -2.4217  -17.9039  -47.1144 N.am      9 UNK        -0.5000 
     30 C          -1.1397  -17.5130  -47.1313 C.2       8 UNK         0.5000 
     31 O          -0.2208  -18.1637  -47.6333 O.2       8 UNK        -0.5000 
     32 CA         -0.8304  -16.1758  -46.4317 C.3       8 UNK         0.1400 
     33 CB         -0.8162  -15.0416  -47.4673 C.3       8 UNK        -0.1800 
     34 N          -1.7422  -15.8275  -45.3318 N.am      8 UNK        -0.5000 
     35 C          -1.9902  -16.5951  -44.2558 C.2       7 UNK         0.5000 
     36 O          -1.4802  -17.7040  -44.0973 O.2       7 UNK        -0.5000 
     37 CA         -2.9866  -16.0782  -43.1974 C.3       7 UNK         0.1400 
     38 CB         -2.4240  -16.1970  -41.7713 C.3       7 UNK        -0.1800 
     39 N          -3.4082  -14.6970  -43.4303 N.am      7 UNK        -0.5000 
     40 C          -4.4767  -14.3363  -44.1547 C.2       6 UNK         0.5000 
     41 O          -5.2303  -15.1418  -44.7017 O.2       6 UNK        -0.5000 
     42 CA         -4.7428  -12.8253  -44.3174 C.3       6 UNK         0.1400 
     43 CB         -5.8076  -12.3571  -43.3141 C.3       6 UNK        -0.1800 
     44 N          -3.5478  -11.9916  -44.1646 N.am      6 UNK        -0.5000 
     45 C          -2.4820  -12.0234  -44.9753 C.2       5 UNK         0.5000 
     46 O          -2.4049  -12.7609  -45.9571 O.2       5 UNK        -0.5000 
     47 CA         -1.2894  -11.1115  -44.6237 C.3       5 UNK         0.1400 
     48 CB         -1.6170  -10.0155  -43.5851 C.3       5 UNK        -0.1800 
     49 N          -0.1202  -11.8829  -44.1932 N.am      5 UNK        -0.5000 
     50 C          -0.0476  -12.7611  -43.1791 C.2       4 UNK         0.5000 
     51 O          -1.0134  -13.0692  -42.4786 O.2       4 UNK        -0.5000 
     52 CA          1.3244  -13.4054  -42.8840 C.3       4 UNK         0.1400 
     53 CB          1.2560  -14.9367  -42.9938 C.3       4 UNK        -0.1800 
     54 N           2.3815  -12.9182  -43.7713 N.am      4 UNK        -0.5000 
     55 C           3.1283  -11.8266  -43.5497 C.2       3 UNK         0.5000 
     56 O           3.0399  -11.1383  -42.5325 O.2       3 UNK        -0.5000 
     57 CA          4.1297  -11.4140  -44.6508 C.3       3 UNK         0.1400 
     58 CB          5.5401  -11.9164  -44.3067 C.3       3 UNK        -0.1800 
     59 N           3.7743  -11.8916  -45.9889 N.am      3 UNK        -0.5000 
     60 C           2.6686  -11.5533  -46.6664 C.2       2 UNK         0.5000 
     61 O           1.8440  -10.7346  -46.2596 O.2       2 UNK        -0.5000 
     62 CA          2.4064  -12.2984  -47.9912 C.3       2 UNK         0.1400 
     63 CB          2.9194  -11.4737  -49.1806 C.3       2 UNK        -0.1800 
     64 N           2.9763  -13.6503  -48.0686 N.am      2 UNK        -0.5000 
     65 C           2.7535  -14.6508  -47.2054 C.2       1 UNK         0.5000 
     66 O           2.0946  -14.5033  -46.1753 O.2       1 UNK        -0.5000 
     67 C           1.1968  -22.9888  -48.1834 C.2       11 UNK         0.5000 
     68 O           1.9599  -23.8767  -48.5668 O.2       11 UNK        -0.5000 
     69 N          -0.0406  -22.8361  -48.6810 N.am      12 UNK        -0.5000 
     70 CA         -0.6173  -23.6435  -49.7585 C.3       12 UNK         0.1400 
     71 CB         -1.6825  -22.8161  -50.4992 C.3       12 UNK        -0.1800 
     72 C          -1.1659  -24.9867  -49.2367 C.2       12 UNK         0.5000 
     73 O          -2.3266  -25.3245  -49.4788 O.2       12 UNK        -0.5000 
     74 N          -0.3162  -25.7441  -48.5314 N.am      13 UNK        -0.5000 
     75 CA         -0.6302  -27.0362  -47.9151 C.3       13 UNK         0.1400 
     76 CB          0.5776  -27.5081  -47.0934 C.3       13 UNK        -0.1800 
     77 C          -1.0570  -28.1165  -48.9274 C.2       13 UNK         0.5000 
     78 O          -1.8926  -28.9586  -48.5994 O.2       13 UNK        -0.5000 
     79 N          -0.5325  -28.0327  -50.1586 N.am      14 UNK        -0.5000 
     80 CA         -0.9159  -28.8713  -51.2988 C.3       14 UNK         0.1400 
     81 CB          0.0653  -28.6180  -52.4533 C.3       14 UNK        -0.1800 
     82 C          -2.3696  -28.6473  -51.7687 C.2       14 UNK         0.5000 
     83 O          -2.9552  -29.5476  -52.3706 O.2       14 UNK        -0.5000 
     84 N          -2.9275  -27.4676  -51.4660 N.am      15 UNK        -0.5000 
     85 CA         -4.3206  -27.0917  -51.7042 C.3       15 UNK         0.1400 
     86 CB         -4.3443  -25.6964  -52.3547 C.3       15 UNK        -0.1800 
     87 C          -5.1348  -27.1053  -50.3940 C.2       15 UNK         0.5000 
     88 O          -6.2166  -26.5196  -50.3536 O.2       15 UNK        -0.5000 
     89 N          -4.5913  -27.7190  -49.3288 N.am      16 UNK        -0.5000 
     90 CA         -5.1430  -27.8012  -47.9693 C.3       16 UNK         0.1400 
     91 CB         -6.3924  -28.7060  -47.9525 C.3       16 UNK        -0.1800 
     92 C          -5.3998  -26.4215  -47.3210 C.2       16 UNK         0.5000 
     93 O          -6.2919  -26.2939  -46.4811 O.2       16 UNK        -0.5000 
     94 N          -4.6275  -25.4105  -47.7483 N.am      17 UNK        -0.5000 
     95 CA         -4.7377  -23.9889  -47.4112 C.3       17 UNK         0.1400 
     96 CB         -4.4375  -23.7473  -45.9178 C.3       17 UNK        -0.1800 
     97 C          -6.0543  -23.3254  -47.8759 C.2       17 UNK         0.5000 
     98 O          -6.3977  -22.2514  -47.3806 O.2       17 UNK        -0.5000 
     99 N          -6.7669  -23.9485  -48.8280 N.am      18 UNK        -0.5000 
    100 CA        -8.0039  -23.4160  -49.4058 C.3       18 UNK         0.1400 
    101 CB        -8.8346  -24.5719  -49.9834 C.3       18 UNK        -0.1800 
    102 C         -7.7404  -22.3506  -50.4865 C.2       18 UNK         0.5000 
    103 O         -8.6295  -21.5474  -50.7725 O.2       18 UNK        -0.5000 
    104 N         -6.5348  -22.3617  -51.0719 N.am      19 UNK        -0.5000 
    105 CA        -6.0697  -21.3856  -52.0519 C.3       19 UNK         0.1400 
    106 CB        -4.8570  -21.9618  -52.8002 C.3       19 UNK        -0.1800 
    107 C         -5.7297  -20.0579  -51.3539 C.2       19 UNK         0.5000 
    108 O         -4.6653  -19.9467  -50.7401 O.2       19 UNK        -0.5000 
    109 N         -6.6539  -19.0914  -51.4411 N.am      20 UNK        -0.5000 
    110 CA        -6.5551  -17.7502  -50.8635 C.3       20 UNK         0.1400 
    111 CB        -7.8218  -16.9542  -51.2143 C.3       20 UNK        -0.1800 
    112 C         -5.2892  -17.0168  -51.3410 C.2       20 UNK         0.5000 
    113 O         -5.1504  -16.7598  -52.5395 O.2       20 UNK        -0.5000 
    114 N         -4.3665  -16.7676  -50.3999 N.am      21 UNK        -0.5000 
    115 CA        -3.0243  -16.2087  -50.6050 C.3       21 UNK         0.1400 
    116 CB        -3.1138  -14.6965  -50.8926 C.3       21 UNK        -0.1800 
    117 C         -2.1965  -16.9799  -51.6584 C.2       21 UNK         0.5000 
    118 O         -1.4685  -16.3611  -52.4329 O.2       21 UNK        -0.5000 
    119 N         -2.3709  -18.3099  -51.6782 N.am      22 UNK        -0.5000 
    120 CA        -1.8403  -19.2807  -52.6500 C.3       22 UNK         0.1400 
    121 C         -2.3216  -19.1068  -54.1243 C.2       22 UNK         0.5000 
    122 N         -3.3414  -18.3016  -54.4026 N.am      22 UNK        -0.7600 
    123 O         -1.8031  -19.7555  -55.0286 O.2       22 UNK        -0.5000 
    124 C124       -0.3243  -19.5979  -52.4713 C.3       23 UNK        -0.0398 
    125 S125        0.8665  -18.4413  -53.2425 S.3       23 UNK        -0.2404 
    126 C126        1.4640  -17.5054  -51.7971 C.3       23 UNK        -0.0205 
    127 H127        1.2892  -18.6952  -45.3953 H         1 UNK         0.0600 
    128 H128        1.6895  -17.9388  -43.8590 H         1 UNK         0.0600 
    129 H129        2.6922  -19.2551  -44.4773 H         1 UNK         0.0600 
    130 H130        1.9770  -17.5834  -47.1910 H         1 UNK         0.3000 
    131 H131        2.9851  -16.2494  -48.5801 H         1 UNK         0.0600 
    132 H132        5.2620  -17.0789  -47.5881 H         1 UNK         0.0800 
    133 H133        5.3113  -15.5838  -46.7045 H         1 UNK         0.0800 
    134 H134        6.9889  -17.0965  -49.6417 H         1 UNK         0.0800 
    135 H135        6.5281  -16.1944  -51.0647 H         1 UNK         0.0800 
    136 H136        3.7424  -16.1047  -51.3114 H         1 UNK         0.1150 
    137 H137        2.1086  -20.0587  -50.9978 H         1 UNK         0.1150 
    138 H138        6.0647  -19.2620  -49.5793 H         1 UNK         0.1150 
    139 H139        3.4609  -21.8855  -50.2594 H         1 UNK         0.0800 
    140 H140        5.1930  -21.6666  -50.2248 H         1 UNK         0.0800 
    141 H141        2.0771  -20.3982  -48.4612 H         1 UNK         0.0800 
    142 H142        2.6752  -20.1205  -46.8600 H         1 UNK         0.0800 
    143 H143        2.2510  -22.6115  -46.3599 H         1 UNK         0.0600 
    144 H144        0.2509  -20.5205  -46.5620 H         1 UNK         0.3000 
    145 H145       -2.2187  -22.1016  -44.7138 H         1 UNK         0.0600 
    146 H146       -1.9307  -20.3511  -42.9695 H         1 UNK         0.0600 
    147 H147       -0.2632  -20.0921  -43.4804 H         1 UNK         0.0600 
    148 H148       -0.7413  -21.6281  -42.7682 H         1 UNK         0.0600 
    149 H149       -1.9170  -19.3567  -45.2362 H         1 UNK         0.3000 
    150 H150       -2.6727  -19.2445  -48.6805 H         1 UNK         0.0600 
    151 H151       -4.9137  -20.0304  -47.9758 H         1 UNK         0.0600 
    152 H152       -4.9025  -18.2768  -48.0170 H         1 UNK         0.0600 
    153 H153       -4.8056  -19.1203  -46.4749 H         1 UNK         0.0600 
    154 H154       -3.0842  -17.3011  -46.6485 H         1 UNK         0.3000 
    155 H155        0.1661  -16.2683  -46.0029 H         1 UNK         0.0600 
    156 H156       -1.8161  -14.8275  -47.8456 H         1 UNK         0.0600 
    157 H157       -0.1838  -15.2896  -48.3210 H         1 UNK         0.0600 
    158 H158       -0.4219  -14.1227  -47.0344 H         1 UNK         0.0600 
    159 H159       -2.1858  -14.9190  -45.3923 H         1 UNK         0.3000 
    160 H160       -3.8561  -16.7362  -43.2532 H         1 UNK         0.0600 
    161 H161       -1.5747  -15.5353  -41.6133 H         1 UNK         0.0600 
    162 H162       -2.0949  -17.2144  -41.5559 H         1 UNK         0.0600 
    163 H163       -3.1826  -15.9416  -41.0314 H         1 UNK         0.0600 
    164 H164       -2.8060  -13.9757  -43.0455 H         1 UNK         0.3000 
    165 H165       -5.1313  -12.6703  -45.3261 H         1 UNK         0.0600 
    166 H166       -6.0676  -11.3104  -43.4733 H         1 UNK         0.0600 
    167 H167       -6.7254  -12.9376  -43.4181 H         1 UNK         0.0600 
    168 H168       -5.4650  -12.4664  -42.2843 H         1 UNK         0.0600 
    169 H169       -3.5212  -11.3809  -43.3611 H         1 UNK         0.3000 
    170 H170       -1.0053  -10.6123  -45.5512 H         1 UNK         0.0600 
    171 H171       -2.4581   -9.4022  -43.9110 H         1 UNK         0.0600 
    172 H172       -1.8629  -10.4296  -42.6067 H         1 UNK         0.0600 
    173 H173       -0.7675   -9.3456  -43.4513 H         1 UNK         0.0600 
    174 H174        0.7205  -11.7122  -44.7317 H         1 UNK         0.3000 
    175 H175        1.5817  -13.1588  -41.8520 H         1 UNK         0.0600 
    176 H176        0.8672  -15.2547  -43.9600 H         1 UNK         0.0600 
    177 H177        2.2402  -15.3874  -42.8654 H         1 UNK         0.0600 
    178 H178        0.6099  -15.3572  -42.2249 H         1 UNK         0.0600 
    179 H179        2.4853  -13.4261  -44.6466 H         1 UNK         0.3000 
    180 H180        4.1507  -10.3227  -44.6811 H         1 UNK         0.0600 
    181 H181        5.8552  -11.5569  -43.3261 H         1 UNK         0.0600 
    182 H182        6.2737  -11.5631  -45.0316 H         1 UNK         0.0600 
    183 H183        5.5839  -13.0063  -44.2866 H         1 UNK         0.0600 
    184 H184        4.3855  -12.5825  -46.3980 H         1 UNK         0.3000 
    185 H185        1.3237  -12.4006  -48.0891 H         1 UNK         0.0600 
    186 H186        4.0056  -11.3754  -49.1620 H         1 UNK         0.0600 
    187 H187        2.6394  -11.9319  -50.1293 H         1 UNK         0.0600 
    188 H188        2.4979  -10.4675  -49.1711 H         1 UNK         0.0600 
    189 H189        3.5627  -13.8374  -48.8709 H         1 UNK         0.3000 
    190 H190       -0.6745  -22.1739  -48.2450 H         1 UNK         0.3000 
    191 H191        0.1678  -23.8777  -50.4803 H         1 UNK         0.0600 
    192 H192       -1.2834  -21.8542  -50.8162 H         1 UNK         0.0600 
    193 H193       -2.5588  -22.6245  -49.8798 H         1 UNK         0.0600 
    194 H194       -2.0214  -23.3386  -51.3940 H         1 UNK         0.0600 
    195 H195        0.6210  -25.3818  -48.3892 H         1 UNK         0.3000 
    196 H196       -1.4686  -26.8793  -47.2331 H         1 UNK         0.0600 
    197 H197        0.8301  -26.7868  -46.3156 H         1 UNK         0.0600 
    198 H198        1.4596  -27.6494  -47.7193 H         1 UNK         0.0600 
    199 H199        0.3682  -28.4579  -46.5994 H         1 UNK         0.0600 
    200 H200        0.1477  -27.3087  -50.3377 H         1 UNK         0.3000 
    201 H201       -0.8269  -29.9162  -50.9943 H         1 UNK         0.0600 
    202 H202        1.0899  -28.8450  -52.1579 H         1 UNK         0.0600 
    203 H203        0.0331  -27.5805  -52.7884 H         1 UNK         0.0600 
    204 H204       -0.1706  -29.2478  -53.3122 H         1 UNK         0.0600 
    205 H205       -2.3902  -26.7966  -50.9291 H         1 UNK         0.3000 
    206 H206       -4.7966  -27.7967  -52.3882 H         1 UNK         0.0600 
    207 H207       -3.9545  -24.9322  -51.6817 H         1 UNK         0.0600 
    208 H208       -3.7476  -25.6755  -53.2666 H         1 UNK         0.0600 
    209 H209       -5.3597  -25.4062  -52.6274 H         1 UNK         0.0600 
    210 H210       -3.6863  -28.1585  -49.4453 H         1 UNK         0.3000 
    211 H211       -4.3779  -28.2823  -47.3587 H         1 UNK         0.0600 
    212 H212       -7.2257  -28.2546  -48.4919 H         1 UNK         0.0600 
    213 H213       -6.7272  -28.8947  -46.9319 H         1 UNK         0.0600 
    214 H214       -6.1835  -29.6744  -48.4071 H         1 UNK         0.0600 
    215 H215       -3.9138  -25.6176  -48.4423 H         1 UNK         0.3000 
    216 H216       -3.9520  -23.4986  -47.9848 H         1 UNK         0.0600 
    217 H217       -4.3906  -22.6805  -45.6975 H         1 UNK         0.0600 
    218 H218       -3.4760  -24.1774  -45.6372 H         1 UNK         0.0600 
    219 H219       -5.2030  -24.1783  -45.2728 H         1 UNK         0.0600 
    220 H220       -6.4484  -24.8420  -49.1895 H         1 UNK         0.3000 
    221 H221       -8.5898  -22.9470  -48.6125 H         1 UNK         0.0600 
    222 H222       -8.3455  -25.0301  -50.8434 H         1 UNK         0.0600 
    223 H223       -9.0038  -25.3498  -49.2385 H         1 UNK         0.0600 
    224 H224       -9.8120  -24.2195  -50.3152 H         1 UNK         0.0600 
    225 H225       -5.8597  -23.0390  -50.7519 H         1 UNK         0.3000 
    226 H226       -6.8613  -21.2115  -52.7840 H         1 UNK         0.0600 
    227 H227       -5.1207  -22.8756  -53.3324 H         1 UNK         0.0600 
    228 H228       -4.4844  -21.2530  -53.5402 H         1 UNK         0.0600 
    229 H229       -4.0361  -22.1941  -52.1225 H         1 UNK         0.0600 
    230 H230       -7.5071  -19.2929  -51.9421 H         1 UNK         0.3000 
    231 H231       -6.5181  -17.8616  -49.7785 H         1 UNK         0.0600 
    232 H232       -7.7819  -15.9506  -50.7891 H         1 UNK         0.0600 
    233 H233       -8.7148  -17.4388  -50.8189 H         1 UNK         0.0600 
    234 H234       -7.9465  -16.8491  -52.2929 H         1 UNK         0.0600 
    235 H235       -4.5768  -17.0426  -49.4522 H         1 UNK         0.3000 
    236 H236       -2.4923  -16.3341  -49.6625 H         1 UNK         0.0600 
    237 H237       -3.6032  -14.4965  -51.8464 H         1 UNK         0.0600 
    238 H238       -3.6736  -14.1799  -50.1130 H         1 UNK         0.0600 
    239 H239       -2.1220  -14.2444  -50.9300 H         1 UNK         0.0600 
    240 H240       -3.0676  -18.7009  -51.0527 H         1 UNK         0.3000 
    241 H241       -2.3483  -20.1988  -52.3548 H         1 UNK         0.0600 
    242 H242       -3.6489  -18.2127  -55.3577 H         1 UNK         0.3800 
    243 H243       -3.8050  -17.7634  -53.6786 H         1 UNK         0.3800 
    244 H244       -0.1186  -20.5810  -52.8975 H         1 UNK         0.0800 
    245 H245       -0.1035  -19.6994  -51.4088 H         1 UNK         0.0800 
    246 H246        0.7140  -17.5079  -51.0055 H         1 UNK         0.0800 
    247 H247        1.5700  -16.4635  -52.1027 H         1 UNK         0.0800 
@<TRIPOS>BOND
     1    1    2 1    
     2    1  127 1    
     3    1  128 1    
     4    1  129 1    
     5    2    3 2    
     6    2    4 am   BACKBONE|DICT|INTERRES
     7    4    5 1    
     8    4  130 1    
     9    5    6 1    
    10    5   65 1    
    11    5  131 1    
    12    6    7 1    
    13    6  132 1    
    14    6  133 1    
    15    7    8 1    
    16    8    9 1    
    17    8  134 1    
    18    8  135 1    
    19    9   10 ar   
    20    9   14 ar   
    21   10   11 ar   
    22   10  136 1    
    23   11   12 ar   
    24   11  126 1    
    25   12   13 ar   
    26   12  137 1    
    27   13   14 ar   
    28   13   15 1    
    29   14  138 1    
    30   15   16 1    
    31   15  139 1    
    32   15  140 1    
    33   16   17 1    
    34   17   18 1    
    35   17  141 1    
    36   17  142 1    
    37   18   19 1    
    38   18   67 1    
    39   18  143 1    
    40   19   20 am   BACKBONE|DICT|INTERRES
    41   19  144 1    
    42   20   21 2    
    43   20   22 1    
    44   22   23 1    
    45   22   24 1    
    46   22  145 1    
    47   23  146 1    
    48   23  147 1    
    49   23  148 1    
    50   24   25 am   BACKBONE|DICT|INTERRES
    51   24  149 1    
    52   25   26 2    
    53   25   27 1    
    54   27   28 1    
    55   27   29 1    
    56   27  150 1    
    57   28  151 1    
    58   28  152 1    
    59   28  153 1    
    60   29   30 am   BACKBONE|DICT|INTERRES
    61   29  154 1    
    62   30   31 2    
    63   30   32 1    
    64   32   33 1    
    65   32   34 1    
    66   32  155 1    
    67   33  156 1    
    68   33  157 1    
    69   33  158 1    
    70   34   35 am   BACKBONE|DICT|INTERRES
    71   34  159 1    
    72   35   36 2    
    73   35   37 1    
    74   37   38 1    
    75   37   39 1    
    76   37  160 1    
    77   38  161 1    
    78   38  162 1    
    79   38  163 1    
    80   39   40 am   BACKBONE|DICT|INTERRES
    81   39  164 1    
    82   40   41 2    
    83   40   42 1    
    84   42   43 1    
    85   42   44 1    
    86   42  165 1    
    87   43  166 1    
    88   43  167 1    
    89   43  168 1    
    90   44   45 am   BACKBONE|DICT|INTERRES
    91   44  169 1    
    92   45   46 2    
    93   45   47 1    
    94   47   48 1    
    95   47   49 1    
    96   47  170 1    
    97   48  171 1    
    98   48  172 1    
    99   48  173 1    
   100   49   50 am   BACKBONE|DICT|INTERRES
   101   49  174 1    
   102   50   51 2    
   103   50   52 1    
   104   52   53 1    
   105   52   54 1    
   106   52  175 1    
   107   53  176 1    
   108   53  177 1    
   109   53  178 1    
   110   54   55 am   BACKBONE|DICT|INTERRES
   111   54  179 1    
   112   55   56 2    
   113   55   57 1    
   114   57   58 1    
   115   57   59 1    
   116   57  180 1    
   117   58  181 1    
   118   58  182 1    
   119   58  183 1    
   120   59   60 am   BACKBONE|DICT|INTERRES
   121   59  184 1    
   122   60   61 2    
   123   60   62 1    
   124   62   63 1    
   125   62   64 1    
   126   62  185 1    
   127   63  186 1    
   128   63  187 1    
   129   63  188 1    
   130   64   65 am   BACKBONE|DICT|INTERRES
   131   64  189 1    
   132   65   66 2    
   133   67   68 2    
   134   67   69 am   BACKBONE|DICT|INTERRES
   135   69   70 1    
   136   69  190 1    
   137   70   71 1    
   138   70   72 1    
   139   70  191 1    
   140   71  192 1    
   141   71  193 1    
   142   71  194 1    
   143   72   73 2    
   144   72   74 am   BACKBONE|DICT|INTERRES
   145   74   75 1    
   146   74  195 1    
   147   75   76 1    
   148   75   77 1    
   149   75  196 1    
   150   76  197 1    
   151   76  198 1    
   152   76  199 1    
   153   77   78 2    
   154   77   79 am   BACKBONE|DICT|INTERRES
   155   79   80 1    
   156   79  200 1    
   157   80   81 1    
   158   80   82 1    
   159   80  201 1    
   160   81  202 1    
   161   81  203 1    
   162   81  204 1    
   163   82   83 2    
   164   82   84 am   BACKBONE|DICT|INTERRES
   165   84   85 1    
   166   84  205 1    
   167   85   86 1    
   168   85   87 1    
   169   85  206 1    
   170   86  207 1    
   171   86  208 1    
   172   86  209 1    
   173   87   88 2    
   174   87   89 am   BACKBONE|DICT|INTERRES
   175   89   90 1    
   176   89  210 1    
   177   90   91 1    
   178   90   92 1    
   179   90  211 1    
   180   91  212 1    
   181   91  213 1    
   182   91  214 1    
   183   92   93 2    
   184   92   94 am   BACKBONE|DICT|INTERRES
   185   94   95 1    
   186   94  215 1    
   187   95   96 1    
   188   95   97 1    
   189   95  216 1    
   190   96  217 1    
   191   96  218 1    
   192   96  219 1    
   193   97   98 2    
   194   97   99 am   BACKBONE|DICT|INTERRES
   195   99  100 1    
   196   99  220 1    
   197  100  101 1    
   198  100  102 1    
   199  100  221 1    
   200  101  222 1    
   201  101  223 1    
   202  101  224 1    
   203  102  103 2    
   204  102  104 am   BACKBONE|DICT|INTERRES
   205  104  105 1    
   206  104  225 1    
   207  105  106 1    
   208  105  107 1    
   209  105  226 1    
   210  106  227 1    
   211  106  228 1    
   212  106  229 1    
   213  107  108 2    
   214  107  109 am   BACKBONE|DICT|INTERRES
   215  109  110 1    
   216  109  230 1    
   217  110  111 1    
   218  110  112 1    
   219  110  231 1    
   220  111  232 1    
   221  111  233 1    
   222  111  234 1    
   223  112  113 2    
   224  112  114 am   BACKBONE|DICT|INTERRES
   225  114  115 1    
   226  114  235 1    
   227  115  116 1    
   228  115  117 1    
   229  115  236 1    
   230  116  237 1    
   231  116  238 1    
   232  116  239 1    
   233  117  118 2    
   234  117  119 am   BACKBONE|DICT|INTERRES
   235  119  120 1    
   236  119  240 1    
   237  120  121 1    
   238  120  124 1    
   239  120  241 1    
   240  121  122 am   BACKBONE|DICT|INTERRES
   241  121  123 2    
   242  122  242 1    
   243  122  243 1    
   244  124  125 1    
   245  124  244 1    
   246  124  245 1    
   247  125  126 1    
   248  126  246 1    
   249  126  247 1    
@<TRIPOS>SUBSTRUCTURE
     1 UNK         1 GROUP             0       ****    0 ROOT    
