@<TRIPOS>MOLECULE
3R540
247   249    1
SMALL
USER_CHARGES


@<TRIPOS>ATOM
      1 CA         -4.5601  -17.1143  -45.6567 C.3       0 UNK        -0.1800 
      2 C          -3.9602  -16.1720  -46.6905 C.2       0 UNK         0.5000 
      3 O          -4.6880  -15.6184  -47.5145 O.2       0 UNK        -0.5000 
      4 N          -2.6355  -15.9932  -46.6488 N.am      1 UNK        -0.5000 
      5 CA         -1.8897  -15.0338  -47.4681 C.3       1 UNK         0.1400 
      6 C6         -0.3929  -15.4176  -47.5629 C.3       23 UNK        -0.0398 
      7 S7         -0.1248  -16.9252  -48.5492 S.3       23 UNK        -0.2404 
      8 C8          1.5408  -16.5884  -49.1936 C.3       23 UNK        -0.0205 
      9 C9          2.0589  -17.7616  -50.0051 C.ar      23 UNK        -0.0193 
     10 C10         1.8286  -17.8255  -51.3821 C.ar      23 UNK        -0.1150 
     11 C11         2.2796  -18.9142  -52.1361 C.ar      23 UNK        -0.0193 
     12 C12         2.9788  -19.9416  -51.4865 C.ar      23 UNK        -0.1150 
     13 C13         3.2014  -19.8952  -50.1078 C.ar      23 UNK        -0.0193 
     14 C14         2.7495  -18.7974  -49.3735 C.ar      23 UNK        -0.1150 
     15 C15         3.8628  -21.0680  -49.4047 C.3       23 UNK        -0.0205 
     16 S16         2.6201  -22.3545  -49.1003 S.3       23 UNK        -0.2404 
     17 C17         3.5463  -23.6121  -48.1543 C.3       23 UNK        -0.0398 
     18 CA          2.6368  -24.5101  -47.2739 C.3       11 UNK         0.1400 
     19 N           1.9594  -23.7395  -46.2259 N.am      11 UNK        -0.5000 
     20 C           1.1987  -24.2623  -45.2521 C.2       10 UNK         0.5000 
     21 O           1.1711  -25.4670  -44.9961 O.2       10 UNK        -0.5000 
     22 CA          0.2979  -23.3056  -44.4398 C.3       10 UNK         0.1400 
     23 CB          0.6959  -23.3122  -42.9552 C.3       10 UNK        -0.1800 
     24 N           0.2769  -21.9174  -44.9069 N.am      10 UNK        -0.5000 
     25 C          -0.1167  -21.4625  -46.1045 C.2       9 UNK         0.5000 
     26 O          -0.5889  -22.1738  -46.9918 O.2       9 UNK        -0.5000 
     27 CA          0.0695  -19.9556  -46.3633 C.3       9 UNK         0.1400 
     28 CB         -1.2561  -19.2260  -46.1234 C.3       9 UNK        -0.1800 
     29 N           1.1021  -19.3188  -45.5411 N.am      9 UNK        -0.5000 
     30 C           2.4045  -19.6385  -45.5259 C.2       8 UNK         0.5000 
     31 O           2.8975  -20.5603  -46.1734 O.2       8 UNK        -0.5000 
     32 CA          3.2929  -18.8045  -44.5914 C.3       8 UNK         0.1400 
     33 CB          3.6008  -17.4324  -45.2129 C.3       8 UNK        -0.1800 
     34 N           2.6472  -18.6319  -43.2901 N.am      8 UNK        -0.5000 
     35 C           2.6408  -19.5689  -42.3300 C.2       7 UNK         0.5000 
     36 O           3.2752  -20.6215  -42.3997 O.2       7 UNK        -0.5000 
     37 CA          1.7642  -19.3013  -41.0908 C.3       7 UNK         0.1400 
     38 CB          2.5799  -18.5984  -39.9954 C.3       7 UNK        -0.1800 
     39 N           0.5736  -18.5034  -41.3875 N.am      7 UNK        -0.5000 
     40 C          -0.4527  -18.9099  -42.1487 C.2       6 UNK         0.5000 
     41 O          -0.5286  -20.0298  -42.6512 O.2       6 UNK        -0.5000 
     42 CA         -1.5537  -17.8707  -42.4361 C.3       6 UNK         0.1400 
     43 CB         -2.6848  -17.9762  -41.4040 C.3       6 UNK        -0.1800 
     44 N          -1.0560  -16.4931  -42.4684 N.am      6 UNK        -0.5000 
     45 C          -0.1532  -16.0140  -43.3331 C.2       5 UNK         0.5000 
     46 O           0.3524  -16.7011  -44.2231 O.2       5 UNK        -0.5000 
     47 CA          0.2491  -14.5352  -43.1512 C.3       5 UNK         0.1400 
     48 CB          1.2866  -14.0561  -44.1806 C.3       5 UNK        -0.1800 
     49 N          -0.9072  -13.6398  -43.1892 N.am      5 UNK        -0.5000 
     50 C          -1.7623  -13.4252  -42.1810 C.2       4 UNK         0.5000 
     51 O          -1.6796  -14.0018  -41.0940 O.2       4 UNK        -0.5000 
     52 CA         -2.9009  -12.4173  -42.4444 C.3       4 UNK         0.1400 
     53 CB         -3.5786  -11.9200  -41.1504 C.3       4 UNK        -0.1800 
     54 N          -2.4888  -11.2876  -43.2854 N.am      4 UNK        -0.5000 
     55 C          -1.5379  -10.3737  -43.0291 C.2       3 UNK         0.5000 
     56 O          -0.8764  -10.3432  -41.9900 O.2       3 UNK        -0.5000 
     57 CA         -1.3033   -9.3064  -44.1239 C.3       3 UNK         0.1400 
     58 CB          0.1205   -8.7104  -44.0920 C.3       3 UNK        -0.1800 
     59 N          -1.6586   -9.7757  -45.4712 N.am      3 UNK        -0.5000 
     60 C          -1.0722  -10.7660  -46.1590 C.2       2 UNK         0.5000 
     61 O          -0.0544  -11.3589  -45.7957 O.2       2 UNK        -0.5000 
     62 CA         -1.7705  -11.1724  -47.4723 C.3       2 UNK         0.1400 
     63 CB         -1.1655  -10.4060  -48.6584 C.3       2 UNK        -0.1800 
     64 N          -1.7040  -12.6100  -47.7544 N.am      2 UNK        -0.5000 
     65 C          -2.0646  -13.5990  -46.9228 C.2       1 UNK         0.5000 
     66 O          -2.5027  -13.4137  -45.7827 O.2       1 UNK        -0.5000 
     67 C           1.6389  -25.3317  -48.1311 C.2       11 UNK         0.5000 
     68 O           1.9789  -26.4313  -48.5708 O.2       11 UNK        -0.5000 
     69 N           0.4261  -24.7925  -48.3266 N.am      12 UNK        -0.5000 
     70 CA         -0.7029  -25.4619  -48.9590 C.3       12 UNK         0.1400 
     71 CB         -1.4937  -24.4312  -49.7814 C.3       12 UNK        -0.1800 
     72 C          -1.5994  -26.0679  -47.8707 C.2       12 UNK         0.5000 
     73 O          -1.7877  -25.4501  -46.8201 O.2       12 UNK        -0.5000 
     74 N          -2.1911  -27.2343  -48.1604 N.am      13 UNK        -0.5000 
     75 CA         -3.0862  -27.9689  -47.2563 C.3       13 UNK         0.1400 
     76 CB         -3.4180  -29.3331  -47.8802 C.3       13 UNK        -0.1800 
     77 C          -4.3813  -27.2102  -46.8983 C.2       13 UNK         0.5000 
     78 O          -4.9542  -27.4510  -45.8354 O.2       13 UNK        -0.5000 
     79 N          -4.8016  -26.2922  -47.7791 N.am      14 UNK        -0.5000 
     80 CA         -5.9241  -25.3770  -47.5707 C.3       14 UNK         0.1400 
     81 CB         -6.3442  -24.8040  -48.9345 C.3       14 UNK        -0.1800 
     82 C          -5.6087  -24.2285  -46.5890 C.2       14 UNK         0.5000 
     83 O          -6.5419  -23.5709  -46.1281 O.2       14 UNK        -0.5000 
     84 N          -4.3150  -23.9869  -46.3146 N.am      15 UNK        -0.5000 
     85 CA         -3.7663  -22.8901  -45.5080 C.3       15 UNK         0.1400 
     86 CB         -4.1288  -23.0602  -44.0191 C.3       15 UNK        -0.1800 
     87 C          -4.1189  -21.4944  -46.0669 C.2       15 UNK         0.5000 
     88 O          -4.3365  -20.5541  -45.3022 O.2       15 UNK        -0.5000 
     89 N          -4.1731  -21.3924  -47.4005 N.am      16 UNK        -0.5000 
     90 CA         -4.5624  -20.2009  -48.1482 C.3       16 UNK         0.1400 
     91 CB         -6.0977  -20.0730  -48.1788 C.3       16 UNK        -0.1800 
     92 C          -3.9280  -20.2610  -49.5456 C.2       16 UNK         0.5000 
     93 O          -4.6267  -20.1491  -50.5529 O.2       16 UNK        -0.5000 
     94 N          -2.6049  -20.4722  -49.5819 N.am      17 UNK        -0.5000 
     95 CA         -1.8060  -20.6730  -50.7945 C.3       17 UNK         0.1400 
     96 CB         -0.3402  -20.8642  -50.3967 C.3       17 UNK        -0.1800 
     97 C          -1.9338  -19.5594  -51.8516 C.2       17 UNK         0.5000 
     98 O          -1.9655  -19.8650  -53.0433 O.2       17 UNK        -0.5000 
     99 N          -2.0483  -18.2996  -51.4076 N.am      18 UNK        -0.5000 
    100 CA        -2.2705  -17.1438  -52.2798 C.3       18 UNK         0.1400 
    101 CB        -2.0773  -15.8466  -51.4824 C.3       18 UNK        -0.1800 
    102 C         -3.6551  -17.1584  -52.9554 C.2       18 UNK         0.5000 
    103 O         -3.7549  -16.8246  -54.1361 O.2       18 UNK        -0.5000 
    104 N         -4.6915  -17.5786  -52.2147 N.am      19 UNK        -0.5000 
    105 CA        -6.0611  -17.7298  -52.7178 C.3       19 UNK         0.1400 
    106 CB        -7.0354  -17.8566  -51.5375 C.3       19 UNK        -0.1800 
    107 C         -6.1965  -18.9322  -53.6703 C.2       19 UNK         0.5000 
    108 O         -6.9720  -18.8738  -54.6244 O.2       19 UNK        -0.5000 
    109 N         -5.3930  -19.9752  -53.4239 N.am      20 UNK        -0.5000 
    110 CA        -5.2142  -21.1427  -54.2885 C.3       20 UNK         0.1400 
    111 CB        -4.6395  -22.2911  -53.4420 C.3       20 UNK        -0.1800 
    112 C         -4.3229  -20.8664  -55.5220 C.2       20 UNK         0.5000 
    113 O         -4.0542  -21.7960  -56.2856 O.2       20 UNK        -0.5000 
    114 N         -3.8526  -19.6184  -55.6858 N.am      21 UNK        -0.5000 
    115 CA        -2.9938  -19.1142  -56.7647 C.3       21 UNK         0.1400 
    116 CB        -3.7622  -19.0986  -58.1021 C.3       21 UNK        -0.1800 
    117 C         -1.6394  -19.8481  -56.8602 C.2       21 UNK         0.5000 
    118 O         -1.0785  -19.9786  -57.9497 O.2       21 UNK        -0.5000 
    119 N         -1.1474  -20.3246  -55.7103 N.am      22 UNK        -0.5000 
    120 CA         0.0468  -21.1625  -55.5478 C.3       22 UNK         0.1400 
    121 C         -0.0698  -22.5982  -56.1489 C.2       22 UNK         0.5000 
    122 N         -1.2590  -23.0801  -56.4957 N.am      22 UNK        -0.7600 
    123 O          0.9265  -23.3048  -56.2757 O.2       22 UNK        -0.5000 
    124 C124        1.3579  -20.4113  -55.9372 C.3       23 UNK        -0.0398 
    125 S125        2.5544  -20.3904  -54.5636 S.3       23 UNK        -0.2404 
    126 C126        1.9347  -18.9470  -53.6265 C.3       23 UNK        -0.0205 
    127 H127       -3.7988  -17.7378  -45.1875 H         1 UNK         0.0600 
    128 H128       -5.2945  -17.7723  -46.1208 H         1 UNK         0.0600 
    129 H129       -5.0616  -16.5422  -44.8764 H         1 UNK         0.0600 
    130 H130       -2.0976  -16.4519  -45.9297 H         1 UNK         0.3000 
    131 H131       -2.3100  -15.0414  -48.4748 H         1 UNK         0.0600 
    132 H132        0.0296  -15.5841  -46.5734 H         1 UNK         0.0800 
    133 H133        0.1886  -14.6103  -48.0115 H         1 UNK         0.0800 
    134 H134        2.2170  -16.3839  -48.3616 H         1 UNK         0.0800 
    135 H135        1.5208  -15.6876  -49.8088 H         1 UNK         0.0800 
    136 H136        1.2751  -17.0326  -51.8654 H         1 UNK         0.1150 
    137 H137        3.3190  -20.8101  -52.0299 H         1 UNK         0.1150 
    138 H138        2.9056  -18.7646  -48.3052 H         1 UNK         0.1150 
    139 H139        4.6702  -21.4714  -50.0173 H         1 UNK         0.0800 
    140 H140        4.3083  -20.7491  -48.4614 H         1 UNK         0.0800 
    141 H141        4.1198  -24.2213  -48.8548 H         1 UNK         0.0800 
    142 H142        4.2798  -23.1084  -47.5231 H         1 UNK         0.0800 
    143 H143        3.2824  -25.2300  -46.7666 H         1 UNK         0.0600 
    144 H144        1.9587  -22.7349  -46.3519 H         1 UNK         0.3000 
    145 H145       -0.7181  -23.6946  -44.5200 H         1 UNK         0.0600 
    146 H146        1.6983  -22.9086  -42.8087 H         1 UNK         0.0600 
    147 H147        0.0039  -22.7186  -42.3577 H         1 UNK         0.0600 
    148 H148        0.6856  -24.3238  -42.5476 H         1 UNK         0.0600 
    149 H149        0.5776  -21.2249  -44.2331 H         1 UNK         0.3000 
    150 H150        0.3629  -19.8258  -47.4068 H         1 UNK         0.0600 
    151 H151       -1.1135  -18.1494  -46.0718 H         1 UNK         0.0600 
    152 H152       -1.7279  -19.5430  -45.1935 H         1 UNK         0.0600 
    153 H153       -1.9549  -19.4236  -46.9323 H         1 UNK         0.0600 
    154 H154        0.8039  -18.5205  -44.9910 H         1 UNK         0.3000 
    155 H155        4.2392  -19.3329  -44.4560 H         1 UNK         0.0600 
    156 H156        4.1438  -17.5473  -46.1518 H         1 UNK         0.0600 
    157 H157        4.2208  -16.8287  -44.5503 H         1 UNK         0.0600 
    158 H158        2.6943  -16.8677  -45.4315 H         1 UNK         0.0600 
    159 H159        2.0645  -17.8138  -43.1795 H         1 UNK         0.3000 
    160 H160        1.4342  -20.2686  -40.7056 H         1 UNK         0.0600 
    161 H161        2.9198  -17.6127  -40.3157 H         1 UNK         0.0600 
    162 H162        3.4639  -19.1811  -39.7326 H         1 UNK         0.0600 
    163 H163        1.9931  -18.4730  -39.0853 H         1 UNK         0.0600 
    164 H164        0.5467  -17.5680  -41.0096 H         1 UNK         0.3000 
    165 H165       -1.9720  -18.0931  -43.4180 H         1 UNK         0.0600 
    166 H166       -2.3372  -17.7331  -40.3992 H         1 UNK         0.0600 
    167 H167       -3.5051  -17.3009  -41.6485 H         1 UNK         0.0600 
    168 H168       -3.0945  -18.9869  -41.3762 H         1 UNK         0.0600 
    169 H169       -1.4223  -15.8512  -41.7719 H         1 UNK         0.3000 
    170 H170        0.7161  -14.4598  -42.1670 H         1 UNK         0.0600 
    171 H171        2.1579  -14.7115  -44.2036 H         1 UNK         0.0600 
    172 H172        0.8719  -14.0143  -45.1864 H         1 UNK         0.0600 
    173 H173        1.6428  -13.0554  -43.9349 H         1 UNK         0.0600 
    174 H174       -1.0907  -13.1765  -44.0715 H         1 UNK         0.3000 
    175 H175       -3.6518  -12.9622  -43.0185 H         1 UNK         0.0600 
    176 H176       -4.3872  -11.2233  -41.3713 H         1 UNK         0.0600 
    177 H177       -4.0119  -12.7505  -40.5918 H         1 UNK         0.0600 
    178 H178       -2.8722  -11.4164  -40.4900 H         1 UNK         0.0600 
    179 H179       -2.9433  -11.2412  -44.1865 H         1 UNK         0.3000 
    180 H180       -1.9970   -8.4955  -43.8976 H         1 UNK         0.0600 
    181 H181        0.2587   -7.9752  -44.8846 H         1 UNK         0.0600 
    182 H182        0.3097   -8.2038  -43.1449 H         1 UNK         0.0600 
    183 H183        0.8867   -9.4774  -44.2070 H         1 UNK         0.0600 
    184 H184       -2.4806   -9.3420  -45.8693 H         1 UNK         0.3000 
    185 H185       -2.8281  -10.9122  -47.3951 H         1 UNK         0.0600 
    186 H186       -1.6987  -10.6229  -49.5843 H         1 UNK         0.0600 
    187 H187       -1.2211   -9.3283  -48.4989 H         1 UNK         0.0600 
    188 H188       -0.1153  -10.6613  -48.8065 H         1 UNK         0.0600 
    189 H189       -1.3419  -12.8534  -48.6643 H         1 UNK         0.3000 
    190 H190        0.2124  -23.9082  -47.8765 H         1 UNK         0.3000 
    191 H191       -0.3520  -26.2516  -49.6265 H         1 UNK         0.0600 
    192 H192       -2.3503  -24.8931  -50.2735 H         1 UNK         0.0600 
    193 H193       -0.8707  -23.9919  -50.5606 H         1 UNK         0.0600 
    194 H194       -1.8700  -23.6193  -49.1572 H         1 UNK         0.0600 
    195 H195       -2.0006  -27.6721  -49.0506 H         1 UNK         0.3000 
    196 H196       -2.5451  -28.1420  -46.3237 H         1 UNK         0.0600 
    197 H197       -4.0605  -29.9188  -47.2212 H         1 UNK         0.0600 
    198 H198       -2.5148  -29.9184  -48.0539 H         1 UNK         0.0600 
    199 H199       -3.9376  -29.2241  -48.8330 H         1 UNK         0.0600 
    200 H200       -4.2778  -26.1803  -48.6342 H         1 UNK         0.3000 
    201 H201       -6.7640  -25.9415  -47.1601 H         1 UNK         0.0600 
    202 H202       -6.6328  -25.5973  -49.6242 H         1 UNK         0.0600 
    203 H203       -5.5391  -24.2318  -49.3976 H         1 UNK         0.0600 
    204 H204       -7.2018  -24.1376  -48.8324 H         1 UNK         0.0600 
    205 H205       -3.6150  -24.6122  -46.7005 H         1 UNK         0.3000 
    206 H206       -2.6846  -22.9793  -45.5881 H         1 UNK         0.0600 
    207 H207       -3.8484  -24.0493  -43.6570 H         1 UNK         0.0600 
    208 H208       -3.6019  -22.3293  -43.4042 H         1 UNK         0.0600 
    209 H209       -5.1966  -22.9272  -43.8441 H         1 UNK         0.0600 
    210 H210       -3.9640  -22.2111  -47.9538 H         1 UNK         0.3000 
    211 H211       -4.1566  -19.3158  -47.6574 H         1 UNK         0.0600 
    212 H212       -6.4021  -19.1563  -48.6837 H         1 UNK         0.0600 
    213 H213       -6.5133  -20.0362  -47.1717 H         1 UNK         0.0600 
    214 H214       -6.5603  -20.9122  -48.6998 H         1 UNK         0.0600 
    215 H215       -2.1128  -20.5876  -48.7082 H         1 UNK         0.3000 
    216 H216       -2.1520  -21.5998  -51.2551 H         1 UNK         0.0600 
    217 H217        0.2777  -21.0795  -51.2692 H         1 UNK         0.0600 
    218 H218       -0.2240  -21.6976  -49.7052 H         1 UNK         0.0600 
    219 H219        0.0652  -19.9739  -49.9160 H         1 UNK         0.0600 
    220 H220       -1.9858  -18.1252  -50.4153 H         1 UNK         0.3000 
    221 H221       -1.5172  -17.1690  -53.0704 H         1 UNK         0.0600 
    222 H222       -2.7660  -15.7904  -50.6395 H         1 UNK         0.0600 
    223 H223       -1.0601  -15.7660  -51.1008 H         1 UNK         0.0600 
    224 H224       -2.2543  -14.9720  -52.1098 H         1 UNK         0.0600 
    225 H225       -4.5178  -17.9084  -51.2759 H         1 UNK         0.3000 
    226 H226       -6.3208  -16.8280  -53.2764 H         1 UNK         0.0600 
    227 H227       -8.0683  -17.8596  -51.8877 H         1 UNK         0.0600 
    228 H228       -6.8791  -18.7818  -50.9836 H         1 UNK         0.0600 
    229 H229       -6.9294  -17.0236  -50.8424 H         1 UNK         0.0600 
    230 H230       -4.8409  -19.9561  -52.5727 H         1 UNK         0.3000 
    231 H231       -6.1934  -21.4511  -54.6599 H         1 UNK         0.0600 
    232 H232       -4.5930  -23.2172  -54.0161 H         1 UNK         0.0600 
    233 H233       -5.2566  -22.4844  -52.5642 H         1 UNK         0.0600 
    234 H234       -3.6294  -22.0690  -53.0991 H         1 UNK         0.0600 
    235 H235       -4.0933  -18.9341  -54.9811 H         1 UNK         0.3000 
    236 H236       -2.7581  -18.0808  -56.5072 H         1 UNK         0.0600 
    237 H237       -3.9797  -20.1070  -58.4554 H         1 UNK         0.0600 
    238 H238       -4.7081  -18.5653  -58.0062 H         1 UNK         0.0600 
    239 H239       -3.1860  -18.5964  -58.8799 H         1 UNK         0.0600 
    240 H240       -1.6631  -20.1515  -54.8498 H         1 UNK         0.3000 
    241 H241        0.0647  -21.3497  -54.4735 H         1 UNK         0.0600 
    242 H242       -1.3210  -24.0123  -56.8729 H         1 UNK         0.3800 
    243 H243       -2.1009  -22.5234  -56.4019 H         1 UNK         0.3800 
    244 H244        1.1580  -19.3772  -56.2209 H         1 UNK         0.0800 
    245 H245        1.8355  -20.8546  -56.8124 H         1 UNK         0.0800 
    246 H246        2.3105  -18.0396  -54.1013 H         1 UNK         0.0800 
    247 H247        0.8471  -18.9148  -53.7115 H         1 UNK         0.0800 
@<TRIPOS>BOND
     1    1    2 1    
     2    1  127 1    
     3    1  128 1    
     4    1  129 1    
     5    2    3 2    
     6    2    4 am   BACKBONE|DICT|INTERRES
     7    4    5 1    
     8    4  130 1    
     9    5    6 1    
    10    5   65 1    
    11    5  131 1    
    12    6    7 1    
    13    6  132 1    
    14    6  133 1    
    15    7    8 1    
    16    8    9 1    
    17    8  134 1    
    18    8  135 1    
    19    9   10 ar   
    20    9   14 ar   
    21   10   11 ar   
    22   10  136 1    
    23   11   12 ar   
    24   11  126 1    
    25   12   13 ar   
    26   12  137 1    
    27   13   14 ar   
    28   13   15 1    
    29   14  138 1    
    30   15   16 1    
    31   15  139 1    
    32   15  140 1    
    33   16   17 1    
    34   17   18 1    
    35   17  141 1    
    36   17  142 1    
    37   18   19 1    
    38   18   67 1    
    39   18  143 1    
    40   19   20 am   BACKBONE|DICT|INTERRES
    41   19  144 1    
    42   20   21 2    
    43   20   22 1    
    44   22   23 1    
    45   22   24 1    
    46   22  145 1    
    47   23  146 1    
    48   23  147 1    
    49   23  148 1    
    50   24   25 am   BACKBONE|DICT|INTERRES
    51   24  149 1    
    52   25   26 2    
    53   25   27 1    
    54   27   28 1    
    55   27   29 1    
    56   27  150 1    
    57   28  151 1    
    58   28  152 1    
    59   28  153 1    
    60   29   30 am   BACKBONE|DICT|INTERRES
    61   29  154 1    
    62   30   31 2    
    63   30   32 1    
    64   32   33 1    
    65   32   34 1    
    66   32  155 1    
    67   33  156 1    
    68   33  157 1    
    69   33  158 1    
    70   34   35 am   BACKBONE|DICT|INTERRES
    71   34  159 1    
    72   35   36 2    
    73   35   37 1    
    74   37   38 1    
    75   37   39 1    
    76   37  160 1    
    77   38  161 1    
    78   38  162 1    
    79   38  163 1    
    80   39   40 am   BACKBONE|DICT|INTERRES
    81   39  164 1    
    82   40   41 2    
    83   40   42 1    
    84   42   43 1    
    85   42   44 1    
    86   42  165 1    
    87   43  166 1    
    88   43  167 1    
    89   43  168 1    
    90   44   45 am   BACKBONE|DICT|INTERRES
    91   44  169 1    
    92   45   46 2    
    93   45   47 1    
    94   47   48 1    
    95   47   49 1    
    96   47  170 1    
    97   48  171 1    
    98   48  172 1    
    99   48  173 1    
   100   49   50 am   BACKBONE|DICT|INTERRES
   101   49  174 1    
   102   50   51 2    
   103   50   52 1    
   104   52   53 1    
   105   52   54 1    
   106   52  175 1    
   107   53  176 1    
   108   53  177 1    
   109   53  178 1    
   110   54   55 am   BACKBONE|DICT|INTERRES
   111   54  179 1    
   112   55   56 2    
   113   55   57 1    
   114   57   58 1    
   115   57   59 1    
   116   57  180 1    
   117   58  181 1    
   118   58  182 1    
   119   58  183 1    
   120   59   60 am   BACKBONE|DICT|INTERRES
   121   59  184 1    
   122   60   61 2    
   123   60   62 1    
   124   62   63 1    
   125   62   64 1    
   126   62  185 1    
   127   63  186 1    
   128   63  187 1    
   129   63  188 1    
   130   64   65 am   BACKBONE|DICT|INTERRES
   131   64  189 1    
   132   65   66 2    
   133   67   68 2    
   134   67   69 am   BACKBONE|DICT|INTERRES
   135   69   70 1    
   136   69  190 1    
   137   70   71 1    
   138   70   72 1    
   139   70  191 1    
   140   71  192 1    
   141   71  193 1    
   142   71  194 1    
   143   72   73 2    
   144   72   74 am   BACKBONE|DICT|INTERRES
   145   74   75 1    
   146   74  195 1    
   147   75   76 1    
   148   75   77 1    
   149   75  196 1    
   150   76  197 1    
   151   76  198 1    
   152   76  199 1    
   153   77   78 2    
   154   77   79 am   BACKBONE|DICT|INTERRES
   155   79   80 1    
   156   79  200 1    
   157   80   81 1    
   158   80   82 1    
   159   80  201 1    
   160   81  202 1    
   161   81  203 1    
   162   81  204 1    
   163   82   83 2    
   164   82   84 am   BACKBONE|DICT|INTERRES
   165   84   85 1    
   166   84  205 1    
   167   85   86 1    
   168   85   87 1    
   169   85  206 1    
   170   86  207 1    
   171   86  208 1    
   172   86  209 1    
   173   87   88 2    
   174   87   89 am   BACKBONE|DICT|INTERRES
   175   89   90 1    
   176   89  210 1    
   177   90   91 1    
   178   90   92 1    
   179   90  211 1    
   180   91  212 1    
   181   91  213 1    
   182   91  214 1    
   183   92   93 2    
   184   92   94 am   BACKBONE|DICT|INTERRES
   185   94   95 1    
   186   94  215 1    
   187   95   96 1    
   188   95   97 1    
   189   95  216 1    
   190   96  217 1    
   191   96  218 1    
   192   96  219 1    
   193   97   98 2    
   194   97   99 am   BACKBONE|DICT|INTERRES
   195   99  100 1    
   196   99  220 1    
   197  100  101 1    
   198  100  102 1    
   199  100  221 1    
   200  101  222 1    
   201  101  223 1    
   202  101  224 1    
   203  102  103 2    
   204  102  104 am   BACKBONE|DICT|INTERRES
   205  104  105 1    
   206  104  225 1    
   207  105  106 1    
   208  105  107 1    
   209  105  226 1    
   210  106  227 1    
   211  106  228 1    
   212  106  229 1    
   213  107  108 2    
   214  107  109 am   BACKBONE|DICT|INTERRES
   215  109  110 1    
   216  109  230 1    
   217  110  111 1    
   218  110  112 1    
   219  110  231 1    
   220  111  232 1    
   221  111  233 1    
   222  111  234 1    
   223  112  113 2    
   224  112  114 am   BACKBONE|DICT|INTERRES
   225  114  115 1    
   226  114  235 1    
   227  115  116 1    
   228  115  117 1    
   229  115  236 1    
   230  116  237 1    
   231  116  238 1    
   232  116  239 1    
   233  117  118 2    
   234  117  119 am   BACKBONE|DICT|INTERRES
   235  119  120 1    
   236  119  240 1    
   237  120  121 1    
   238  120  124 1    
   239  120  241 1    
   240  121  122 am   BACKBONE|DICT|INTERRES
   241  121  123 2    
   242  122  242 1    
   243  122  243 1    
   244  124  125 1    
   245  124  244 1    
   246  124  245 1    
   247  125  126 1    
   248  126  246 1    
   249  126  247 1    
@<TRIPOS>SUBSTRUCTURE
     1 UNK         1 GROUP             0       ****    0 ROOT    
