@<TRIPOS>MOLECULE
3R540
247   249    1
SMALL
USER_CHARGES


@<TRIPOS>ATOM
      1 CA          2.9437  -12.0321  -51.6552 C.3       0 UNK        -0.1800 
      2 C           3.3895  -12.2093  -50.2106 C.2       0 UNK         0.5000 
      3 O           4.5314  -11.8915  -49.8782 O.2       0 UNK        -0.5000 
      4 N           2.4932  -12.7163  -49.3547 N.am      1 UNK        -0.5000 
      5 CA          2.7387  -12.9507  -47.9255 C.3       1 UNK         0.1400 
      6 C6          1.6779  -13.8852  -47.2957 C.3       23 UNK        -0.0398 
      7 S7          1.6472  -15.5595  -48.0177 S.3       23 UNK        -0.2404 
      8 C8          0.3668  -15.3800  -49.3023 C.3       23 UNK        -0.0205 
      9 C9         -0.2915  -16.7074  -49.6474 C.ar      23 UNK        -0.0193 
     10 C10        -1.6671  -16.8764  -49.4652 C.ar      23 UNK        -0.1150 
     11 C11        -2.2929  -18.0859  -49.7959 C.ar      23 UNK        -0.0193 
     12 C12        -1.5166  -19.1198  -50.3255 C.ar      23 UNK        -0.1150 
     13 C13        -0.1351  -18.9779  -50.4894 C.ar      23 UNK        -0.0193 
     14 C14         0.4675  -17.7619  -50.1602 C.ar      23 UNK        -0.1150 
     15 C15         0.7204  -20.1245  -51.0199 C.3       23 UNK        -0.0205 
     16 S16         0.3628  -21.7436  -50.2562 S.3       23 UNK        -0.2404 
     17 C17         0.3965  -21.3673  -48.4677 C.3       23 UNK        -0.0398 
     18 CA          0.0513  -22.5882  -47.5820 C.3       11 UNK         0.1400 
     19 N           0.2669  -22.2991  -46.1627 N.am      11 UNK        -0.5000 
     20 C           0.2203  -23.2118  -45.1822 C.2       10 UNK         0.5000 
     21 O           0.0424  -24.4135  -45.3734 O.2       10 UNK        -0.5000 
     22 CA          0.3341  -22.6924  -43.7398 C.3       10 UNK         0.1400 
     23 CB          1.7980  -22.4038  -43.3773 C.3       10 UNK        -0.1800 
     24 N          -0.4889  -21.5045  -43.5080 N.am      10 UNK        -0.5000 
     25 C          -1.8268  -21.4841  -43.6022 C.2       9 UNK         0.5000 
     26 O          -2.5070  -22.4801  -43.8476 O.2       9 UNK        -0.5000 
     27 CA         -2.5224  -20.1211  -43.4339 C.3       9 UNK         0.1400 
     28 CB         -2.6639  -19.7615  -41.9478 C.3       9 UNK        -0.1800 
     29 N          -1.8358  -19.0388  -44.1392 N.am      9 UNK        -0.5000 
     30 C          -1.6681  -18.9753  -45.4686 C.2       8 UNK         0.5000 
     31 O          -2.1035  -19.8140  -46.2566 O.2       8 UNK        -0.5000 
     32 CA         -0.8138  -17.8103  -45.9975 C.3       8 UNK         0.1400 
     33 CB         -1.6129  -16.4979  -46.0089 C.3       8 UNK        -0.1800 
     34 N           0.4132  -17.6392  -45.2201 N.am      8 UNK        -0.5000 
     35 C           1.3862  -18.5578  -45.1345 C.2       7 UNK         0.5000 
     36 O           1.3837  -19.6239  -45.7511 O.2       7 UNK        -0.5000 
     37 CA          2.5207  -18.2610  -44.1411 C.3       7 UNK         0.1400 
     38 CB          3.5903  -17.3613  -44.7798 C.3       7 UNK        -0.1800 
     39 N           2.0111  -17.6484  -42.9119 N.am      7 UNK        -0.5000 
     40 C           1.3150  -18.3154  -41.9781 C.2       6 UNK         0.5000 
     41 O           1.0643  -19.5171  -42.0501 O.2       6 UNK        -0.5000 
     42 CA          0.7773  -17.5112  -40.7785 C.3       6 UNK         0.1400 
     43 CB          1.8294  -17.4441  -39.6619 C.3       6 UNK        -0.1800 
     44 N           0.3653  -16.1544  -41.1334 N.am      6 UNK        -0.5000 
     45 C          -0.6428  -15.8516  -41.9634 C.2       5 UNK         0.5000 
     46 O          -1.3871  -16.6929  -42.4656 O.2       5 UNK        -0.5000 
     47 CA         -0.8059  -14.3647  -42.3418 C.3       5 UNK         0.1400 
     48 CB         -1.8125  -13.6769  -41.4088 C.3       5 UNK        -0.1800 
     49 N           0.4547  -13.6135  -42.3301 N.am      5 UNK        -0.5000 
     50 C           1.5330  -13.9082  -43.0669 C.2       4 UNK         0.5000 
     51 O           1.5634  -14.8502  -43.8598 O.2       4 UNK        -0.5000 
     52 CA          2.7803  -13.0285  -42.8502 C.3       4 UNK         0.1400 
     53 CB          4.0227  -13.5851  -43.5692 C.3       4 UNK        -0.1800 
     54 N           2.5576  -11.6386  -43.2569 N.am      4 UNK        -0.5000 
     55 C           1.8938  -10.7266  -42.5293 C.2       3 UNK         0.5000 
     56 O           1.3592  -10.9903  -41.4504 O.2       3 UNK        -0.5000 
     57 CA          1.8157   -9.2806  -43.0613 C.3       3 UNK         0.1400 
     58 CB          2.7557   -8.3661  -42.2600 C.3       3 UNK        -0.1800 
     59 N           2.1391   -9.1510  -44.4818 N.am      3 UNK        -0.5000 
     60 C           1.3197   -9.4804  -45.4874 C.2       2 UNK         0.5000 
     61 O           0.1828   -9.9256  -45.3230 O.2       2 UNK        -0.5000 
     62 CA          1.8602   -9.3136  -46.9244 C.3       2 UNK         0.1400 
     63 CB          3.1502   -8.4680  -47.0272 C.3       2 UNK        -0.1800 
     64 N           2.0463  -10.6156  -47.5705 N.am      2 UNK        -0.5000 
     65 C           2.8009  -11.6329  -47.1247 C.2       1 UNK         0.5000 
     66 O           3.5085  -11.5694  -46.1187 O.2       1 UNK        -0.5000 
     67 C          -1.3750  -23.1250  -47.8394 C.2       11 UNK         0.5000 
     68 O          -1.5256  -24.1408  -48.5212 O.2       11 UNK        -0.5000 
     69 N          -2.3934  -22.4714  -47.2609 N.am      12 UNK        -0.5000 
     70 CA         -3.7963  -22.8871  -47.3338 C.3       12 UNK         0.1400 
     71 CB         -4.6872  -21.8509  -46.6336 C.3       12 UNK        -0.1800 
     72 C          -4.0439  -24.3004  -46.7736 C.2       12 UNK         0.5000 
     73 O          -4.8148  -25.0573  -47.3634 O.2       12 UNK        -0.5000 
     74 N          -3.3679  -24.6346  -45.6682 N.am      13 UNK        -0.5000 
     75 CA         -3.4286  -25.9424  -45.0257 C.3       13 UNK         0.1400 
     76 CB         -2.9390  -25.8176  -43.5734 C.3       13 UNK        -0.1800 
     77 C          -2.6340  -27.0206  -45.7859 C.2       13 UNK         0.5000 
     78 O          -3.2066  -28.0452  -46.1586 O.2       13 UNK        -0.5000 
     79 N          -1.3249  -26.7981  -45.9623 N.am      14 UNK        -0.5000 
     80 CA         -0.3763  -27.8284  -46.3892 C.3       14 UNK         0.1400 
     81 CB          1.0140  -27.5015  -45.8220 C.3       14 UNK        -0.1800 
     82 C          -0.2947  -28.0073  -47.9125 C.2       14 UNK         0.5000 
     83 O          -0.1093  -29.1350  -48.3721 O.2       14 UNK        -0.5000 
     84 N          -0.4131  -26.9076  -48.6662 N.am      15 UNK        -0.5000 
     85 CA         -0.2626  -26.8850  -50.1245 C.3       15 UNK         0.1400 
     86 CB          0.7168  -25.7600  -50.5048 C.3       15 UNK        -0.1800 
     87 C          -1.6096  -26.7073  -50.8463 C.2       15 UNK         0.5000 
     88 O          -1.6178  -26.5497  -52.0677 O.2       15 UNK        -0.5000 
     89 N          -2.7192  -26.6911  -50.0903 N.am      16 UNK        -0.5000 
     90 CA         -4.0908  -26.4264  -50.5446 C.3       16 UNK         0.1400 
     91 CB         -4.6059  -27.5847  -51.4242 C.3       16 UNK        -0.1800 
     92 C          -4.2321  -25.0440  -51.2214 C.2       16 UNK         0.5000 
     93 O          -4.9837  -24.9001  -52.1857 O.2       16 UNK        -0.5000 
     94 N          -3.4628  -24.0699  -50.7127 N.am      17 UNK        -0.5000 
     95 CA         -3.2892  -22.6943  -51.1894 C.3       17 UNK         0.1400 
     96 CB         -4.6302  -21.9357  -51.2686 C.3       17 UNK        -0.1800 
     97 C          -2.4661  -22.5692  -52.4877 C.2       17 UNK         0.5000 
     98 O          -2.3451  -21.4590  -53.0058 O.2       17 UNK        -0.5000 
     99 N          -1.9003  -23.6820  -52.9837 N.am      18 UNK        -0.5000 
    100 CA        -1.0447  -23.8484  -54.1693 C.3       18 UNK         0.1400 
    101 CB         0.2563  -23.0353  -54.0312 C.3       18 UNK        -0.1800 
    102 C         -1.7325  -23.5751  -55.5251 C.2       18 UNK         0.5000 
    103 O         -1.4588  -24.2820  -56.4960 O.2       18 UNK        -0.5000 
    104 N         -2.6162  -22.5784  -55.5681 N.am      19 UNK        -0.5000 
    105 CA        -3.4573  -22.1792  -56.6879 C.3       19 UNK         0.1400 
    106 CB        -2.6878  -21.1822  -57.5771 C.3       19 UNK        -0.1800 
    107 C         -4.7636  -21.5947  -56.1184 C.2       19 UNK         0.5000 
    108 O         -5.0652  -21.7952  -54.9388 O.2       19 UNK        -0.5000 
    109 N         -5.5176  -20.8569  -56.9425 N.am      20 UNK        -0.5000 
    110 CA        -6.7616  -20.1709  -56.5728 C.3       20 UNK         0.1400 
    111 CB        -7.5833  -19.9229  -57.8513 C.3       20 UNK        -0.1800 
    112 C         -6.5162  -18.8760  -55.7599 C.2       20 UNK         0.5000 
    113 O         -7.0597  -17.8209  -56.0928 O.2       20 UNK        -0.5000 
    114 N         -5.6860  -18.9764  -54.7176 N.am      21 UNK        -0.5000 
    115 CA        -5.3620  -17.9118  -53.7741 C.3       21 UNK         0.1400 
    116 CB        -3.8697  -18.0176  -53.4176 C.3       21 UNK        -0.1800 
    117 C         -6.2269  -18.0431  -52.5097 C.2       21 UNK         0.5000 
    118 O         -6.6616  -19.1475  -52.1726 O.2       21 UNK        -0.5000 
    119 N         -6.4149  -16.9169  -51.8108 N.am      22 UNK        -0.5000 
    120 CA        -7.1731  -16.7924  -50.5516 C.3       22 UNK         0.1400 
    121 C         -8.6926  -17.1271  -50.7029 C.2       22 UNK         0.5000 
    122 N         -9.4114  -17.4006  -49.6211 N.am      22 UNK        -0.7600 
    123 O         -9.2539  -17.0827  -51.7960 O.2       22 UNK        -0.5000 
    124 C124       -6.4792  -17.5187  -49.3588 C.3       23 UNK        -0.0398 
    125 S125       -4.7834  -16.9084  -49.0624 S.3       23 UNK        -0.2404 
    126 C126       -3.7883  -18.3425  -49.5979 C.3       23 UNK        -0.0205 
    127 H127        1.9171  -12.3663  -51.8075 H         1 UNK         0.0600 
    128 H128        3.5895  -12.6059  -52.3199 H         1 UNK         0.0600 
    129 H129        3.0055  -10.9819  -51.9407 H         1 UNK         0.0600 
    130 H130        1.5751  -12.9638  -49.6914 H         1 UNK         0.3000 
    131 H131        3.7136  -13.4333  -47.8251 H         1 UNK         0.0600 
    132 H132        1.8907  -14.0158  -46.2354 H         1 UNK         0.0800 
    133 H133        0.6822  -13.4412  -47.3422 H         1 UNK         0.0800 
    134 H134       -0.3882  -14.6647  -48.9738 H         1 UNK         0.0800 
    135 H135        0.8177  -14.9655  -50.2045 H         1 UNK         0.0800 
    136 H136       -2.2398  -16.0561  -49.0600 H         1 UNK         0.1150 
    137 H137       -1.9885  -20.0515  -50.5954 H         1 UNK         0.1150 
    138 H138        1.5325  -17.6332  -50.2933 H         1 UNK         0.1150 
    139 H139        0.5640  -20.2060  -52.0962 H         1 UNK         0.0800 
    140 H140        1.7800  -19.9085  -50.8758 H         1 UNK         0.0800 
    141 H141       -0.2847  -20.5444  -48.2484 H         1 UNK         0.0800 
    142 H142        1.3957  -21.0038  -48.2241 H         1 UNK         0.0800 
    143 H143        0.7442  -23.3902  -47.8459 H         1 UNK         0.0600 
    144 H144        0.4529  -21.3295  -45.9210 H         1 UNK         0.3000 
    145 H145       -0.0277  -23.4805  -43.0762 H         1 UNK         0.0600 
    146 H146        1.8968  -22.1312  -42.3266 H         1 UNK         0.0600 
    147 H147        2.4221  -23.2827  -43.5440 H         1 UNK         0.0600 
    148 H148        2.2095  -21.5905  -43.9749 H         1 UNK         0.0600 
    149 H149        0.0020  -20.6577  -43.2380 H         1 UNK         0.3000 
    150 H150       -3.5247  -20.2058  -43.8578 H         1 UNK         0.0600 
    151 H151       -3.2018  -20.5410  -41.4069 H         1 UNK         0.0600 
    152 H152       -3.2194  -18.8325  -41.8182 H         1 UNK         0.0600 
    153 H153       -1.6924  -19.6395  -41.4687 H         1 UNK         0.0600 
    154 H154       -1.4836  -18.2768  -43.5666 H         1 UNK         0.3000 
    155 H155       -0.5269  -18.0474  -47.0238 H         1 UNK         0.0600 
    156 H156       -1.9146  -16.1944  -45.0073 H         1 UNK         0.0600 
    157 H157       -1.0315  -15.6853  -46.4436 H         1 UNK         0.0600 
    158 H158       -2.5212  -16.6035  -46.6032 H         1 UNK         0.0600 
    159 H159        0.5110  -16.7833  -44.6899 H         1 UNK         0.3000 
    160 H160        2.9954  -19.2087  -43.8789 H         1 UNK         0.0600 
    161 H161        3.1749  -16.4178  -45.1337 H         1 UNK         0.0600 
    162 H162        4.0441  -17.8546  -45.6400 H         1 UNK         0.0600 
    163 H163        4.3901  -17.1343  -44.0750 H         1 UNK         0.0600 
    164 H164        2.1001  -16.6430  -42.8407 H         1 UNK         0.3000 
    165 H165       -0.0978  -18.0371  -40.3917 H         1 UNK         0.0600 
    166 H166        1.4336  -16.9470  -38.7760 H         1 UNK         0.0600 
    167 H167        2.1411  -18.4447  -39.3594 H         1 UNK         0.0600 
    168 H168        2.7221  -16.9043  -39.9804 H         1 UNK         0.0600 
    169 H169        0.9210  -15.3979  -40.7631 H         1 UNK         0.3000 
    170 H170       -1.2005  -14.3289  -43.3591 H         1 UNK         0.0600 
    171 H171       -2.7705  -14.1987  -41.4145 H         1 UNK         0.0600 
    172 H172       -1.4556  -13.6546  -40.3784 H         1 UNK         0.0600 
    173 H173       -2.0010  -12.6495  -41.7212 H         1 UNK         0.0600 
    174 H174        0.5042  -12.7960  -41.7304 H         1 UNK         0.3000 
    175 H175        2.9998  -13.0434  -41.7805 H         1 UNK         0.0600 
    176 H176        4.8911  -12.9450  -43.4134 H         1 UNK         0.0600 
    177 H177        3.8653  -13.6818  -44.6431 H         1 UNK         0.0600 
    178 H178        4.2776  -14.5756  -43.1907 H         1 UNK         0.0600 
    179 H179        2.9320  -11.3729  -44.1621 H         1 UNK         0.3000 
    180 H180        0.7921   -8.9330  -42.9056 H         1 UNK         0.0600 
    181 H181        3.7998   -8.6583  -42.3798 H         1 UNK         0.0600 
    182 H182        2.5248   -8.4032  -41.1945 H         1 UNK         0.0600 
    183 H183        2.6587   -7.3269  -42.5749 H         1 UNK         0.0600 
    184 H184        3.0678   -8.8245  -44.7067 H         1 UNK         0.3000 
    185 H185        1.0815   -8.7941  -47.4847 H         1 UNK         0.0600 
    186 H186        3.0077   -7.4787  -46.5905 H         1 UNK         0.0600 
    187 H187        3.9981   -8.9358  -46.5261 H         1 UNK         0.0600 
    188 H188        3.4310   -8.3187  -48.0699 H         1 UNK         0.0600 
    189 H189        1.4919  -10.7724  -48.3998 H         1 UNK         0.3000 
    190 H190       -2.2031  -21.6146  -46.7454 H         1 UNK         0.3000 
    191 H191       -4.0813  -22.9001  -48.3839 H         1 UNK         0.0600 
    192 H192       -4.5762  -20.8653  -47.0855 H         1 UNK         0.0600 
    193 H193       -5.7396  -22.1264  -46.7100 H         1 UNK         0.0600 
    194 H194       -4.4475  -21.7626  -45.5746 H         1 UNK         0.0600 
    195 H195       -2.7965  -23.9282  -45.2152 H         1 UNK         0.3000 
    196 H196       -4.4727  -26.2613  -44.9946 H         1 UNK         0.0600 
    197 H197       -2.9637  -26.7830  -43.0666 H         1 UNK         0.0600 
    198 H198       -3.5709  -25.1351  -43.0047 H         1 UNK         0.0600 
    199 H199       -1.9162  -25.4426  -43.5199 H         1 UNK         0.0600 
    200 H200       -0.9220  -25.9085  -45.6709 H         1 UNK         0.3000 
    201 H201       -0.6862  -28.7849  -45.9623 H         1 UNK         0.0600 
    202 H202        0.9845  -27.3996  -44.7370 H         1 UNK         0.0600 
    203 H203        1.4105  -26.5733  -46.2352 H         1 UNK         0.0600 
    204 H204        1.7268  -28.2934  -46.0555 H         1 UNK         0.0600 
    205 H205       -0.6160  -26.0165  -48.2264 H         1 UNK         0.3000 
    206 H206        0.1621  -27.8251  -50.4813 H         1 UNK         0.0600 
    207 H207        1.6692  -25.8734  -49.9869 H         1 UNK         0.0600 
    208 H208        0.9281  -25.7675  -51.5748 H         1 UNK         0.0600 
    209 H209        0.3187  -24.7759  -50.2616 H         1 UNK         0.0600 
    210 H210       -2.6009  -26.8073  -49.0937 H         1 UNK         0.3000 
    211 H211       -4.7130  -26.3946  -49.6502 H         1 UNK         0.0600 
    212 H212       -4.0732  -27.6422  -52.3738 H         1 UNK         0.0600 
    213 H213       -5.6654  -27.4611  -51.6514 H         1 UNK         0.0600 
    214 H214       -4.4939  -28.5434  -50.9179 H         1 UNK         0.0600 
    215 H215       -2.8491  -24.3207  -49.9414 H         1 UNK         0.3000 
    216 H216       -2.6925  -22.2061  -50.4201 H         1 UNK         0.0600 
    217 H217       -4.4660  -20.8762  -51.4618 H         1 UNK         0.0600 
    218 H218       -5.1920  -22.0108  -50.3383 H         1 UNK         0.0600 
    219 H219       -5.2618  -22.3071  -52.0756 H         1 UNK         0.0600 
    220 H220       -2.0833  -24.5502  -52.4933 H         1 UNK         0.3000 
    221 H221       -0.7667  -24.9033  -54.1757 H         1 UNK         0.0600 
    222 H222        0.0684  -21.9614  -54.0329 H         1 UNK         0.0600 
    223 H223        0.7785  -23.2827  -53.1067 H         1 UNK         0.0600 
    224 H224        0.9366  -23.2475  -54.8567 H         1 UNK         0.0600 
    225 H225       -2.7878  -22.0693  -54.7029 H         1 UNK         0.3000 
    226 H226       -3.7218  -23.0612  -57.2742 H         1 UNK         0.0600 
    227 H227       -1.7335  -21.5984  -57.9004 H         1 UNK         0.0600 
    228 H228       -3.2470  -20.9358  -58.4799 H         1 UNK         0.0600 
    229 H229       -2.4814  -20.2512  -57.0473 H         1 UNK         0.0600 
    230 H230       -5.1932  -20.7047  -57.8863 H         1 UNK         0.3000 
    231 H231       -7.3463  -20.8354  -55.9331 H         1 UNK         0.0600 
    232 H232       -7.0645  -19.2547  -58.5397 H         1 UNK         0.0600 
    233 H233       -8.5481  -19.4711  -57.6169 H         1 UNK         0.0600 
    234 H234       -7.7855  -20.8561  -58.3774 H         1 UNK         0.0600 
    235 H235       -5.3460  -19.9034  -54.4807 H         1 UNK         0.3000 
    236 H236       -5.5445  -16.9360  -54.2291 H         1 UNK         0.0600 
    237 H237       -3.2443  -17.8995  -54.3025 H         1 UNK         0.0600 
    238 H238       -3.5769  -17.2436  -52.7069 H         1 UNK         0.0600 
    239 H239       -3.6295  -18.9823  -52.9690 H         1 UNK         0.0600 
    240 H240       -6.0274  -16.0551  -52.1659 H         1 UNK         0.3000 
    241 H241       -7.1618  -15.7258  -50.3251 H         1 UNK         0.0600 
    242 H242      -10.3954  -17.5926  -49.7298 H         1 UNK         0.3800 
    243 H243       -9.0080  -17.4139  -48.6981 H         1 UNK         0.3800 
    244 H244       -7.0279  -17.3508  -48.4320 H         1 UNK         0.0800 
    245 H245       -6.4711  -18.5988  -49.5127 H         1 UNK         0.0800 
    246 H246       -4.1972  -18.7163  -50.5350 H         1 UNK         0.0800 
    247 H247       -3.9095  -19.1408  -48.8642 H         1 UNK         0.0800 
@<TRIPOS>BOND
     1    1    2 1    
     2    1  127 1    
     3    1  128 1    
     4    1  129 1    
     5    2    3 2    
     6    2    4 am   BACKBONE|DICT|INTERRES
     7    4    5 1    
     8    4  130 1    
     9    5    6 1    
    10    5   65 1    
    11    5  131 1    
    12    6    7 1    
    13    6  132 1    
    14    6  133 1    
    15    7    8 1    
    16    8    9 1    
    17    8  134 1    
    18    8  135 1    
    19    9   10 ar   
    20    9   14 ar   
    21   10   11 ar   
    22   10  136 1    
    23   11   12 ar   
    24   11  126 1    
    25   12   13 ar   
    26   12  137 1    
    27   13   14 ar   
    28   13   15 1    
    29   14  138 1    
    30   15   16 1    
    31   15  139 1    
    32   15  140 1    
    33   16   17 1    
    34   17   18 1    
    35   17  141 1    
    36   17  142 1    
    37   18   19 1    
    38   18   67 1    
    39   18  143 1    
    40   19   20 am   BACKBONE|DICT|INTERRES
    41   19  144 1    
    42   20   21 2    
    43   20   22 1    
    44   22   23 1    
    45   22   24 1    
    46   22  145 1    
    47   23  146 1    
    48   23  147 1    
    49   23  148 1    
    50   24   25 am   BACKBONE|DICT|INTERRES
    51   24  149 1    
    52   25   26 2    
    53   25   27 1    
    54   27   28 1    
    55   27   29 1    
    56   27  150 1    
    57   28  151 1    
    58   28  152 1    
    59   28  153 1    
    60   29   30 am   BACKBONE|DICT|INTERRES
    61   29  154 1    
    62   30   31 2    
    63   30   32 1    
    64   32   33 1    
    65   32   34 1    
    66   32  155 1    
    67   33  156 1    
    68   33  157 1    
    69   33  158 1    
    70   34   35 am   BACKBONE|DICT|INTERRES
    71   34  159 1    
    72   35   36 2    
    73   35   37 1    
    74   37   38 1    
    75   37   39 1    
    76   37  160 1    
    77   38  161 1    
    78   38  162 1    
    79   38  163 1    
    80   39   40 am   BACKBONE|DICT|INTERRES
    81   39  164 1    
    82   40   41 2    
    83   40   42 1    
    84   42   43 1    
    85   42   44 1    
    86   42  165 1    
    87   43  166 1    
    88   43  167 1    
    89   43  168 1    
    90   44   45 am   BACKBONE|DICT|INTERRES
    91   44  169 1    
    92   45   46 2    
    93   45   47 1    
    94   47   48 1    
    95   47   49 1    
    96   47  170 1    
    97   48  171 1    
    98   48  172 1    
    99   48  173 1    
   100   49   50 am   BACKBONE|DICT|INTERRES
   101   49  174 1    
   102   50   51 2    
   103   50   52 1    
   104   52   53 1    
   105   52   54 1    
   106   52  175 1    
   107   53  176 1    
   108   53  177 1    
   109   53  178 1    
   110   54   55 am   BACKBONE|DICT|INTERRES
   111   54  179 1    
   112   55   56 2    
   113   55   57 1    
   114   57   58 1    
   115   57   59 1    
   116   57  180 1    
   117   58  181 1    
   118   58  182 1    
   119   58  183 1    
   120   59   60 am   BACKBONE|DICT|INTERRES
   121   59  184 1    
   122   60   61 2    
   123   60   62 1    
   124   62   63 1    
   125   62   64 1    
   126   62  185 1    
   127   63  186 1    
   128   63  187 1    
   129   63  188 1    
   130   64   65 am   BACKBONE|DICT|INTERRES
   131   64  189 1    
   132   65   66 2    
   133   67   68 2    
   134   67   69 am   BACKBONE|DICT|INTERRES
   135   69   70 1    
   136   69  190 1    
   137   70   71 1    
   138   70   72 1    
   139   70  191 1    
   140   71  192 1    
   141   71  193 1    
   142   71  194 1    
   143   72   73 2    
   144   72   74 am   BACKBONE|DICT|INTERRES
   145   74   75 1    
   146   74  195 1    
   147   75   76 1    
   148   75   77 1    
   149   75  196 1    
   150   76  197 1    
   151   76  198 1    
   152   76  199 1    
   153   77   78 2    
   154   77   79 am   BACKBONE|DICT|INTERRES
   155   79   80 1    
   156   79  200 1    
   157   80   81 1    
   158   80   82 1    
   159   80  201 1    
   160   81  202 1    
   161   81  203 1    
   162   81  204 1    
   163   82   83 2    
   164   82   84 am   BACKBONE|DICT|INTERRES
   165   84   85 1    
   166   84  205 1    
   167   85   86 1    
   168   85   87 1    
   169   85  206 1    
   170   86  207 1    
   171   86  208 1    
   172   86  209 1    
   173   87   88 2    
   174   87   89 am   BACKBONE|DICT|INTERRES
   175   89   90 1    
   176   89  210 1    
   177   90   91 1    
   178   90   92 1    
   179   90  211 1    
   180   91  212 1    
   181   91  213 1    
   182   91  214 1    
   183   92   93 2    
   184   92   94 am   BACKBONE|DICT|INTERRES
   185   94   95 1    
   186   94  215 1    
   187   95   96 1    
   188   95   97 1    
   189   95  216 1    
   190   96  217 1    
   191   96  218 1    
   192   96  219 1    
   193   97   98 2    
   194   97   99 am   BACKBONE|DICT|INTERRES
   195   99  100 1    
   196   99  220 1    
   197  100  101 1    
   198  100  102 1    
   199  100  221 1    
   200  101  222 1    
   201  101  223 1    
   202  101  224 1    
   203  102  103 2    
   204  102  104 am   BACKBONE|DICT|INTERRES
   205  104  105 1    
   206  104  225 1    
   207  105  106 1    
   208  105  107 1    
   209  105  226 1    
   210  106  227 1    
   211  106  228 1    
   212  106  229 1    
   213  107  108 2    
   214  107  109 am   BACKBONE|DICT|INTERRES
   215  109  110 1    
   216  109  230 1    
   217  110  111 1    
   218  110  112 1    
   219  110  231 1    
   220  111  232 1    
   221  111  233 1    
   222  111  234 1    
   223  112  113 2    
   224  112  114 am   BACKBONE|DICT|INTERRES
   225  114  115 1    
   226  114  235 1    
   227  115  116 1    
   228  115  117 1    
   229  115  236 1    
   230  116  237 1    
   231  116  238 1    
   232  116  239 1    
   233  117  118 2    
   234  117  119 am   BACKBONE|DICT|INTERRES
   235  119  120 1    
   236  119  240 1    
   237  120  121 1    
   238  120  124 1    
   239  120  241 1    
   240  121  122 am   BACKBONE|DICT|INTERRES
   241  121  123 2    
   242  122  242 1    
   243  122  243 1    
   244  124  125 1    
   245  124  244 1    
   246  124  245 1    
   247  125  126 1    
   248  126  246 1    
   249  126  247 1    
@<TRIPOS>SUBSTRUCTURE
     1 UNK         1 GROUP             0       ****    0 ROOT    
