@<TRIPOS>MOLECULE
3R540
247   249    1
SMALL
USER_CHARGES


@<TRIPOS>ATOM
      1 CA         -4.1031  -11.7887  -49.2781 C.3       0 UNK        -0.1800 
      2 C          -3.4433  -13.1586  -49.3473 C.2       0 UNK         0.5000 
      3 O          -2.4059  -13.3045  -49.9929 O.2       0 UNK        -0.5000 
      4 N          -4.0425  -14.1589  -48.6867 N.am      1 UNK        -0.5000 
      5 CA         -3.5368  -15.5353  -48.6025 C.3       1 UNK         0.1400 
      6 C6         -4.6145  -16.4914  -48.0238 C.3       23 UNK        -0.0398 
      7 S7         -4.3858  -18.2376  -48.4987 S.3       23 UNK        -0.2404 
      8 C8         -5.7377  -19.0070  -47.5542 C.3       23 UNK        -0.0205 
      9 C9         -6.0667  -20.3987  -48.0718 C.ar      23 UNK        -0.0193 
     10 C10        -6.9437  -20.5501  -49.1508 C.ar      23 UNK        -0.1150 
     11 C11        -7.2806  -21.8228  -49.6186 C.ar      23 UNK        -0.0193 
     12 C12        -6.7253  -22.9477  -49.0033 C.ar      23 UNK        -0.1150 
     13 C13        -5.8515  -22.8142  -47.9197 C.ar      23 UNK        -0.0193 
     14 C14        -5.5292  -21.5338  -47.4550 C.ar      23 UNK        -0.1150 
     15 C15        -5.3065  -24.0625  -47.2353 C.3       23 UNK        -0.0205 
     16 S16        -3.5036  -24.2579  -47.4320 S.3       23 UNK        -0.2404 
     17 C17        -2.8745  -23.4538  -45.9182 C.3       23 UNK        -0.0398 
     18 CA         -2.0300  -22.1928  -46.2170 C.3       11 UNK         0.1400 
     19 N          -2.1723  -21.1903  -45.1619 N.am      11 UNK        -0.5000 
     20 C          -1.7689  -19.9177  -45.2584 C.2       10 UNK         0.5000 
     21 O          -1.1058  -19.5010  -46.2058 O.2       10 UNK        -0.5000 
     22 CA         -2.1226  -18.9425  -44.1165 C.3       10 UNK         0.1400 
     23 CB         -3.0064  -17.7854  -44.6168 C.3       10 UNK        -0.1800 
     24 N          -2.6984  -19.5626  -42.9184 N.am      10 UNK        -0.5000 
     25 C          -3.8954  -20.1422  -42.7522 C.2       9 UNK         0.5000 
     26 O          -4.7647  -20.2092  -43.6217 O.2       9 UNK        -0.5000 
     27 CA         -4.0958  -20.8240  -41.3826 C.3       9 UNK         0.1400 
     28 CB         -5.3818  -21.6736  -41.3070 C.3       9 UNK        -0.1800 
     29 N          -2.9182  -21.6157  -40.9992 N.am      9 UNK        -0.5000 
     30 C          -2.3837  -22.6372  -41.6871 C.2       8 UNK         0.5000 
     31 O          -2.8647  -23.0900  -42.7266 O.2       8 UNK        -0.5000 
     32 CA         -1.0565  -23.1993  -41.1391 C.3       8 UNK         0.1400 
     33 CB         -0.4422  -24.2766  -42.0547 C.3       8 UNK        -0.1800 
     34 N          -0.0774  -22.1437  -40.8492 N.am      8 UNK        -0.5000 
     35 C           0.4141  -21.2292  -41.6988 C.2       7 UNK         0.5000 
     36 O           0.1323  -21.1622  -42.8977 O.2       7 UNK        -0.5000 
     37 CA          1.3984  -20.2098  -41.0937 C.3       7 UNK         0.1400 
     38 CB          2.7918  -20.3699  -41.7221 C.3       7 UNK        -0.1800 
     39 N           0.9739  -18.8156  -41.2436 N.am      7 UNK        -0.5000 
     40 C          -0.2139  -18.2884  -40.9112 C.2       6 UNK         0.5000 
     41 O          -1.1603  -18.9560  -40.4904 O.2       6 UNK        -0.5000 
     42 CA         -0.3764  -16.7587  -41.0627 C.3       6 UNK         0.1400 
     43 CB         -1.1144  -16.1510  -39.8578 C.3       6 UNK        -0.1800 
     44 N           0.9089  -16.0691  -41.2208 N.am      6 UNK        -0.5000 
     45 C           1.4778  -15.7769  -42.3948 C.2       5 UNK         0.5000 
     46 O           0.9598  -16.0259  -43.4824 O.2       5 UNK        -0.5000 
     47 CA          2.8786  -15.1540  -42.3408 C.3       5 UNK         0.1400 
     48 CB          3.9182  -16.2197  -41.9345 C.3       5 UNK        -0.1800 
     49 N           3.2100  -14.6014  -43.6520 N.am      5 UNK        -0.5000 
     50 C           4.2335  -13.7789  -43.9132 C.2       4 UNK         0.5000 
     51 O           4.9926  -13.3359  -43.0502 O.2       4 UNK        -0.5000 
     52 CA          4.4574  -13.3885  -45.3838 C.3       4 UNK         0.1400 
     53 CB          5.2277  -14.4956  -46.1208 C.3       4 UNK        -0.1800 
     54 N           3.2046  -13.1320  -46.0885 N.am      4 UNK        -0.5000 
     55 C           2.5197  -11.9842  -46.0585 C.2       3 UNK         0.5000 
     56 O           2.8751  -10.9923  -45.4209 O.2       3 UNK        -0.5000 
     57 CA          1.2174  -11.9316  -46.8842 C.3       3 UNK         0.1400 
     58 CB          1.4823  -12.1344  -48.3895 C.3       3 UNK        -0.1800 
     59 N           0.1701  -12.8396  -46.4020 N.am      3 UNK        -0.5000 
     60 C           0.1922  -14.1784  -46.3254 C.2       2 UNK         0.5000 
     61 O           1.1373  -14.8793  -46.6901 O.2       2 UNK        -0.5000 
     62 CA         -1.0631  -14.8360  -45.7281 C.3       2 UNK         0.1400 
     63 CB         -1.5337  -14.1359  -44.4375 C.3       2 UNK        -0.1800 
     64 N          -2.1751  -14.8715  -46.6759 N.am      2 UNK        -0.5000 
     65 C          -2.2208  -15.6078  -47.7969 C.2       1 UNK         0.5000 
     66 O          -1.2952  -16.3073  -48.2019 O.2       1 UNK        -0.5000 
     67 C          -0.5620  -22.5534  -46.5198 C.2       11 UNK         0.5000 
     68 O          -0.2209  -22.7381  -47.6883 O.2       11 UNK        -0.5000 
     69 N           0.2909  -22.6249  -45.4862 N.am      12 UNK        -0.5000 
     70 CA          1.7145  -22.9346  -45.6464 C.3       12 UNK         0.1400 
     71 CB          2.3169  -23.4345  -44.3258 C.3       12 UNK        -0.1800 
     72 C           2.5005  -21.7334  -46.1913 C.2       12 UNK         0.5000 
     73 O           3.3929  -21.9222  -47.0181 O.2       12 UNK        -0.5000 
     74 N           2.1179  -20.5186  -45.7720 N.am      13 UNK        -0.5000 
     75 CA          2.6477  -19.2605  -46.3058 C.3       13 UNK         0.1400 
     76 CB          2.1582  -18.0932  -45.4418 C.3       13 UNK        -0.1800 
     77 C           2.2699  -19.0531  -47.7857 C.2       13 UNK         0.5000 
     78 O           3.0869  -18.5609  -48.5638 O.2       13 UNK        -0.5000 
     79 N           1.0652  -19.5059  -48.1543 N.am      14 UNK        -0.5000 
     80 CA          0.5517  -19.5575  -49.5200 C.3       14 UNK         0.1400 
     81 CB         -0.9800  -19.6107  -49.4629 C.3       14 UNK        -0.1800 
     82 C           1.0941  -20.7395  -50.3516 C.2       14 UNK         0.5000 
     83 O           0.6457  -20.9096  -51.4854 O.2       14 UNK        -0.5000 
     84 N           2.0146  -21.5430  -49.7957 N.am      15 UNK        -0.5000 
     85 CA          2.6698  -22.6999  -50.4164 C.3       15 UNK         0.1400 
     86 CB          3.5682  -22.2478  -51.5877 C.3       15 UNK        -0.1800 
     87 C           1.6682  -23.8031  -50.8155 C.2       15 UNK         0.5000 
     88 O           1.6509  -24.2411  -51.9660 O.2       15 UNK        -0.5000 
     89 N           0.8211  -24.1992  -49.8547 N.am      16 UNK        -0.5000 
     90 CA         -0.3147  -25.1187  -49.9976 C.3       16 UNK         0.1400 
     91 CB          0.1456  -26.5349  -50.4025 C.3       16 UNK        -0.1800 
     92 C          -1.4013  -24.5329  -50.9217 C.2       16 UNK         0.5000 
     93 O          -1.9703  -25.2446  -51.7505 O.2       16 UNK        -0.5000 
     94 N          -1.6302  -23.2210  -50.7648 N.am      17 UNK        -0.5000 
     95 CA         -2.5579  -22.3589  -51.5050 C.3       17 UNK         0.1400 
     96 CB         -4.0046  -22.8637  -51.3785 C.3       17 UNK        -0.1800 
     97 C          -2.1720  -22.0870  -52.9746 C.2       17 UNK         0.5000 
     98 O          -2.9065  -21.3721  -53.6587 O.2       17 UNK        -0.5000 
     99 N          -1.0308  -22.6133  -53.4404 N.am      18 UNK        -0.5000 
    100 CA        -0.5493  -22.4790  -54.8156 C.3       18 UNK         0.1400 
    101 CB         0.6338  -23.4323  -55.0364 C.3       18 UNK        -0.1800 
    102 C         -0.1550  -21.0400  -55.1935 C.2       18 UNK         0.5000 
    103 O         -0.3754  -20.6379  -56.3364 O.2       18 UNK        -0.5000 
    104 N          0.4058  -20.2880  -54.2363 N.am      19 UNK        -0.5000 
    105 CA         0.7850  -18.8862  -54.4192 C.3       19 UNK         0.1400 
    106 CB         1.8883  -18.5152  -53.4164 C.3       19 UNK        -0.1800 
    107 C         -0.4195  -17.9389  -54.2765 C.2       19 UNK         0.5000 
    108 O         -0.4194  -16.8693  -54.8869 O.2       19 UNK        -0.5000 
    109 N         -1.4225  -18.3443  -53.4838 N.am      20 UNK        -0.5000 
    110 CA        -2.6797  -17.6146  -53.3152 C.3       20 UNK         0.1400 
    111 CB        -3.3836  -18.0713  -52.0285 C.3       20 UNK        -0.1800 
    112 C         -3.6086  -17.7781  -54.5296 C.2       20 UNK         0.5000 
    113 O         -4.2459  -16.8042  -54.9317 O.2       20 UNK        -0.5000 
    114 N         -3.6571  -19.0010  -55.0837 N.am      21 UNK        -0.5000 
    115 CA        -4.4896  -19.4331  -56.2110 C.3       21 UNK         0.1400 
    116 CB        -4.0279  -18.7618  -57.5209 C.3       21 UNK        -0.1800 
    117 C         -5.9904  -19.2364  -55.9134 C.2       21 UNK         0.5000 
    118 O         -6.7042  -18.5871  -56.6803 O.2       21 UNK        -0.5000 
    119 N         -6.4204  -19.7710  -54.7634 N.am      22 UNK        -0.5000 
    120 CA        -7.7640  -19.5947  -54.1883 C.3       22 UNK         0.1400 
    121 C         -8.9458  -20.2409  -54.9758 C.2       22 UNK         0.5000 
    122 N         -8.7044  -21.1045  -55.9546 N.am      22 UNK        -0.7600 
    123 O        -10.1041  -19.9421  -54.6976 O.2       22 UNK        -0.5000 
    124 C124       -7.7805  -19.9802  -52.6857 C.3       23 UNK        -0.0398 
    125 S125       -7.4903  -21.7609  -52.3866 S.3       23 UNK        -0.2404 
    126 C126       -8.2723  -21.9938  -50.7605 C.3       23 UNK        -0.0205 
    127 H127       -4.3654  -11.4477  -50.2796 H         1 UNK         0.0600 
    128 H128       -5.0116  -11.8049  -48.6756 H         1 UNK         0.0600 
    129 H129       -3.4169  -11.0643  -48.8391 H         1 UNK         0.0600 
    130 H130       -4.9010  -13.9707  -48.1887 H         1 UNK         0.3000 
    131 H131       -3.3143  -15.8513  -49.6242 H         1 UNK         0.0600 
    132 H132       -4.6756  -16.4140  -46.9367 H         1 UNK         0.0800 
    133 H133       -5.5974  -16.2009  -48.3979 H         1 UNK         0.0800 
    134 H134       -6.6296  -18.3814  -47.6135 H         1 UNK         0.0800 
    135 H135       -5.4637  -19.0519  -46.4994 H         1 UNK         0.0800 
    136 H136       -7.3719  -19.6757  -49.6198 H         1 UNK         0.1150 
    137 H137       -6.9872  -23.9331  -49.3625 H         1 UNK         0.1150 
    138 H138       -4.8698  -21.4176  -46.6070 H         1 UNK         0.1150 
    139 H139       -5.5866  -24.0552  -46.1815 H         1 UNK         0.0800 
    140 H140       -5.7791  -24.9525  -47.6535 H         1 UNK         0.0800 
    141 H141       -3.7260  -23.1871  -45.2917 H         1 UNK         0.0800 
    142 H142       -2.3141  -24.1844  -45.3313 H         1 UNK         0.0800 
    143 H143       -2.4294  -21.7253  -47.1199 H         1 UNK         0.0600 
    144 H144       -2.6583  -21.4827  -44.3239 H         1 UNK         0.3000 
    145 H145       -1.1700  -18.5126  -43.8037 H         1 UNK         0.0600 
    146 H146       -3.1031  -17.0071  -43.8609 H         1 UNK         0.0600 
    147 H147       -2.5757  -17.3338  -45.5067 H         1 UNK         0.0600 
    148 H148       -4.0071  -18.1143  -44.8904 H         1 UNK         0.0600 
    149 H149       -2.0715  -19.6004  -42.1207 H         1 UNK         0.3000 
    150 H150       -4.1843  -20.0212  -40.6490 H         1 UNK         0.0600 
    151 H151       -6.2650  -21.0579  -41.4810 H         1 UNK         0.0600 
    152 H152       -5.4940  -22.1315  -40.3244 H         1 UNK         0.0600 
    153 H153       -5.3891  -22.4704  -42.0513 H         1 UNK         0.0600 
    154 H154       -2.4125  -21.2753  -40.1923 H         1 UNK         0.3000 
    155 H155       -1.2929  -23.6740  -40.1858 H         1 UNK         0.0600 
    156 H156        0.5142  -24.6292  -41.6689 H         1 UNK         0.0600 
    157 H157       -0.2829  -23.9014  -43.0639 H         1 UNK         0.0600 
    158 H158       -1.1017  -25.1416  -42.1327 H         1 UNK         0.0600 
    159 H159        0.2181  -22.0942  -39.8842 H         1 UNK         0.3000 
    160 H160        1.4871  -20.4014  -40.0227 H         1 UNK         0.0600 
    161 H161        2.7783  -20.1599  -42.7923 H         1 UNK         0.0600 
    162 H162        3.1648  -21.3866  -41.5918 H         1 UNK         0.0600 
    163 H163        3.5155  -19.6993  -41.2584 H         1 UNK         0.0600 
    164 H164        1.6679  -18.1834  -41.6099 H         1 UNK         0.3000 
    165 H165       -0.9956  -16.5925  -41.9469 H         1 UNK         0.0600 
    166 H166       -0.5742  -16.3235  -38.9262 H         1 UNK         0.0600 
    167 H167       -1.2428  -15.0751  -39.9775 H         1 UNK         0.0600 
    168 H168       -2.1102  -16.5819  -39.7458 H         1 UNK         0.0600 
    169 H169        1.4031  -15.8503  -40.3669 H         1 UNK         0.3000 
    170 H170        2.8671  -14.3460  -41.6066 H         1 UNK         0.0600 
    171 H171        3.6766  -16.6652  -40.9689 H         1 UNK         0.0600 
    172 H172        3.9706  -17.0272  -42.6659 H         1 UNK         0.0600 
    173 H173        4.9162  -15.7916  -41.8422 H         1 UNK         0.0600 
    174 H174        2.5921  -14.9008  -44.3972 H         1 UNK         0.3000 
    175 H175        5.0670  -12.4825  -45.4029 H         1 UNK         0.0600 
    176 H176        4.6602  -15.4265  -46.1587 H         1 UNK         0.0600 
    177 H177        5.4555  -14.2009  -47.1453 H         1 UNK         0.0600 
    178 H178        6.1760  -14.7082  -45.6254 H         1 UNK         0.0600 
    179 H179        2.7669  -13.9164  -46.5644 H         1 UNK         0.3000 
    180 H180        0.8139  -10.9250  -46.7635 H         1 UNK         0.0600 
    181 H181        2.2135  -11.4131  -48.7562 H         1 UNK         0.0600 
    182 H182        1.8672  -13.1299  -48.6119 H         1 UNK         0.0600 
    183 H183        0.5694  -11.9958  -48.9692 H         1 UNK         0.0600 
    184 H184       -0.6560  -12.3762  -46.0521 H         1 UNK         0.3000 
    185 H185       -0.7912  -15.8629  -45.4772 H         1 UNK         0.0600 
    186 H186       -1.9841  -13.1631  -44.6365 H         1 UNK         0.0600 
    187 H187       -2.2738  -14.7395  -43.9132 H         1 UNK         0.0600 
    188 H188       -0.7052  -13.9755  -43.7473 H         1 UNK         0.0600 
    189 H189       -2.9722  -14.2945  -46.4537 H         1 UNK         0.3000 
    190 H190       -0.0241  -22.3586  -44.5586 H         1 UNK         0.3000 
    191 H191        1.8117  -23.7441  -46.3734 H         1 UNK         0.0600 
    192 H192        3.3811  -23.6450  -44.4398 H         1 UNK         0.0600 
    193 H193        1.8423  -24.3600  -44.0020 H         1 UNK         0.0600 
    194 H194        2.2158  -22.7019  -43.5278 H         1 UNK         0.0600 
    195 H195        1.3555  -20.4539  -45.1116 H         1 UNK         0.3000 
    196 H196        3.7371  -19.2981  -46.2406 H         1 UNK         0.0600 
    197 H197        2.5809  -17.1488  -45.7862 H         1 UNK         0.0600 
    198 H198        2.4532  -18.2205  -44.4008 H         1 UNK         0.0600 
    199 H199        1.0726  -17.9928  -45.4736 H         1 UNK         0.0600 
    200 H200        0.4211  -19.8061  -47.4287 H         1 UNK         0.3000 
    201 H201        0.8391  -18.6368  -50.0307 H         1 UNK         0.0600 
    202 H202       -1.3844  -18.7936  -48.8688 H         1 UNK         0.0600 
    203 H203       -1.3380  -20.5426  -49.0260 H         1 UNK         0.0600 
    204 H204       -1.4033  -19.5196  -50.4609 H         1 UNK         0.0600 
    205 H205        2.3048  -21.3433  -48.8470 H         1 UNK         0.3000 
    206 H206        3.3175  -23.1335  -49.6532 H         1 UNK         0.0600 
    207 H207        4.2789  -21.4861  -51.2671 H         1 UNK         0.0600 
    208 H208        4.1451  -23.0853  -51.9814 H         1 UNK         0.0600 
    209 H209        2.9870  -21.8364  -52.4137 H         1 UNK         0.0600 
    210 H210        0.8393  -23.7000  -48.9696 H         1 UNK         0.3000 
    211 H211       -0.7693  -25.1953  -49.0088 H         1 UNK         0.0600 
    212 H212        0.5395  -26.5632  -51.4186 H         1 UNK         0.0600 
    213 H213       -0.6856  -27.2394  -50.3579 H         1 UNK         0.0600 
    214 H214        0.9202  -26.9045  -49.7308 H         1 UNK         0.0600 
    215 H215       -1.0780  -22.7512  -50.0600 H         1 UNK         0.3000 
    216 H216       -2.5240  -21.3936  -51.0057 H         1 UNK         0.0600 
    217 H217       -4.1832  -23.7571  -51.9769 H         1 UNK         0.0600 
    218 H218       -4.7045  -22.0989  -51.7121 H         1 UNK         0.0600 
    219 H219       -4.2485  -23.0961  -50.3432 H         1 UNK         0.0600 
    220 H220       -0.4508  -23.1465  -52.8069 H         1 UNK         0.3000 
    221 H221       -1.3598  -22.7852  -55.4802 H         1 UNK         0.0600 
    222 H222        1.4922  -23.1537  -54.4240 H         1 UNK         0.0600 
    223 H223        0.3662  -24.4604  -54.7912 H         1 UNK         0.0600 
    224 H224        0.9569  -23.4182  -56.0780 H         1 UNK         0.0600 
    225 H225        0.5342  -20.6789  -53.3041 H         1 UNK         0.3000 
    226 H226        1.1931  -18.7604  -55.4244 H         1 UNK         0.0600 
    227 H227        2.7270  -19.2093  -53.4732 H         1 UNK         0.0600 
    228 H228        2.2762  -17.5166  -53.6205 H         1 UNK         0.0600 
    229 H229        1.5200  -18.5154  -52.3913 H         1 UNK         0.0600 
    230 H230       -1.3476  -19.2483  -53.0425 H         1 UNK         0.3000 
    231 H231       -2.4545  -16.5509  -53.2109 H         1 UNK         0.0600 
    232 H232       -3.5593  -19.1474  -52.0159 H         1 UNK         0.0600 
    233 H233       -2.7935  -17.8114  -51.1507 H         1 UNK         0.0600 
    234 H234       -4.3519  -17.5815  -51.9160 H         1 UNK         0.0600 
    235 H235       -3.1467  -19.7501  -54.6235 H         1 UNK         0.3000 
    236 H236       -4.3312  -20.5073  -56.3179 H         1 UNK         0.0600 
    237 H237       -2.9690  -18.9464  -57.7031 H         1 UNK         0.0600 
    238 H238       -4.5788  -19.1561  -58.3755 H         1 UNK         0.0600 
    239 H239       -4.1813  -17.6824  -57.5030 H         1 UNK         0.0600 
    240 H240       -5.7694  -20.3031  -54.2037 H         1 UNK         0.3000 
    241 H241       -7.9613  -18.5217  -54.2293 H         1 UNK         0.0600 
    242 H242       -7.7584  -21.3566  -56.1907 H         1 UNK         0.3800 
    243 H243       -9.4748  -21.5122  -56.4606 H         1 UNK         0.3800 
    244 H244       -8.7330  -19.6867  -52.2419 H         1 UNK         0.0800 
    245 H245       -7.0175  -19.4145  -52.1491 H         1 UNK         0.0800 
    246 H246       -8.7022  -22.9961  -50.7301 H         1 UNK         0.0800 
    247 H247       -9.1120  -21.3095  -50.6336 H         1 UNK         0.0800 
@<TRIPOS>BOND
     1    1    2 1    
     2    1  127 1    
     3    1  128 1    
     4    1  129 1    
     5    2    3 2    
     6    2    4 am   BACKBONE|DICT|INTERRES
     7    4    5 1    
     8    4  130 1    
     9    5    6 1    
    10    5   65 1    
    11    5  131 1    
    12    6    7 1    
    13    6  132 1    
    14    6  133 1    
    15    7    8 1    
    16    8    9 1    
    17    8  134 1    
    18    8  135 1    
    19    9   10 ar   
    20    9   14 ar   
    21   10   11 ar   
    22   10  136 1    
    23   11   12 ar   
    24   11  126 1    
    25   12   13 ar   
    26   12  137 1    
    27   13   14 ar   
    28   13   15 1    
    29   14  138 1    
    30   15   16 1    
    31   15  139 1    
    32   15  140 1    
    33   16   17 1    
    34   17   18 1    
    35   17  141 1    
    36   17  142 1    
    37   18   19 1    
    38   18   67 1    
    39   18  143 1    
    40   19   20 am   BACKBONE|DICT|INTERRES
    41   19  144 1    
    42   20   21 2    
    43   20   22 1    
    44   22   23 1    
    45   22   24 1    
    46   22  145 1    
    47   23  146 1    
    48   23  147 1    
    49   23  148 1    
    50   24   25 am   BACKBONE|DICT|INTERRES
    51   24  149 1    
    52   25   26 2    
    53   25   27 1    
    54   27   28 1    
    55   27   29 1    
    56   27  150 1    
    57   28  151 1    
    58   28  152 1    
    59   28  153 1    
    60   29   30 am   BACKBONE|DICT|INTERRES
    61   29  154 1    
    62   30   31 2    
    63   30   32 1    
    64   32   33 1    
    65   32   34 1    
    66   32  155 1    
    67   33  156 1    
    68   33  157 1    
    69   33  158 1    
    70   34   35 am   BACKBONE|DICT|INTERRES
    71   34  159 1    
    72   35   36 2    
    73   35   37 1    
    74   37   38 1    
    75   37   39 1    
    76   37  160 1    
    77   38  161 1    
    78   38  162 1    
    79   38  163 1    
    80   39   40 am   BACKBONE|DICT|INTERRES
    81   39  164 1    
    82   40   41 2    
    83   40   42 1    
    84   42   43 1    
    85   42   44 1    
    86   42  165 1    
    87   43  166 1    
    88   43  167 1    
    89   43  168 1    
    90   44   45 am   BACKBONE|DICT|INTERRES
    91   44  169 1    
    92   45   46 2    
    93   45   47 1    
    94   47   48 1    
    95   47   49 1    
    96   47  170 1    
    97   48  171 1    
    98   48  172 1    
    99   48  173 1    
   100   49   50 am   BACKBONE|DICT|INTERRES
   101   49  174 1    
   102   50   51 2    
   103   50   52 1    
   104   52   53 1    
   105   52   54 1    
   106   52  175 1    
   107   53  176 1    
   108   53  177 1    
   109   53  178 1    
   110   54   55 am   BACKBONE|DICT|INTERRES
   111   54  179 1    
   112   55   56 2    
   113   55   57 1    
   114   57   58 1    
   115   57   59 1    
   116   57  180 1    
   117   58  181 1    
   118   58  182 1    
   119   58  183 1    
   120   59   60 am   BACKBONE|DICT|INTERRES
   121   59  184 1    
   122   60   61 2    
   123   60   62 1    
   124   62   63 1    
   125   62   64 1    
   126   62  185 1    
   127   63  186 1    
   128   63  187 1    
   129   63  188 1    
   130   64   65 am   BACKBONE|DICT|INTERRES
   131   64  189 1    
   132   65   66 2    
   133   67   68 2    
   134   67   69 am   BACKBONE|DICT|INTERRES
   135   69   70 1    
   136   69  190 1    
   137   70   71 1    
   138   70   72 1    
   139   70  191 1    
   140   71  192 1    
   141   71  193 1    
   142   71  194 1    
   143   72   73 2    
   144   72   74 am   BACKBONE|DICT|INTERRES
   145   74   75 1    
   146   74  195 1    
   147   75   76 1    
   148   75   77 1    
   149   75  196 1    
   150   76  197 1    
   151   76  198 1    
   152   76  199 1    
   153   77   78 2    
   154   77   79 am   BACKBONE|DICT|INTERRES
   155   79   80 1    
   156   79  200 1    
   157   80   81 1    
   158   80   82 1    
   159   80  201 1    
   160   81  202 1    
   161   81  203 1    
   162   81  204 1    
   163   82   83 2    
   164   82   84 am   BACKBONE|DICT|INTERRES
   165   84   85 1    
   166   84  205 1    
   167   85   86 1    
   168   85   87 1    
   169   85  206 1    
   170   86  207 1    
   171   86  208 1    
   172   86  209 1    
   173   87   88 2    
   174   87   89 am   BACKBONE|DICT|INTERRES
   175   89   90 1    
   176   89  210 1    
   177   90   91 1    
   178   90   92 1    
   179   90  211 1    
   180   91  212 1    
   181   91  213 1    
   182   91  214 1    
   183   92   93 2    
   184   92   94 am   BACKBONE|DICT|INTERRES
   185   94   95 1    
   186   94  215 1    
   187   95   96 1    
   188   95   97 1    
   189   95  216 1    
   190   96  217 1    
   191   96  218 1    
   192   96  219 1    
   193   97   98 2    
   194   97   99 am   BACKBONE|DICT|INTERRES
   195   99  100 1    
   196   99  220 1    
   197  100  101 1    
   198  100  102 1    
   199  100  221 1    
   200  101  222 1    
   201  101  223 1    
   202  101  224 1    
   203  102  103 2    
   204  102  104 am   BACKBONE|DICT|INTERRES
   205  104  105 1    
   206  104  225 1    
   207  105  106 1    
   208  105  107 1    
   209  105  226 1    
   210  106  227 1    
   211  106  228 1    
   212  106  229 1    
   213  107  108 2    
   214  107  109 am   BACKBONE|DICT|INTERRES
   215  109  110 1    
   216  109  230 1    
   217  110  111 1    
   218  110  112 1    
   219  110  231 1    
   220  111  232 1    
   221  111  233 1    
   222  111  234 1    
   223  112  113 2    
   224  112  114 am   BACKBONE|DICT|INTERRES
   225  114  115 1    
   226  114  235 1    
   227  115  116 1    
   228  115  117 1    
   229  115  236 1    
   230  116  237 1    
   231  116  238 1    
   232  116  239 1    
   233  117  118 2    
   234  117  119 am   BACKBONE|DICT|INTERRES
   235  119  120 1    
   236  119  240 1    
   237  120  121 1    
   238  120  124 1    
   239  120  241 1    
   240  121  122 am   BACKBONE|DICT|INTERRES
   241  121  123 2    
   242  122  242 1    
   243  122  243 1    
   244  124  125 1    
   245  124  244 1    
   246  124  245 1    
   247  125  126 1    
   248  126  246 1    
   249  126  247 1    
@<TRIPOS>SUBSTRUCTURE
     1 UNK         1 GROUP             0       ****    0 ROOT    
