@<TRIPOS>MOLECULE
3R540
247   249    1
SMALL
USER_CHARGES


@<TRIPOS>ATOM
      1 CA         -0.8851  -11.1308  -43.6716 C.3       0 UNK        -0.1800 
      2 C           0.5089  -10.9690  -44.2614 C.2       0 UNK         0.5000 
      3 O           1.3180  -10.2163  -43.7183 O.2       0 UNK        -0.5000 
      4 N           0.7843  -11.6497  -45.3813 N.am      1 UNK        -0.5000 
      5 CA          2.0705  -11.6204  -46.0801 C.3       1 UNK         0.1400 
      6 C6          1.9569  -12.1579  -47.5297 C.3       23 UNK        -0.0398 
      7 S7          1.3670  -13.8813  -47.6707 S.3       23 UNK        -0.2404 
      8 C8          1.5768  -14.1398  -49.4610 C.3       23 UNK        -0.0205 
      9 C9          1.3344  -15.5836  -49.8819 C.ar      23 UNK        -0.0193 
     10 C10         0.4043  -15.8833  -50.8843 C.ar      23 UNK        -0.1150 
     11 C11         0.2313  -17.2000  -51.3254 C.ar      23 UNK        -0.0193 
     12 C12         0.9958  -18.2173  -50.7485 C.ar      23 UNK        -0.1150 
     13 C13         1.8880  -17.9411  -49.7105 C.ar      23 UNK        -0.0193 
     14 C14         2.0723  -16.6196  -49.3006 C.ar      23 UNK        -0.1150 
     15 C15         2.6310  -19.0760  -49.0217 C.3       23 UNK        -0.0205 
     16 S16         1.7115  -19.7000  -47.5749 S.3       23 UNK        -0.2404 
     17 C17         0.1389  -20.2155  -48.3395 C.3       23 UNK        -0.0398 
     18 CA         -0.6551  -21.2185  -47.4786 C.3       11 UNK         0.1400 
     19 N          -1.0514  -20.6563  -46.1854 N.am      11 UNK        -0.5000 
     20 C          -1.5080  -21.3762  -45.1525 C.2       10 UNK         0.5000 
     21 O          -1.6070  -22.6029  -45.1641 O.2       10 UNK        -0.5000 
     22 CA         -1.9916  -20.5811  -43.9272 C.3       10 UNK         0.1400 
     23 CB         -0.8022  -20.1219  -43.0691 C.3       10 UNK        -0.1800 
     24 N          -2.7994  -19.4229  -44.3152 N.am      10 UNK        -0.5000 
     25 C          -4.0080  -19.5111  -44.8929 C.2       9 UNK         0.5000 
     26 O          -4.5807  -20.5799  -45.1014 O.2       9 UNK        -0.5000 
     27 CA         -4.6808  -18.2021  -45.3555 C.3       9 UNK         0.1400 
     28 CB         -5.6007  -17.6579  -44.2530 C.3       9 UNK        -0.1800 
     29 N          -3.7392  -17.1545  -45.7474 N.am      9 UNK        -0.5000 
     30 C          -2.7970  -17.2558  -46.6957 C.2       8 UNK         0.5000 
     31 O          -2.6594  -18.2415  -47.4201 O.2       8 UNK        -0.5000 
     32 CA         -1.7986  -16.0858  -46.8050 C.3       8 UNK         0.1400 
     33 CB         -2.2315  -15.1249  -47.9218 C.3       8 UNK        -0.1800 
     34 N          -1.6069  -15.3179  -45.5649 N.am      8 UNK        -0.5000 
     35 C          -1.2461  -15.8188  -44.3745 C.2       7 UNK         0.5000 
     36 O          -1.1356  -17.0247  -44.1375 O.2       7 UNK        -0.5000 
     37 CA         -0.9946  -14.8089  -43.2504 C.3       7 UNK         0.1400 
     38 CB         -2.3278  -14.3401  -42.6369 C.3       7 UNK        -0.1800 
     39 N          -0.1664  -15.4560  -42.2408 N.am      7 UNK        -0.5000 
     40 C           0.4945  -14.8519  -41.2484 C.2       6 UNK         0.5000 
     41 O           0.4833  -13.6359  -41.0548 O.2       6 UNK        -0.5000 
     42 CA          1.3156  -15.7660  -40.3234 C.3       6 UNK         0.1400 
     43 CB          0.5407  -17.0287  -39.9016 C.3       6 UNK        -0.1800 
     44 N           2.5531  -16.1629  -40.9854 N.am      6 UNK        -0.5000 
     45 C           3.6837  -15.4492  -41.0145 C.2       5 UNK         0.5000 
     46 O           3.8391  -14.3867  -40.4116 O.2       5 UNK        -0.5000 
     47 CA          4.8418  -16.0127  -41.8618 C.3       5 UNK         0.1400 
     48 CB          5.5003  -17.2314  -41.1872 C.3       5 UNK        -0.1800 
     49 N           4.4741  -16.2938  -43.2547 N.am      5 UNK        -0.5000 
     50 C           3.6182  -17.2051  -43.7418 C.2       4 UNK         0.5000 
     51 O           3.0316  -18.0321  -43.0420 O.2       4 UNK        -0.5000 
     52 CA          3.3253  -17.1644  -45.2537 C.3       4 UNK         0.1400 
     53 CB          1.8454  -16.8430  -45.4838 C.3       4 UNK        -0.1800 
     54 N           4.1249  -16.1607  -45.9549 N.am      4 UNK        -0.5000 
     55 C           5.2873  -16.4073  -46.5728 C.2       3 UNK         0.5000 
     56 O           5.7885  -17.5275  -46.6690 O.2       3 UNK        -0.5000 
     57 CA          6.0294  -15.1940  -47.1689 C.3       3 UNK         0.1400 
     58 CB          5.6820  -15.0332  -48.6566 C.3       3 UNK        -0.1800 
     59 N           5.7489  -13.9326  -46.4777 N.am      3 UNK        -0.5000 
     60 C           6.0484  -13.6650  -45.1981 C.2       2 UNK         0.5000 
     61 O           6.6253  -14.4558  -44.4526 O.2       2 UNK        -0.5000 
     62 CA          5.5817  -12.3066  -44.6416 C.3       2 UNK         0.1400 
     63 CB          6.7145  -11.2729  -44.7276 C.3       2 UNK        -0.1800 
     64 N           4.3933  -11.7758  -45.3161 N.am      2 UNK        -0.5000 
     65 C           3.1777  -12.3395  -45.2786 C.2       1 UNK         0.5000 
     66 O           2.9319  -13.3928  -44.6843 O.2       1 UNK        -0.5000 
     67 C          -1.8775  -21.7422  -48.2589 C.2       11 UNK         0.5000 
     68 O          -1.7763  -22.7714  -48.9253 O.2       11 UNK        -0.5000 
     69 N          -3.0169  -21.0468  -48.1373 N.am      12 UNK        -0.5000 
     70 CA         -4.3019  -21.4326  -48.7191 C.3       12 UNK         0.1400 
     71 CB         -5.3211  -20.3055  -48.4831 C.3       12 UNK        -0.1800 
     72 C          -4.8133  -22.7702  -48.1512 C.2       12 UNK         0.5000 
     73 O          -5.2291  -23.6379  -48.9210 O.2       12 UNK        -0.5000 
     74 N          -4.7292  -22.9240  -46.8216 N.am      13 UNK        -0.5000 
     75 CA         -5.0612  -24.1481  -46.0898 C.3       13 UNK         0.1400 
     76 CB         -5.0912  -23.8476  -44.5839 C.3       13 UNK        -0.1800 
     77 C          -4.0948  -25.3085  -46.3925 C.2       13 UNK         0.5000 
     78 O          -4.5307  -26.4577  -46.4626 O.2       13 UNK        -0.5000 
     79 N          -2.8115  -24.9858  -46.6094 N.am      14 UNK        -0.5000 
     80 CA         -1.7726  -25.9184  -47.0593 C.3       14 UNK         0.1400 
     81 CB         -0.3920  -25.3099  -46.7676 C.3       14 UNK        -0.1800 
     82 C          -1.8926  -26.3061  -48.5503 C.2       14 UNK         0.5000 
     83 O          -1.1578  -27.1860  -49.0006 O.2       14 UNK        -0.5000 
     84 N          -2.8094  -25.6534  -49.2786 N.am      15 UNK        -0.5000 
     85 CA         -3.1355  -25.8354  -50.6912 C.3       15 UNK         0.1400 
     86 CB         -3.6904  -27.2512  -50.9584 C.3       15 UNK        -0.1800 
     87 C          -1.9908  -25.4324  -51.6394 C.2       15 UNK         0.5000 
     88 O          -1.7375  -26.1234  -52.6287 O.2       15 UNK        -0.5000 
     89 N          -1.3345  -24.3015  -51.3403 N.am      16 UNK        -0.5000 
     90 CA         -0.4006  -23.6268  -52.2433 C.3       16 UNK         0.1400 
     91 CB          0.2520  -22.4426  -51.5165 C.3       16 UNK        -0.1800 
     92 C          -1.1390  -23.1517  -53.5083 C.2       16 UNK         0.5000 
     93 O          -2.1525  -22.4622  -53.3909 O.2       16 UNK        -0.5000 
     94 N          -0.6515  -23.5791  -54.6803 N.am      17 UNK        -0.5000 
     95 CA         -1.2770  -23.4914  -56.0078 C.3       17 UNK         0.1400 
     96 CB         -1.6088  -22.0413  -56.4154 C.3       17 UNK        -0.1800 
     97 C          -2.4955  -24.4269  -56.1510 C.2       17 UNK         0.5000 
     98 O          -2.5003  -25.2751  -57.0441 O.2       17 UNK        -0.5000 
     99 N          -3.4767  -24.2901  -55.2542 N.am      18 UNK        -0.5000 
    100 CA        -4.6419  -25.1543  -55.0984 C.3       18 UNK         0.1400 
    101 CB        -5.6515  -24.9276  -56.2413 C.3       18 UNK        -0.1800 
    102 C         -5.2712  -24.8882  -53.7222 C.2       18 UNK         0.5000 
    103 O         -4.9313  -23.8987  -53.0680 O.2       18 UNK        -0.5000 
    104 N         -6.1791  -25.7750  -53.2961 N.am      19 UNK        -0.5000 
    105 CA        -6.9109  -25.6778  -52.0312 C.3       19 UNK         0.1400 
    106 CB        -7.8223  -26.9046  -51.8765 C.3       19 UNK        -0.1800 
    107 C         -7.7168  -24.3693  -51.9303 C.2       19 UNK         0.5000 
    108 O         -8.5740  -24.1181  -52.7796 O.2       19 UNK        -0.5000 
    109 N         -7.3969  -23.5620  -50.9101 N.am      20 UNK        -0.5000 
    110 CA        -7.9739  -22.2527  -50.5903 C.3       20 UNK         0.1400 
    111 CB        -9.4911  -22.3588  -50.3286 C.3       20 UNK        -0.1800 
    112 C         -7.6319  -21.1254  -51.5935 C.2       20 UNK         0.5000 
    113 O         -8.1977  -20.0372  -51.4739 O.2       20 UNK        -0.5000 
    114 N         -6.7100  -21.3639  -52.5416 N.am      21 UNK        -0.5000 
    115 CA        -6.3911  -20.4384  -53.6377 C.3       21 UNK         0.1400 
    116 CB        -5.4446  -21.1208  -54.6336 C.3       21 UNK        -0.1800 
    117 C         -5.8012  -19.0902  -53.1857 C.2       21 UNK         0.5000 
    118 O         -6.1069  -18.0625  -53.7920 O.2       21 UNK        -0.5000 
    119 N         -4.9868  -19.1178  -52.1253 N.am      22 UNK        -0.5000 
    120 CA        -4.3743  -17.9267  -51.5113 C.3       22 UNK         0.1400 
    121 C         -5.3113  -17.1689  -50.5221 C.2       22 UNK         0.5000 
    122 N         -6.5564  -17.5863  -50.3173 N.am      22 UNK        -0.7600 
    123 O         -4.9076  -16.1682  -49.9382 O.2       22 UNK        -0.5000 
    124 C124       -2.9953  -18.2472  -50.8769 C.3       23 UNK        -0.0398 
    125 S125       -1.8239  -18.9514  -52.0851 S.3       23 UNK        -0.2404 
    126 C126       -0.7517  -17.5186  -52.4476 C.3       23 UNK        -0.0205 
    127 H127       -0.8219  -11.5846  -42.6827 H         1 UNK         0.0600 
    128 H128       -1.5226  -11.7547  -44.2979 H         1 UNK         0.0600 
    129 H129       -1.3637  -10.1570  -43.5688 H         1 UNK         0.0600 
    130 H130        0.0953  -12.2667  -45.7830 H         1 UNK         0.3000 
    131 H131        2.3586  -10.5695  -46.1579 H         1 UNK         0.0600 
    132 H132        1.2727  -11.5236  -48.0951 H         1 UNK         0.0800 
    133 H133        2.9196  -12.0734  -48.0368 H         1 UNK         0.0800 
    134 H134        2.5888  -13.8596  -49.7548 H         1 UNK         0.0800 
    135 H135        0.9027  -13.4656  -49.9915 H         1 UNK         0.0800 
    136 H136       -0.1687  -15.0874  -51.3388 H         1 UNK         0.1150 
    137 H137        0.8727  -19.2345  -51.0914 H         1 UNK         0.1150 
    138 H138        2.7827  -16.3977  -48.5179 H         1 UNK         0.1150 
    139 H139        2.8093  -19.8942  -49.7211 H         1 UNK         0.0800 
    140 H140        3.6136  -18.7323  -48.6941 H         1 UNK         0.0800 
    141 H141        0.3750  -20.6646  -49.3030 H         1 UNK         0.0800 
    142 H142       -0.4583  -19.3257  -48.5472 H         1 UNK         0.0800 
    143 H143       -0.0056  -22.0737  -47.2833 H         1 UNK         0.0600 
    144 H144       -1.0348  -19.6495  -46.1089 H         1 UNK         0.3000 
    145 H145       -2.6146  -21.2422  -43.3210 H         1 UNK         0.0600 
    146 H146       -1.1380  -19.5686  -42.1920 H         1 UNK         0.0600 
    147 H147       -0.2258  -20.9771  -42.7144 H         1 UNK         0.0600 
    148 H148       -0.1211  -19.4796  -43.6288 H         1 UNK         0.0600 
    149 H149       -2.3631  -18.5110  -44.2086 H         1 UNK         0.3000 
    150 H150       -5.2943  -18.4323  -46.2271 H         1 UNK         0.0600 
    151 H151       -6.3345  -18.4068  -43.9517 H         1 UNK         0.0600 
    152 H152       -6.1536  -16.7831  -44.5956 H         1 UNK         0.0600 
    153 H153       -5.0371  -17.3733  -43.3634 H         1 UNK         0.0600 
    154 H154       -3.7587  -16.3080  -45.1993 H         1 UNK         0.3000 
    155 H155       -0.8305  -16.5111  -47.0775 H         1 UNK         0.0600 
    156 H156       -3.2122  -14.6913  -47.7223 H         1 UNK         0.0600 
    157 H157       -1.5227  -14.3077  -48.0474 H         1 UNK         0.0600 
    158 H158       -2.2917  -15.6430  -48.8785 H         1 UNK         0.0600 
    159 H159       -1.7111  -14.3191  -45.6567 H         1 UNK         0.3000 
    160 H160       -0.4435  -13.9628  -43.6628 H         1 UNK         0.0600 
    161 H161       -2.8858  -15.1742  -42.2094 H         1 UNK         0.0600 
    162 H162       -2.9638  -13.8691  -43.3872 H         1 UNK         0.0600 
    163 H163       -2.1698  -13.6067  -41.8465 H         1 UNK         0.0600 
    164 H164       -0.0908  -16.4582  -42.3652 H         1 UNK         0.3000 
    165 H165        1.5502  -15.2014  -39.4184 H         1 UNK         0.0600 
    166 H166        1.0908  -17.5856  -39.1429 H         1 UNK         0.0600 
    167 H167       -0.4280  -16.7685  -39.4730 H         1 UNK         0.0600 
    168 H168        0.3624  -17.7044  -40.7391 H         1 UNK         0.0600 
    169 H169        2.5244  -17.0007  -41.5609 H         1 UNK         0.3000 
    170 H170        5.5982  -15.2281  -41.9155 H         1 UNK         0.0600 
    171 H171        5.8599  -16.9737  -40.1904 H         1 UNK         0.0600 
    172 H172        4.8080  -18.0660  -41.0754 H         1 UNK         0.0600 
    173 H173        6.3578  -17.5820  -41.7615 H         1 UNK         0.0600 
    174 H174        4.9094  -15.6741  -43.9261 H         1 UNK         0.3000 
    175 H175        3.5281  -18.1582  -45.6572 H         1 UNK         0.0600 
    176 H176        1.5997  -16.8092  -46.5428 H         1 UNK         0.0600 
    177 H177        1.5750  -15.8813  -45.0471 H         1 UNK         0.0600 
    178 H178        1.2141  -17.6106  -45.0369 H         1 UNK         0.0600 
    179 H179        3.7861  -15.2083  -45.9026 H         1 UNK         0.3000 
    180 H180        7.1001  -15.3914  -47.0846 H         1 UNK         0.0600 
    181 H181        4.6311  -14.7812  -48.7975 H         1 UNK         0.0600 
    182 H182        5.8749  -15.9552  -49.2069 H         1 UNK         0.0600 
    183 H183        6.2805  -14.2485  -49.1194 H         1 UNK         0.0600 
    184 H184        5.2781  -13.2196  -47.0138 H         1 UNK         0.3000 
    185 H185        5.3315  -12.4537  -43.5886 H         1 UNK         0.0600 
    186 H186        7.6075  -11.6282  -44.2115 H         1 UNK         0.0600 
    187 H187        6.9937  -11.0655  -45.7614 H         1 UNK         0.0600 
    188 H188        6.4256  -10.3308  -44.2612 H         1 UNK         0.0600 
    189 H189        4.5187  -10.9100  -45.8210 H         1 UNK         0.3000 
    190 H190       -2.9900  -20.1709  -47.6245 H         1 UNK         0.3000 
    191 H191       -4.1508  -21.5476  -49.7946 H         1 UNK         0.0600 
    192 H192       -5.8122  -20.3888  -47.5136 H         1 UNK         0.0600 
    193 H193       -6.0994  -20.3141  -49.2409 H         1 UNK         0.0600 
    194 H194       -4.8579  -19.3216  -48.5285 H         1 UNK         0.0600 
    195 H195       -4.4327  -22.1318  -46.2580 H         1 UNK         0.3000 
    196 H196       -6.0615  -24.4612  -46.3959 H         1 UNK         0.0600 
    197 H197       -5.3509  -24.7387  -44.0112 H         1 UNK         0.0600 
    198 H198       -5.8321  -23.0828  -44.3502 H         1 UNK         0.0600 
    199 H199       -4.1236  -23.4948  -44.2250 H         1 UNK         0.0600 
    200 H200       -2.5215  -24.0257  -46.4623 H         1 UNK         0.3000 
    201 H201       -1.8652  -26.8379  -46.4780 H         1 UNK         0.0600 
    202 H202       -0.2899  -25.0428  -45.7156 H         1 UNK         0.0600 
    203 H203       -0.2159  -24.4144  -47.3621 H         1 UNK         0.0600 
    204 H204        0.4044  -26.0174  -47.0010 H         1 UNK         0.0600 
    205 H205       -3.3300  -24.9208  -48.8144 H         1 UNK         0.3000 
    206 H206       -3.9376  -25.1264  -50.8919 H         1 UNK         0.0600 
    207 H207       -4.0613  -27.3399  -51.9798 H         1 UNK         0.0600 
    208 H208       -2.9285  -28.0191  -50.8238 H         1 UNK         0.0600 
    209 H209       -4.5210  -27.4815  -50.2913 H         1 UNK         0.0600 
    210 H210       -1.5953  -23.7901  -50.5004 H         1 UNK         0.3000 
    211 H211        0.3806  -24.3381  -52.5189 H         1 UNK         0.0600 
    212 H212       -0.4903  -21.6934  -51.2389 H         1 UNK         0.0600 
    213 H213        0.9901  -21.9520  -52.1518 H         1 UNK         0.0600 
    214 H214        0.7621  -22.7676  -50.6096 H         1 UNK         0.0600 
    215 H215        0.1738  -24.1617  -54.6515 H         1 UNK         0.3000 
    216 H216       -0.5213  -23.8526  -56.7072 H         1 UNK         0.0600 
    217 H217       -1.9302  -21.9994  -57.4566 H         1 UNK         0.0600 
    218 H218       -0.7368  -21.3950  -56.3173 H         1 UNK         0.0600 
    219 H219       -2.4122  -21.6135  -55.8156 H         1 UNK         0.0600 
    220 H220       -3.3685  -23.5966  -54.5155 H         1 UNK         0.3000 
    221 H221       -4.3052  -26.1928  -55.1123 H         1 UNK         0.0600 
    222 H222       -5.9642  -23.8869  -56.3083 H         1 UNK         0.0600 
    223 H223       -5.2287  -25.2072  -57.2061 H         1 UNK         0.0600 
    224 H224       -6.5495  -25.5304  -56.1024 H         1 UNK         0.0600 
    225 H225       -6.4303  -26.5457  -53.8976 H         1 UNK         0.3000 
    226 H226       -6.1835  -25.7013  -51.2189 H         1 UNK         0.0600 
    227 H227       -7.2431  -27.8282  -51.8716 H         1 UNK         0.0600 
    228 H228       -8.3747  -26.8632  -50.9369 H         1 UNK         0.0600 
    229 H229       -8.5525  -26.9689  -52.6843 H         1 UNK         0.0600 
    230 H230       -6.6397  -23.8416  -50.2917 H         1 UNK         0.3000 
    231 H231       -7.5195  -21.9683  -49.6433 H         1 UNK         0.0600 
    232 H232       -9.8798  -21.4325  -49.9039 H         1 UNK         0.0600 
    233 H233       -9.7155  -23.1562  -49.6202 H         1 UNK         0.0600 
    234 H234      -10.0507  -22.5535  -51.2437 H         1 UNK         0.0600 
    235 H235       -6.2536  -22.2693  -52.5693 H         1 UNK         0.3000 
    236 H236       -7.3254  -20.2227  -54.1602 H         1 UNK         0.0600 
    237 H237       -5.8951  -22.0241  -55.0386 H         1 UNK         0.0600 
    238 H238       -5.2166  -20.4654  -55.4751 H         1 UNK         0.0600 
    239 H239       -4.4991  -21.3941  -54.1649 H         1 UNK         0.0600 
    240 H240       -4.7690  -20.0086  -51.7067 H         1 UNK         0.3000 
    241 H241       -4.1816  -17.2074  -52.3095 H         1 UNK         0.0600 
    242 H242       -6.9363  -18.3794  -50.8171 H         1 UNK         0.3800 
    243 H243       -7.1456  -17.0712  -49.6833 H         1 UNK         0.3800 
    244 H244       -2.5508  -17.3547  -50.4362 H         1 UNK         0.0800 
    245 H245       -3.1042  -18.9597  -50.0609 H         1 UNK         0.0800 
    246 H246       -0.1808  -17.7338  -53.3516 H         1 UNK         0.0800 
    247 H247       -1.3776  -16.6548  -52.6767 H         1 UNK         0.0800 
@<TRIPOS>BOND
     1    1    2 1    
     2    1  127 1    
     3    1  128 1    
     4    1  129 1    
     5    2    3 2    
     6    2    4 am   BACKBONE|DICT|INTERRES
     7    4    5 1    
     8    4  130 1    
     9    5    6 1    
    10    5   65 1    
    11    5  131 1    
    12    6    7 1    
    13    6  132 1    
    14    6  133 1    
    15    7    8 1    
    16    8    9 1    
    17    8  134 1    
    18    8  135 1    
    19    9   10 ar   
    20    9   14 ar   
    21   10   11 ar   
    22   10  136 1    
    23   11   12 ar   
    24   11  126 1    
    25   12   13 ar   
    26   12  137 1    
    27   13   14 ar   
    28   13   15 1    
    29   14  138 1    
    30   15   16 1    
    31   15  139 1    
    32   15  140 1    
    33   16   17 1    
    34   17   18 1    
    35   17  141 1    
    36   17  142 1    
    37   18   19 1    
    38   18   67 1    
    39   18  143 1    
    40   19   20 am   BACKBONE|DICT|INTERRES
    41   19  144 1    
    42   20   21 2    
    43   20   22 1    
    44   22   23 1    
    45   22   24 1    
    46   22  145 1    
    47   23  146 1    
    48   23  147 1    
    49   23  148 1    
    50   24   25 am   BACKBONE|DICT|INTERRES
    51   24  149 1    
    52   25   26 2    
    53   25   27 1    
    54   27   28 1    
    55   27   29 1    
    56   27  150 1    
    57   28  151 1    
    58   28  152 1    
    59   28  153 1    
    60   29   30 am   BACKBONE|DICT|INTERRES
    61   29  154 1    
    62   30   31 2    
    63   30   32 1    
    64   32   33 1    
    65   32   34 1    
    66   32  155 1    
    67   33  156 1    
    68   33  157 1    
    69   33  158 1    
    70   34   35 am   BACKBONE|DICT|INTERRES
    71   34  159 1    
    72   35   36 2    
    73   35   37 1    
    74   37   38 1    
    75   37   39 1    
    76   37  160 1    
    77   38  161 1    
    78   38  162 1    
    79   38  163 1    
    80   39   40 am   BACKBONE|DICT|INTERRES
    81   39  164 1    
    82   40   41 2    
    83   40   42 1    
    84   42   43 1    
    85   42   44 1    
    86   42  165 1    
    87   43  166 1    
    88   43  167 1    
    89   43  168 1    
    90   44   45 am   BACKBONE|DICT|INTERRES
    91   44  169 1    
    92   45   46 2    
    93   45   47 1    
    94   47   48 1    
    95   47   49 1    
    96   47  170 1    
    97   48  171 1    
    98   48  172 1    
    99   48  173 1    
   100   49   50 am   BACKBONE|DICT|INTERRES
   101   49  174 1    
   102   50   51 2    
   103   50   52 1    
   104   52   53 1    
   105   52   54 1    
   106   52  175 1    
   107   53  176 1    
   108   53  177 1    
   109   53  178 1    
   110   54   55 am   BACKBONE|DICT|INTERRES
   111   54  179 1    
   112   55   56 2    
   113   55   57 1    
   114   57   58 1    
   115   57   59 1    
   116   57  180 1    
   117   58  181 1    
   118   58  182 1    
   119   58  183 1    
   120   59   60 am   BACKBONE|DICT|INTERRES
   121   59  184 1    
   122   60   61 2    
   123   60   62 1    
   124   62   63 1    
   125   62   64 1    
   126   62  185 1    
   127   63  186 1    
   128   63  187 1    
   129   63  188 1    
   130   64   65 am   BACKBONE|DICT|INTERRES
   131   64  189 1    
   132   65   66 2    
   133   67   68 2    
   134   67   69 am   BACKBONE|DICT|INTERRES
   135   69   70 1    
   136   69  190 1    
   137   70   71 1    
   138   70   72 1    
   139   70  191 1    
   140   71  192 1    
   141   71  193 1    
   142   71  194 1    
   143   72   73 2    
   144   72   74 am   BACKBONE|DICT|INTERRES
   145   74   75 1    
   146   74  195 1    
   147   75   76 1    
   148   75   77 1    
   149   75  196 1    
   150   76  197 1    
   151   76  198 1    
   152   76  199 1    
   153   77   78 2    
   154   77   79 am   BACKBONE|DICT|INTERRES
   155   79   80 1    
   156   79  200 1    
   157   80   81 1    
   158   80   82 1    
   159   80  201 1    
   160   81  202 1    
   161   81  203 1    
   162   81  204 1    
   163   82   83 2    
   164   82   84 am   BACKBONE|DICT|INTERRES
   165   84   85 1    
   166   84  205 1    
   167   85   86 1    
   168   85   87 1    
   169   85  206 1    
   170   86  207 1    
   171   86  208 1    
   172   86  209 1    
   173   87   88 2    
   174   87   89 am   BACKBONE|DICT|INTERRES
   175   89   90 1    
   176   89  210 1    
   177   90   91 1    
   178   90   92 1    
   179   90  211 1    
   180   91  212 1    
   181   91  213 1    
   182   91  214 1    
   183   92   93 2    
   184   92   94 am   BACKBONE|DICT|INTERRES
   185   94   95 1    
   186   94  215 1    
   187   95   96 1    
   188   95   97 1    
   189   95  216 1    
   190   96  217 1    
   191   96  218 1    
   192   96  219 1    
   193   97   98 2    
   194   97   99 am   BACKBONE|DICT|INTERRES
   195   99  100 1    
   196   99  220 1    
   197  100  101 1    
   198  100  102 1    
   199  100  221 1    
   200  101  222 1    
   201  101  223 1    
   202  101  224 1    
   203  102  103 2    
   204  102  104 am   BACKBONE|DICT|INTERRES
   205  104  105 1    
   206  104  225 1    
   207  105  106 1    
   208  105  107 1    
   209  105  226 1    
   210  106  227 1    
   211  106  228 1    
   212  106  229 1    
   213  107  108 2    
   214  107  109 am   BACKBONE|DICT|INTERRES
   215  109  110 1    
   216  109  230 1    
   217  110  111 1    
   218  110  112 1    
   219  110  231 1    
   220  111  232 1    
   221  111  233 1    
   222  111  234 1    
   223  112  113 2    
   224  112  114 am   BACKBONE|DICT|INTERRES
   225  114  115 1    
   226  114  235 1    
   227  115  116 1    
   228  115  117 1    
   229  115  236 1    
   230  116  237 1    
   231  116  238 1    
   232  116  239 1    
   233  117  118 2    
   234  117  119 am   BACKBONE|DICT|INTERRES
   235  119  120 1    
   236  119  240 1    
   237  120  121 1    
   238  120  124 1    
   239  120  241 1    
   240  121  122 am   BACKBONE|DICT|INTERRES
   241  121  123 2    
   242  122  242 1    
   243  122  243 1    
   244  124  125 1    
   245  124  244 1    
   246  124  245 1    
   247  125  126 1    
   248  126  246 1    
   249  126  247 1    
@<TRIPOS>SUBSTRUCTURE
     1 UNK         1 GROUP             0       ****    0 ROOT    
