@<TRIPOS>MOLECULE
3R540
247   249    1
SMALL
USER_CHARGES


@<TRIPOS>ATOM
      1 CA          1.0156   -9.0740  -48.1474 C.3       0 UNK        -0.1800 
      2 C           1.4072  -10.4247  -47.5657 C.2       0 UNK         0.5000 
      3 O           2.3274  -10.4986  -46.7498 O.2       0 UNK        -0.5000 
      4 N           0.7150  -11.4933  -47.9792 N.am      1 UNK        -0.5000 
      5 CA          0.9259  -12.8680  -47.5148 C.3       1 UNK         0.1400 
      6 C6          0.4520  -13.9160  -48.5512 C.3       23 UNK        -0.0398 
      7 S7          1.5163  -13.8678  -50.0294 S.3       23 UNK        -0.2404 
      8 C8          0.3966  -14.5170  -51.3105 C.3       23 UNK        -0.0205 
      9 C9          0.1509  -16.0229  -51.2408 C.ar      23 UNK        -0.0193 
     10 C10        -1.0872  -16.5237  -51.6509 C.ar      23 UNK        -0.1150 
     11 C11        -1.3166  -17.8996  -51.7054 C.ar      23 UNK        -0.0193 
     12 C12        -0.3046  -18.7824  -51.3211 C.ar      23 UNK        -0.1150 
     13 C13         0.9376  -18.3030  -50.8943 C.ar      23 UNK        -0.0193 
     14 C14         1.1574  -16.9219  -50.8623 C.ar      23 UNK        -0.1150 
     15 C15         2.0793  -19.2573  -50.5491 C.3       23 UNK        -0.0205 
     16 S16         1.5828  -20.7276  -49.5870 S.3       23 UNK        -0.2404 
     17 C17         1.1758  -19.9915  -47.9695 C.3       23 UNK        -0.0398 
     18 CA         -0.1533  -20.5322  -47.3891 C.3       11 UNK         0.1400 
     19 N          -0.2320  -20.3254  -45.9398 N.am      11 UNK        -0.5000 
     20 C          -1.1936  -20.8167  -45.1450 C.2       10 UNK         0.5000 
     21 O          -2.1018  -21.5454  -45.5368 O.2       10 UNK        -0.5000 
     22 CA         -1.1673  -20.3774  -43.6739 C.3       10 UNK         0.1400 
     23 CB         -0.2262  -21.2740  -42.8558 C.3       10 UNK        -0.1800 
     24 N          -0.7833  -18.9730  -43.5360 N.am      10 UNK        -0.5000 
     25 C          -1.5575  -17.9445  -43.9162 C.2       9 UNK         0.5000 
     26 O          -2.6811  -18.0772  -44.3993 O.2       9 UNK        -0.5000 
     27 CA         -0.9629  -16.5327  -43.7668 C.3       9 UNK         0.1400 
     28 CB         -1.1354  -16.0612  -42.3151 C.3       9 UNK        -0.1800 
     29 N           0.4506  -16.4751  -44.1428 N.am      9 UNK        -0.5000 
     30 C           0.9362  -16.7960  -45.3519 C.2       8 UNK         0.5000 
     31 O           0.2305  -17.0952  -46.3153 O.2       8 UNK        -0.5000 
     32 CA          2.4686  -16.8747  -45.4977 C.3       8 UNK         0.1400 
     33 CB          3.0465  -15.5962  -46.1183 C.3       8 UNK        -0.1800 
     34 N           3.1646  -17.1617  -44.2418 N.am      8 UNK        -0.5000 
     35 C           3.0354  -18.2959  -43.5400 C.2       7 UNK         0.5000 
     36 O           2.2742  -19.2050  -43.8764 O.2       7 UNK        -0.5000 
     37 CA          3.8897  -18.4489  -42.2670 C.3       7 UNK         0.1400 
     38 CB          4.6880  -17.1844  -41.8896 C.3       7 UNK        -0.1800 
     39 N           3.0450  -18.8363  -41.1377 N.am      7 UNK        -0.5000 
     40 C           2.8748  -20.0930  -40.7013 C.2       6 UNK         0.5000 
     41 O           3.4152  -21.0698  -41.2226 O.2       6 UNK        -0.5000 
     42 CA          1.9870  -20.3158  -39.4581 C.3       6 UNK         0.1400 
     43 CB          2.8007  -20.9611  -38.3232 C.3       6 UNK        -0.1800 
     44 N           1.3973  -19.0782  -38.9462 N.am      6 UNK        -0.5000 
     45 C           0.1465  -18.6619  -39.1800 C.2       5 UNK         0.5000 
     46 O          -0.6763  -19.2918  -39.8430 O.2       5 UNK        -0.5000 
     47 CA         -0.2549  -17.2991  -38.5781 C.3       5 UNK         0.1400 
     48 CB         -0.9579  -17.5011  -37.2271 C.3       5 UNK        -0.1800 
     49 N           0.8524  -16.3510  -38.4013 N.am      5 UNK        -0.5000 
     50 C           1.6533  -15.9063  -39.3775 C.2       4 UNK         0.5000 
     51 O           1.6145  -16.3220  -40.5380 O.2       4 UNK        -0.5000 
     52 CA          2.7002  -14.8587  -38.9838 C.3       4 UNK         0.1400 
     53 CB          3.9406  -15.5307  -38.3668 C.3       4 UNK        -0.1800 
     54 N           3.0619  -14.1147  -40.1833 N.am      4 UNK        -0.5000 
     55 C           3.6810  -12.9338  -40.2347 C.2       3 UNK         0.5000 
     56 O           4.0719  -12.3234  -39.2388 O.2       3 UNK        -0.5000 
     57 CA          3.8724  -12.3075  -41.6297 C.3       3 UNK         0.1400 
     58 CB          4.9754  -13.0286  -42.4305 C.3       3 UNK        -0.1800 
     59 N           2.6270  -12.1823  -42.4006 N.am      3 UNK        -0.5000 
     60 C           1.8718  -13.1478  -42.9431 C.2       2 UNK         0.5000 
     61 O           2.1454  -14.3475  -42.8916 O.2       2 UNK        -0.5000 
     62 CA          0.6124  -12.6993  -43.6984 C.3       2 UNK         0.1400 
     63 CB          0.0117  -11.3738  -43.1913 C.3       2 UNK        -0.1800 
     64 N           0.9656  -12.5699  -45.1029 N.am      2 UNK        -0.5000 
     65 C           0.2734  -13.0624  -46.1335 C.2       1 UNK         0.5000 
     66 O          -0.8217  -13.6168  -46.0324 O.2       1 UNK        -0.5000 
     67 C          -1.3829  -19.9451  -48.1134 C.2       11 UNK         0.5000 
     68 O          -1.9870  -20.6259  -48.9462 O.2       11 UNK        -0.5000 
     69 N          -1.7544  -18.7127  -47.7394 N.am      12 UNK        -0.5000 
     70 CA         -2.9432  -18.0202  -48.2260 C.3       12 UNK         0.1400 
     71 CB         -2.9161  -16.5593  -47.7527 C.3       12 UNK        -0.1800 
     72 C          -4.2473  -18.7265  -47.8124 C.2       12 UNK         0.5000 
     73 O          -5.1032  -18.9537  -48.6674 O.2       12 UNK        -0.5000 
     74 N          -4.3606  -19.1001  -46.5286 N.am      13 UNK        -0.5000 
     75 CA         -5.5152  -19.8044  -45.9611 C.3       13 UNK         0.1400 
     76 CB         -5.3709  -19.8887  -44.4345 C.3       13 UNK        -0.1800 
     77 C          -5.7349  -21.2067  -46.5587 C.2       13 UNK         0.5000 
     78 O          -6.8794  -21.5895  -46.8029 O.2       13 UNK        -0.5000 
     79 N          -4.6385  -21.9329  -46.8145 N.am      14 UNK        -0.5000 
     80 CA         -4.6356  -23.2403  -47.4738 C.3       14 UNK         0.1400 
     81 CB         -3.3256  -23.9696  -47.1344 C.3       14 UNK        -0.1800 
     82 C          -4.8147  -23.1558  -49.0020 C.2       14 UNK         0.5000 
     83 O          -4.8981  -24.2008  -49.6472 O.2       14 UNK        -0.5000 
     84 N          -4.8309  -21.9370  -49.5624 N.am      15 UNK        -0.5000 
     85 CA         -4.9494  -21.6198  -50.9869 C.3       15 UNK         0.1400 
     86 CB         -6.3590  -21.9780  -51.5000 C.3       15 UNK        -0.1800 
     87 C          -3.8180  -22.2589  -51.8180 C.2       15 UNK         0.5000 
     88 O          -4.0868  -22.8955  -52.8374 O.2       15 UNK        -0.5000 
     89 N          -2.5775  -22.1071  -51.3262 N.am      16 UNK        -0.5000 
     90 CA         -1.3397  -22.6932  -51.8546 C.3       16 UNK         0.1400 
     91 CB         -1.0255  -22.1480  -53.2653 C.3       16 UNK        -0.1800 
     92 C          -1.3541  -24.2352  -51.7994 C.2       16 UNK         0.5000 
     93 O          -0.8990  -24.8908  -52.7357 O.2       16 UNK        -0.5000 
     94 N          -1.9203  -24.7872  -50.7142 N.am      17 UNK        -0.5000 
     95 CA         -2.2249  -26.2114  -50.5126 C.3       17 UNK         0.1400 
     96 CB         -0.9331  -27.0448  -50.3822 C.3       17 UNK        -0.1800 
     97 C          -3.1950  -26.7456  -51.5897 C.2       17 UNK         0.5000 
     98 O          -3.0037  -27.8383  -52.1254 O.2       17 UNK        -0.5000 
     99 N          -4.2026  -25.9188  -51.8997 N.am      18 UNK        -0.5000 
    100 CA        -5.2461  -26.0719  -52.9146 C.3       18 UNK         0.1400 
    101 CB        -6.1469  -27.2810  -52.5913 C.3       18 UNK        -0.1800 
    102 C         -4.7501  -26.0909  -54.3777 C.2       18 UNK         0.5000 
    103 O         -5.5622  -26.3570  -55.2658 O.2       18 UNK        -0.5000 
    104 N         -3.4653  -25.7923  -54.6316 N.am      19 UNK        -0.5000 
    105 CA        -2.8467  -25.7722  -55.9612 C.3       19 UNK         0.1400 
    106 CB        -1.3317  -25.5572  -55.8273 C.3       19 UNK        -0.1800 
    107 C         -3.4865  -24.7008  -56.8617 C.2       19 UNK         0.5000 
    108 O         -3.2208  -23.5099  -56.6839 O.2       19 UNK        -0.5000 
    109 N         -4.3870  -25.1490  -57.7505 N.am      20 UNK        -0.5000 
    110 CA        -5.2651  -24.3464  -58.6138 C.3       20 UNK         0.1400 
    111 CB        -4.4383  -23.6404  -59.7083 C.3       20 UNK        -0.1800 
    112 C         -6.1622  -23.3611  -57.8287 C.2       20 UNK         0.5000 
    113 O         -6.5552  -22.3269  -58.3713 O.2       20 UNK        -0.5000 
    114 N         -6.4160  -23.6674  -56.5451 N.am      21 UNK        -0.5000 
    115 CA        -7.0420  -22.8080  -55.5320 C.3       21 UNK         0.1400 
    116 CB        -8.5591  -22.7039  -55.7857 C.3       21 UNK        -0.1800 
    117 C         -6.3599  -21.4247  -55.3908 C.2       21 UNK         0.5000 
    118 O         -7.0331  -20.4336  -55.1037 O.2       21 UNK        -0.5000 
    119 N         -5.0391  -21.3810  -55.6160 N.am      22 UNK        -0.5000 
    120 CA        -4.2092  -20.1697  -55.7037 C.3       22 UNK         0.1400 
    121 C         -4.4490  -19.3095  -56.9869 C.2       22 UNK         0.5000 
    122 N         -5.1749  -19.7845  -57.9929 N.am      22 UNK        -0.7600 
    123 O         -3.9479  -18.1940  -57.0954 O.2       22 UNK        -0.5000 
    124 C124       -4.2204  -19.3306  -54.3909 C.3       23 UNK        -0.0398 
    125 S125       -2.5975  -18.5789  -54.0340 S.3       23 UNK        -0.2404 
    126 C126       -2.6414  -18.4314  -52.2228 C.3       23 UNK        -0.0205 
    127 H127        1.8659   -8.6270  -48.6625 H         1 UNK         0.0600 
    128 H128        0.7048   -8.3987  -47.3503 H         1 UNK         0.0600 
    129 H129        0.1944   -9.1615  -48.8592 H         1 UNK         0.0600 
    130 H130       -0.0373  -11.3678  -48.6411 H         1 UNK         0.3000 
    131 H131        1.9989  -13.0205  -47.3769 H         1 UNK         0.0600 
    132 H132       -0.5881  -13.7411  -48.8308 H         1 UNK         0.0800 
    133 H133        0.4932  -14.9270  -48.1415 H         1 UNK         0.0800 
    134 H134        0.8302  -14.2937  -52.2859 H         1 UNK         0.0800 
    135 H135       -0.5467  -13.9704  -51.2643 H         1 UNK         0.0800 
    136 H136       -1.8641  -15.8432  -51.9705 H         1 UNK         0.1150 
    137 H137       -0.4789  -19.8463  -51.3734 H         1 UNK         0.1150 
    138 H138        2.1291  -16.5485  -50.5728 H         1 UNK         0.1150 
    139 H139        2.5304  -19.5953  -51.4828 H         1 UNK         0.0800 
    140 H140        2.8652  -18.7342  -50.0019 H         1 UNK         0.0800 
    141 H141        1.1602  -18.9030  -48.0432 H         1 UNK         0.0800 
    142 H142        2.0005  -20.2333  -47.2976 H         1 UNK         0.0800 
    143 H143       -0.1752  -21.6134  -47.5436 H         1 UNK         0.0600 
    144 H144        0.4681  -19.7280  -45.5219 H         1 UNK         0.3000 
    145 H145       -2.1748  -20.4935  -43.2696 H         1 UNK         0.0600 
    146 H146       -0.2234  -20.9891  -41.8053 H         1 UNK         0.0600 
    147 H147       -0.5446  -22.3158  -42.9063 H         1 UNK         0.0600 
    148 H148        0.8006  -21.2314  -43.2181 H         1 UNK         0.0600 
    149 H149        0.1559  -18.7888  -43.2084 H         1 UNK         0.3000 
    150 H150       -1.5099  -15.8549  -44.4252 H         1 UNK         0.0600 
    151 H151       -2.1912  -15.9431  -42.0688 H         1 UNK         0.0600 
    152 H152       -0.6463  -15.1079  -42.1260 H         1 UNK         0.0600 
    153 H153       -0.7193  -16.7862  -41.6169 H         1 UNK         0.0600 
    154 H154        1.1054  -16.1870  -43.4243 H         1 UNK         0.3000 
    155 H155        2.6805  -17.6990  -46.1816 H         1 UNK         0.0600 
    156 H156        2.8672  -14.7244  -45.4904 H         1 UNK         0.0600 
    157 H157        2.6040  -15.4063  -47.0956 H         1 UNK         0.0600 
    158 H158        4.1227  -15.6832  -46.2677 H         1 UNK         0.0600 
    159 H159        3.7624  -16.4324  -43.8811 H         1 UNK         0.3000 
    160 H160        4.6161  -19.2364  -42.4768 H         1 UNK         0.0600 
    161 H161        4.0369  -16.3321  -41.6980 H         1 UNK         0.0600 
    162 H162        5.3865  -16.9031  -42.6785 H         1 UNK         0.0600 
    163 H163        5.2826  -17.3564  -40.9927 H         1 UNK         0.0600 
    164 H164        2.4981  -18.0897  -40.7220 H         1 UNK         0.3000 
    165 H165        1.1998  -21.0152  -39.7457 H         1 UNK         0.0600 
    166 H166        2.1752  -21.1553  -37.4517 H         1 UNK         0.0600 
    167 H167        3.2231  -21.9172  -38.6352 H         1 UNK         0.0600 
    168 H168        3.6276  -20.3236  -38.0079 H         1 UNK         0.0600 
    169 H169        1.9992  -18.4890  -38.3899 H         1 UNK         0.3000 
    170 H170       -0.9702  -16.8405  -39.2629 H         1 UNK         0.0600 
    171 H171       -1.8058  -18.1806  -37.3247 H         1 UNK         0.0600 
    172 H172       -0.2828  -17.9238  -36.4820 H         1 UNK         0.0600 
    173 H173       -1.3432  -16.5590  -36.8369 H         1 UNK         0.0600 
    174 H174        0.9680  -15.9755  -37.4708 H         1 UNK         0.3000 
    175 H175        2.2533  -14.1719  -38.2622 H         1 UNK         0.0600 
    176 H176        4.4107  -16.2239  -39.0637 H         1 UNK         0.0600 
    177 H177        4.6890  -14.7947  -38.0734 H         1 UNK         0.0600 
    178 H178        3.6770  -16.0943  -37.4713 H         1 UNK         0.0600 
    179 H179        2.7223  -14.5247  -41.0521 H         1 UNK         0.3000 
    180 H180        4.2155  -11.2847  -41.4656 H         1 UNK         0.0600 
    181 H181        4.7320  -14.0730  -42.6240 H         1 UNK         0.0600 
    182 H182        5.9202  -13.0139  -41.8861 H         1 UNK         0.0600 
    183 H183        5.1458  -12.5420  -43.3908 H         1 UNK         0.0600 
    184 H184        2.2894  -11.2346  -42.4938 H         1 UNK         0.3000 
    185 H185       -0.1348  -13.4824  -43.5724 H         1 UNK         0.0600 
    186 H186       -0.1799  -11.4134  -42.1182 H         1 UNK         0.0600 
    187 H187        0.6639  -10.5220  -43.3873 H         1 UNK         0.0600 
    188 H188       -0.9414  -11.1725  -43.6807 H         1 UNK         0.0600 
    189 H189        1.8299  -12.0789  -45.3018 H         1 UNK         0.3000 
    190 H190       -1.1729  -18.2058  -47.0780 H         1 UNK         0.3000 
    191 H191       -2.9024  -18.0189  -49.3158 H         1 UNK         0.0600 
    192 H192       -2.9113  -16.4854  -46.6649 H         1 UNK         0.0600 
    193 H193       -3.7868  -16.0134  -48.1174 H         1 UNK         0.0600 
    194 H194       -2.0294  -16.0441  -48.1234 H         1 UNK         0.0600 
    195 H195       -3.6256  -18.8428  -45.8746 H         1 UNK         0.3000 
    196 H196       -6.4039  -19.2103  -46.1836 H         1 UNK         0.0600 
    197 H197       -6.2274  -20.3946  -43.9871 H         1 UNK         0.0600 
    198 H198       -5.3115  -18.8958  -43.9884 H         1 UNK         0.0600 
    199 H199       -4.4757  -20.4403  -44.1466 H         1 UNK         0.0600 
    200 H200       -3.7312  -21.5777  -46.5222 H         1 UNK         0.3000 
    201 H201       -5.4650  -23.8321  -47.0815 H         1 UNK         0.0600 
    202 H202       -3.1951  -24.0625  -46.0561 H         1 UNK         0.0600 
    203 H203       -2.4576  -23.4421  -47.5327 H         1 UNK         0.0600 
    204 H204       -3.3175  -24.9792  -47.5457 H         1 UNK         0.0600 
    205 H205       -4.7324  -21.1362  -48.9507 H         1 UNK         0.3000 
    206 H206       -4.8329  -20.5392  -51.0713 H         1 UNK         0.0600 
    207 H207       -7.1303  -21.5248  -50.8773 H         1 UNK         0.0600 
    208 H208       -6.5074  -21.6095  -52.5135 H         1 UNK         0.0600 
    209 H209       -6.5287  -23.0550  -51.5124 H         1 UNK         0.0600 
    210 H210       -2.4677  -21.5793  -50.4608 H         1 UNK         0.3000 
    211 H211       -0.5387  -22.3714  -51.1883 H         1 UNK         0.0600 
    212 H212       -0.0398  -22.4741  -53.5982 H         1 UNK         0.0600 
    213 H213       -1.0268  -21.0596  -53.2827 H         1 UNK         0.0600 
    214 H214       -1.7482  -22.4915  -54.0064 H         1 UNK         0.0600 
    215 H215       -2.2964  -24.1604  -50.0182 H         1 UNK         0.3000 
    216 H216       -2.7580  -26.2826  -49.5639 H         1 UNK         0.0600 
    217 H217       -1.1613  -28.0742  -50.1039 H         1 UNK         0.0600 
    218 H218       -0.2784  -26.6381  -49.6115 H         1 UNK         0.0600 
    219 H219       -0.3719  -27.0775  -51.3164 H         1 UNK         0.0600 
    220 H220       -4.2751  -25.0654  -51.3542 H         1 UNK         0.3000 
    221 H221       -5.8628  -25.1764  -52.8295 H         1 UNK         0.0600 
    222 H222       -5.6174  -28.2257  -52.7172 H         1 UNK         0.0600 
    223 H223       -6.5143  -27.2352  -51.5660 H         1 UNK         0.0600 
    224 H224       -7.0196  -27.3075  -53.2447 H         1 UNK         0.0600 
    225 H225       -2.8674  -25.5355  -53.8568 H         1 UNK         0.3000 
    226 H226       -3.0020  -26.7531  -56.4151 H         1 UNK         0.0600 
    227 H227       -0.8762  -26.3284  -55.2058 H         1 UNK         0.0600 
    228 H228       -0.8458  -25.5947  -56.8028 H         1 UNK         0.0600 
    229 H229       -1.0986  -24.5884  -55.3842 H         1 UNK         0.0600 
    230 H230       -4.5728  -26.1429  -57.7631 H         1 UNK         0.3000 
    231 H231       -5.9412  -25.0473  -59.1051 H         1 UNK         0.0600 
    232 H232       -3.8118  -24.3498  -60.2489 H         1 UNK         0.0600 
    233 H233       -3.7892  -22.8698  -59.2908 H         1 UNK         0.0600 
    234 H234       -5.0865  -23.1590  -60.4415 H         1 UNK         0.0600 
    235 H235       -6.0591  -24.5536  -56.2033 H         1 UNK         0.3000 
    236 H236       -6.8986  -23.3116  -54.5749 H         1 UNK         0.0600 
    237 H237       -9.0583  -22.1772  -54.9715 H         1 UNK         0.0600 
    238 H238       -8.7772  -22.1648  -56.7081 H         1 UNK         0.0600 
    239 H239       -9.0149  -23.6914  -55.8583 H         1 UNK         0.0600 
    240 H240       -4.5558  -22.2409  -55.8576 H         1 UNK         0.3000 
    241 H241       -3.2030  -20.5706  -55.8315 H         1 UNK         0.0600 
    242 H242       -5.3058  -19.2128  -58.8119 H         1 UNK         0.3800 
    243 H243       -5.6146  -20.6990  -57.9523 H         1 UNK         0.3800 
    244 H244       -4.9855  -18.5530  -54.4208 H         1 UNK         0.0800 
    245 H245       -4.4800  -19.9678  -53.5469 H         1 UNK         0.0800 
    246 H246       -2.8456  -19.4020  -51.7751 H         1 UNK         0.0800 
    247 H247       -3.4577  -17.7707  -51.9269 H         1 UNK         0.0800 
@<TRIPOS>BOND
     1    1    2 1    
     2    1  127 1    
     3    1  128 1    
     4    1  129 1    
     5    2    3 2    
     6    2    4 am   BACKBONE|DICT|INTERRES
     7    4    5 1    
     8    4  130 1    
     9    5    6 1    
    10    5   65 1    
    11    5  131 1    
    12    6    7 1    
    13    6  132 1    
    14    6  133 1    
    15    7    8 1    
    16    8    9 1    
    17    8  134 1    
    18    8  135 1    
    19    9   10 ar   
    20    9   14 ar   
    21   10   11 ar   
    22   10  136 1    
    23   11   12 ar   
    24   11  126 1    
    25   12   13 ar   
    26   12  137 1    
    27   13   14 ar   
    28   13   15 1    
    29   14  138 1    
    30   15   16 1    
    31   15  139 1    
    32   15  140 1    
    33   16   17 1    
    34   17   18 1    
    35   17  141 1    
    36   17  142 1    
    37   18   19 1    
    38   18   67 1    
    39   18  143 1    
    40   19   20 am   BACKBONE|DICT|INTERRES
    41   19  144 1    
    42   20   21 2    
    43   20   22 1    
    44   22   23 1    
    45   22   24 1    
    46   22  145 1    
    47   23  146 1    
    48   23  147 1    
    49   23  148 1    
    50   24   25 am   BACKBONE|DICT|INTERRES
    51   24  149 1    
    52   25   26 2    
    53   25   27 1    
    54   27   28 1    
    55   27   29 1    
    56   27  150 1    
    57   28  151 1    
    58   28  152 1    
    59   28  153 1    
    60   29   30 am   BACKBONE|DICT|INTERRES
    61   29  154 1    
    62   30   31 2    
    63   30   32 1    
    64   32   33 1    
    65   32   34 1    
    66   32  155 1    
    67   33  156 1    
    68   33  157 1    
    69   33  158 1    
    70   34   35 am   BACKBONE|DICT|INTERRES
    71   34  159 1    
    72   35   36 2    
    73   35   37 1    
    74   37   38 1    
    75   37   39 1    
    76   37  160 1    
    77   38  161 1    
    78   38  162 1    
    79   38  163 1    
    80   39   40 am   BACKBONE|DICT|INTERRES
    81   39  164 1    
    82   40   41 2    
    83   40   42 1    
    84   42   43 1    
    85   42   44 1    
    86   42  165 1    
    87   43  166 1    
    88   43  167 1    
    89   43  168 1    
    90   44   45 am   BACKBONE|DICT|INTERRES
    91   44  169 1    
    92   45   46 2    
    93   45   47 1    
    94   47   48 1    
    95   47   49 1    
    96   47  170 1    
    97   48  171 1    
    98   48  172 1    
    99   48  173 1    
   100   49   50 am   BACKBONE|DICT|INTERRES
   101   49  174 1    
   102   50   51 2    
   103   50   52 1    
   104   52   53 1    
   105   52   54 1    
   106   52  175 1    
   107   53  176 1    
   108   53  177 1    
   109   53  178 1    
   110   54   55 am   BACKBONE|DICT|INTERRES
   111   54  179 1    
   112   55   56 2    
   113   55   57 1    
   114   57   58 1    
   115   57   59 1    
   116   57  180 1    
   117   58  181 1    
   118   58  182 1    
   119   58  183 1    
   120   59   60 am   BACKBONE|DICT|INTERRES
   121   59  184 1    
   122   60   61 2    
   123   60   62 1    
   124   62   63 1    
   125   62   64 1    
   126   62  185 1    
   127   63  186 1    
   128   63  187 1    
   129   63  188 1    
   130   64   65 am   BACKBONE|DICT|INTERRES
   131   64  189 1    
   132   65   66 2    
   133   67   68 2    
   134   67   69 am   BACKBONE|DICT|INTERRES
   135   69   70 1    
   136   69  190 1    
   137   70   71 1    
   138   70   72 1    
   139   70  191 1    
   140   71  192 1    
   141   71  193 1    
   142   71  194 1    
   143   72   73 2    
   144   72   74 am   BACKBONE|DICT|INTERRES
   145   74   75 1    
   146   74  195 1    
   147   75   76 1    
   148   75   77 1    
   149   75  196 1    
   150   76  197 1    
   151   76  198 1    
   152   76  199 1    
   153   77   78 2    
   154   77   79 am   BACKBONE|DICT|INTERRES
   155   79   80 1    
   156   79  200 1    
   157   80   81 1    
   158   80   82 1    
   159   80  201 1    
   160   81  202 1    
   161   81  203 1    
   162   81  204 1    
   163   82   83 2    
   164   82   84 am   BACKBONE|DICT|INTERRES
   165   84   85 1    
   166   84  205 1    
   167   85   86 1    
   168   85   87 1    
   169   85  206 1    
   170   86  207 1    
   171   86  208 1    
   172   86  209 1    
   173   87   88 2    
   174   87   89 am   BACKBONE|DICT|INTERRES
   175   89   90 1    
   176   89  210 1    
   177   90   91 1    
   178   90   92 1    
   179   90  211 1    
   180   91  212 1    
   181   91  213 1    
   182   91  214 1    
   183   92   93 2    
   184   92   94 am   BACKBONE|DICT|INTERRES
   185   94   95 1    
   186   94  215 1    
   187   95   96 1    
   188   95   97 1    
   189   95  216 1    
   190   96  217 1    
   191   96  218 1    
   192   96  219 1    
   193   97   98 2    
   194   97   99 am   BACKBONE|DICT|INTERRES
   195   99  100 1    
   196   99  220 1    
   197  100  101 1    
   198  100  102 1    
   199  100  221 1    
   200  101  222 1    
   201  101  223 1    
   202  101  224 1    
   203  102  103 2    
   204  102  104 am   BACKBONE|DICT|INTERRES
   205  104  105 1    
   206  104  225 1    
   207  105  106 1    
   208  105  107 1    
   209  105  226 1    
   210  106  227 1    
   211  106  228 1    
   212  106  229 1    
   213  107  108 2    
   214  107  109 am   BACKBONE|DICT|INTERRES
   215  109  110 1    
   216  109  230 1    
   217  110  111 1    
   218  110  112 1    
   219  110  231 1    
   220  111  232 1    
   221  111  233 1    
   222  111  234 1    
   223  112  113 2    
   224  112  114 am   BACKBONE|DICT|INTERRES
   225  114  115 1    
   226  114  235 1    
   227  115  116 1    
   228  115  117 1    
   229  115  236 1    
   230  116  237 1    
   231  116  238 1    
   232  116  239 1    
   233  117  118 2    
   234  117  119 am   BACKBONE|DICT|INTERRES
   235  119  120 1    
   236  119  240 1    
   237  120  121 1    
   238  120  124 1    
   239  120  241 1    
   240  121  122 am   BACKBONE|DICT|INTERRES
   241  121  123 2    
   242  122  242 1    
   243  122  243 1    
   244  124  125 1    
   245  124  244 1    
   246  124  245 1    
   247  125  126 1    
   248  126  246 1    
   249  126  247 1    
@<TRIPOS>SUBSTRUCTURE
     1 UNK         1 GROUP             0       ****    0 ROOT    
