@<TRIPOS>MOLECULE
3R540
247   249    1
SMALL
USER_CHARGES


@<TRIPOS>ATOM
      1 CA          6.1939  -15.4555  -48.3674 C.3       0 UNK        -0.1800 
      2 C           5.0856  -14.6890  -47.6618 C.2       0 UNK         0.5000 
      3 O           5.1843  -14.4375  -46.4609 O.2       0 UNK        -0.5000 
      4 N           4.0416  -14.2956  -48.4062 N.am      1 UNK        -0.5000 
      5 CA          2.8193  -13.6279  -47.9241 C.3       1 UNK         0.1400 
      6 C6          1.7676  -13.4548  -49.0475 C.3       23 UNK        -0.0398 
      7 S7          1.2953  -15.0300  -49.8438 S.3       23 UNK        -0.2404 
      8 C8         -0.3914  -15.2866  -49.2055 C.3       23 UNK        -0.0205 
      9 C9         -1.1329  -16.3215  -50.0389 C.ar      23 UNK        -0.0193 
     10 C10        -1.8173  -15.9267  -51.1916 C.ar      23 UNK        -0.1150 
     11 C11        -2.4778  -16.8690  -51.9845 C.ar      23 UNK        -0.0193 
     12 C12        -2.4501  -18.2166  -51.6170 C.ar      23 UNK        -0.1150 
     13 C13        -1.7809  -18.6275  -50.4594 C.ar      23 UNK        -0.0193 
     14 C14        -1.1291  -17.6702  -49.6709 C.ar      23 UNK        -0.1150 
     15 C15        -1.7881  -20.1018  -50.0689 C.3       23 UNK        -0.0205 
     16 S16        -0.1124  -20.7981  -49.8928 S.3       23 UNK        -0.2404 
     17 C17         0.1573  -20.6157  -48.0946 C.3       23 UNK        -0.0398 
     18 CA          0.1504  -21.9556  -47.3221 C.3       11 UNK         0.1400 
     19 N           0.5777  -21.7694  -45.9360 N.am      11 UNK        -0.5000 
     20 C           0.8104  -22.7525  -45.0564 C.2       10 UNK         0.5000 
     21 O           0.7321  -23.9507  -45.3270 O.2       10 UNK        -0.5000 
     22 CA          1.1229  -22.3176  -43.6143 C.3       10 UNK         0.1400 
     23 CB          2.5642  -21.8010  -43.4943 C.3       10 UNK        -0.1800 
     24 N           0.1883  -21.3005  -43.1288 N.am      10 UNK        -0.5000 
     25 C          -1.1297  -21.5009  -42.9778 C.2       9 UNK         0.5000 
     26 O          -1.6889  -22.5762  -43.1975 O.2       9 UNK        -0.5000 
     27 CA         -1.9708  -20.2895  -42.5400 C.3       9 UNK         0.1400 
     28 CB         -1.8556  -20.0734  -41.0240 C.3       9 UNK        -0.1800 
     29 N          -1.6077  -19.0592  -43.2457 N.am      9 UNK        -0.5000 
     30 C          -1.7606  -18.8682  -44.5647 C.2       8 UNK         0.5000 
     31 O          -2.2392  -19.7058  -45.3261 O.2       8 UNK        -0.5000 
     32 CA         -1.2352  -17.5460  -45.1500 C.3       8 UNK         0.1400 
     33 CB         -2.1999  -16.3886  -44.8602 C.3       8 UNK        -0.1800 
     34 N           0.1032  -17.2150  -44.6653 N.am      8 UNK        -0.5000 
     35 C           1.1848  -17.9814  -44.8628 C.2       7 UNK         0.5000 
     36 O           1.1739  -19.0357  -45.4962 O.2       7 UNK        -0.5000 
     37 CA          2.4943  -17.5132  -44.2188 C.3       7 UNK         0.1400 
     38 CB          3.1942  -16.4828  -45.1098 C.3       7 UNK        -0.1800 
     39 N           2.2865  -16.9636  -42.8811 N.am      7 UNK        -0.5000 
     40 C           1.9800  -17.7054  -41.8085 C.2       6 UNK         0.5000 
     41 O           1.8662  -18.9318  -41.8302 O.2       6 UNK        -0.5000 
     42 CA          1.7133  -16.9346  -40.5037 C.3       6 UNK         0.1400 
     43 CB          3.0280  -16.4360  -39.8839 C.3       6 UNK        -0.1800 
     44 N           0.8079  -15.8015  -40.6987 N.am      6 UNK        -0.5000 
     45 C          -0.4709  -15.9132  -41.0846 C.2       5 UNK         0.5000 
     46 O          -1.0271  -16.9863  -41.3119 O.2       5 UNK        -0.5000 
     47 CA         -1.2600  -14.6078  -41.2840 C.3       5 UNK         0.1400 
     48 CB         -1.9175  -14.1745  -39.9653 C.3       5 UNK        -0.1800 
     49 N          -0.4755  -13.4930  -41.8173 N.am      5 UNK        -0.5000 
     50 C           0.2481  -13.4960  -42.9457 C.2       4 UNK         0.5000 
     51 O           0.4249  -14.4947  -43.6475 O.2       4 UNK        -0.5000 
     52 CA          0.8665  -12.1537  -43.3814 C.3       4 UNK         0.1400 
     53 CB          0.5566  -10.9646  -42.4428 C.3       4 UNK        -0.1800 
     54 N           2.3060  -12.2575  -43.6139 N.am      4 UNK        -0.5000 
     55 C           3.2613  -12.5814  -42.7290 C.2       3 UNK         0.5000 
     56 O           3.0250  -12.9175  -41.5672 O.2       3 UNK        -0.5000 
     57 CA          4.7302  -12.5142  -43.2084 C.3       3 UNK         0.1400 
     58 CB          5.4333  -13.8677  -43.0283 C.3       3 UNK        -0.1800 
     59 N           4.8700  -12.0835  -44.6038 N.am      3 UNK        -0.5000 
     60 C           4.7899  -10.8108  -45.0250 C.2       2 UNK         0.5000 
     61 O           4.7008   -9.8487  -44.2619 O.2       2 UNK        -0.5000 
     62 CA          4.7574  -10.5656  -46.5506 C.3       2 UNK         0.1400 
     63 CB          6.1530  -10.1779  -47.0620 C.3       2 UNK        -0.1800 
     64 N           4.2719  -11.7128  -47.3228 N.am      2 UNK        -0.5000 
     65 C           3.0613  -12.2781  -47.2066 C.2       1 UNK         0.5000 
     66 O           2.1610  -11.7957  -46.5199 O.2       1 UNK        -0.5000 
     67 C          -1.2126  -22.6732  -47.4003 C.2       11 UNK         0.5000 
     68 O          -1.3368  -23.6378  -48.1521 O.2       11 UNK        -0.5000 
     69 N          -2.1900  -22.2369  -46.5923 N.am      12 UNK        -0.5000 
     70 CA         -3.5255  -22.8293  -46.5307 C.3       12 UNK         0.1400 
     71 CB         -4.4375  -21.9968  -45.6186 C.3       12 UNK        -0.1800 
     72 C          -3.5301  -24.3065  -46.1068 C.2       12 UNK         0.5000 
     73 O          -4.3214  -25.0807  -46.6475 O.2       12 UNK        -0.5000 
     74 N          -2.6378  -24.6718  -45.1786 N.am      13 UNK        -0.5000 
     75 CA         -2.4176  -26.0502  -44.7532 C.3       13 UNK         0.1400 
     76 CB         -1.6354  -26.0556  -43.4305 C.3       13 UNK        -0.1800 
     77 C          -1.6920  -26.8846  -45.8253 C.2       13 UNK         0.5000 
     78 O          -2.1257  -27.9985  -46.1213 O.2       13 UNK        -0.5000 
     79 N          -0.5953  -26.3437  -46.3730 N.am      14 UNK        -0.5000 
     80 CA          0.2987  -27.0519  -47.2895 C.3       14 UNK         0.1400 
     81 CB          1.6587  -26.3371  -47.3223 C.3       14 UNK        -0.1800 
     82 C          -0.2553  -27.2026  -48.7169 C.2       14 UNK         0.5000 
     83 O          -0.1154  -28.2750  -49.3065 O.2       14 UNK        -0.5000 
     84 N          -0.8373  -26.1262  -49.2579 N.am      15 UNK        -0.5000 
     85 CA         -1.2282  -26.0041  -50.6643 C.3       15 UNK         0.1400 
     86 CB         -0.6187  -24.7090  -51.2274 C.3       15 UNK        -0.1800 
     87 C          -2.7537  -26.0407  -50.8742 C.2       15 UNK         0.5000 
     88 O          -3.1927  -25.9133  -52.0166 O.2       15 UNK        -0.5000 
     89 N          -3.5202  -26.2420  -49.7918 N.am      16 UNK        -0.5000 
     90 CA         -4.9821  -26.3322  -49.7250 C.3       16 UNK         0.1400 
     91 CB         -5.5271  -27.4754  -50.6071 C.3       16 UNK        -0.1800 
     92 C          -5.6659  -24.9821  -50.0167 C.2       16 UNK         0.5000 
     93 O          -6.0075  -24.6808  -51.1631 O.2       16 UNK        -0.5000 
     94 N          -5.8655  -24.2017  -48.9466 N.am      17 UNK        -0.5000 
     95 CA         -6.5430  -22.9016  -48.9096 C.3       17 UNK         0.1400 
     96 CB         -8.0576  -23.0792  -49.1623 C.3       17 UNK        -0.1800 
     97 C          -5.8603  -21.8685  -49.8314 C.2       17 UNK         0.5000 
     98 O          -4.6712  -21.6057  -49.6596 O.2       17 UNK        -0.5000 
     99 N          -6.6044  -21.3066  -50.7922 N.am      18 UNK        -0.5000 
    100 CA        -6.1109  -20.3350  -51.7714 C.3       18 UNK         0.1400 
    101 CB        -7.3105  -19.5761  -52.3560 C.3       18 UNK        -0.1800 
    102 C         -5.2589  -20.9590  -52.8969 C.2       18 UNK         0.5000 
    103 O         -4.7579  -20.2178  -53.7448 O.2       18 UNK        -0.5000 
    104 N         -5.1348  -22.2972  -52.9187 N.am      19 UNK        -0.5000 
    105 CA        -4.2842  -23.1049  -53.8046 C.3       19 UNK         0.1400 
    106 CB        -2.8002  -22.7998  -53.5151 C.3       19 UNK        -0.1800 
    107 C         -4.6113  -22.9766  -55.3084 C.2       19 UNK         0.5000 
    108 O         -3.7714  -23.3108  -56.1453 O.2       19 UNK        -0.5000 
    109 N         -5.8077  -22.4541  -55.6211 N.am      20 UNK        -0.5000 
    110 CA        -6.2784  -22.0079  -56.9392 C.3       20 UNK         0.1400 
    111 CB        -6.3879  -23.1922  -57.9220 C.3       20 UNK        -0.1800 
    112 C         -5.4672  -20.8259  -57.5246 C.2       20 UNK         0.5000 
    113 O         -5.6142  -20.5182  -58.7084 O.2       20 UNK        -0.5000 
    114 N         -4.6437  -20.1714  -56.6935 N.am      21 UNK        -0.5000 
    115 CA        -3.7981  -19.0380  -57.0637 C.3       21 UNK         0.1400 
    116 CB        -2.4898  -19.1163  -56.2610 C.3       21 UNK        -0.1800 
    117 C         -4.5062  -17.6921  -56.8310 C.2       21 UNK         0.5000 
    118 O         -4.1959  -16.7202  -57.5212 O.2       21 UNK        -0.5000 
    119 N         -5.4477  -17.6577  -55.8813 N.am      22 UNK        -0.5000 
    120 CA        -6.2518  -16.4769  -55.5284 C.3       22 UNK         0.1400 
    121 C         -7.7125  -16.8195  -55.1148 C.2       22 UNK         0.5000 
    122 N         -8.2282  -17.9988  -55.4429 N.am      22 UNK        -0.7600 
    123 O         -8.4039  -16.0021  -54.5133 O.2       22 UNK        -0.5000 
    124 C124       -5.5144  -15.5196  -54.5516 C.3       23 UNK        -0.0398 
    125 S125       -4.9961  -16.2865  -52.9744 S.3       23 UNK        -0.2404 
    126 C126       -3.2034  -16.4321  -53.2465 C.3       23 UNK        -0.0205 
    127 H127        7.1375  -14.9176  -48.2772 H         1 UNK         0.0600 
    128 H128        5.9798  -15.5947  -49.4273 H         1 UNK         0.0600 
    129 H129        6.3153  -16.4384  -47.9123 H         1 UNK         0.0600 
    130 H130        4.0309  -14.5337  -49.3881 H         1 UNK         0.3000 
    131 H131        2.3848  -14.2883  -47.1714 H         1 UNK         0.0600 
    132 H132        0.8695  -12.9701  -48.6603 H         1 UNK         0.0800 
    133 H133        2.1526  -12.7911  -49.8237 H         1 UNK         0.0800 
    134 H134       -0.9446  -14.3464  -49.2245 H         1 UNK         0.0800 
    135 H135       -0.3420  -15.5975  -48.1605 H         1 UNK         0.0800 
    136 H136       -1.8248  -14.8842  -51.4778 H         1 UNK         0.1150 
    137 H137       -2.9577  -18.9436  -52.2350 H         1 UNK         0.1150 
    138 H138       -0.6008  -17.9702  -48.7790 H         1 UNK         0.1150 
    139 H139       -2.3573  -20.2317  -49.1475 H         1 UNK         0.0800 
    140 H140       -2.3115  -20.6895  -50.8249 H         1 UNK         0.0800 
    141 H141       -0.5732  -19.9311  -47.6623 H         1 UNK         0.0800 
    142 H142        1.1262  -20.1303  -47.9707 H         1 UNK         0.0800 
    143 H143        0.8868  -22.6122  -47.7906 H         1 UNK         0.0600 
    144 H144        0.6894  -20.8044  -45.6314 H         1 UNK         0.3000 
    145 H145        1.0229  -23.1963  -42.9738 H         1 UNK         0.0600 
    146 H146        2.8134  -21.5681  -42.4589 H         1 UNK         0.0600 
    147 H147        3.2775  -22.5501  -43.8402 H         1 UNK         0.0600 
    148 H148        2.7214  -20.8990  -44.0860 H         1 UNK         0.0600 
    149 H149        0.5772  -20.3921  -42.9055 H         1 UNK         0.3000 
    150 H150       -3.0148  -20.5101  -42.7711 H         1 UNK         0.0600 
    151 H151       -2.1210  -20.9792  -40.4774 H         1 UNK         0.0600 
    152 H152       -2.5266  -19.2829  -40.6876 H         1 UNK         0.0600 
    153 H153       -0.8412  -19.7970  -40.7330 H         1 UNK         0.0600 
    154 H154       -1.2277  -18.3084  -42.6750 H         1 UNK         0.3000 
    155 H155       -1.1699  -17.6650  -46.2335 H         1 UNK         0.0600 
    156 H156       -2.3362  -16.2399  -43.7900 H         1 UNK         0.0600 
    157 H157       -3.1824  -16.5853  -45.2908 H         1 UNK         0.0600 
    158 H158       -1.8370  -15.4535  -45.2874 H         1 UNK         0.0600 
    159 H159        0.2089  -16.3369  -44.1641 H         1 UNK         0.3000 
    160 H160        3.1476  -18.3847  -44.1392 H         1 UNK         0.0600 
    161 H161        2.7232  -15.5011  -45.0490 H         1 UNK         0.0600 
    162 H162        3.1843  -16.7898  -46.1568 H         1 UNK         0.0600 
    163 H163        4.2393  -16.3809  -44.8233 H         1 UNK         0.0600 
    164 H164        2.2817  -15.9574  -42.7938 H         1 UNK         0.3000 
    165 H165        1.2434  -17.6248  -39.7999 H         1 UNK         0.0600 
    166 H166        2.8537  -15.9699  -38.9140 H         1 UNK         0.0600 
    167 H167        3.7236  -17.2614  -39.7269 H         1 UNK         0.0600 
    168 H168        3.5246  -15.7036  -40.5220 H         1 UNK         0.0600 
    169 H169        1.1934  -14.8767  -40.5671 H         1 UNK         0.3000 
    170 H170       -2.0552  -14.8121  -42.0018 H         1 UNK         0.0600 
    171 H171       -2.5297  -14.9771  -39.5514 H         1 UNK         0.0600 
    172 H172       -1.1737  -13.9077  -39.2135 H         1 UNK         0.0600 
    173 H173       -2.5705  -13.3141  -40.1128 H         1 UNK         0.0600 
    174 H174       -0.5376  -12.6252  -41.3053 H         1 UNK         0.3000 
    175 H175        0.4204  -11.9261  -44.3503 H         1 UNK         0.0600 
    176 H176        0.9549  -11.1149  -41.4388 H         1 UNK         0.0600 
    177 H177        0.9904  -10.0431  -42.8317 H         1 UNK         0.0600 
    178 H178       -0.5176  -10.7959  -42.3573 H         1 UNK         0.0600 
    179 H179        2.5869  -12.0462  -44.5645 H         1 UNK         0.3000 
    180 H180        5.2385  -11.7901  -42.5685 H         1 UNK         0.0600 
    181 H181        4.9551  -14.6444  -43.6205 H         1 UNK         0.0600 
    182 H182        5.4116  -14.1890  -41.9862 H         1 UNK         0.0600 
    183 H183        6.4794  -13.8130  -43.3298 H         1 UNK         0.0600 
    184 H184        4.9580  -12.8246  -45.2940 H         1 UNK         0.3000 
    185 H185        4.0785   -9.7303  -46.7334 H         1 UNK         0.0600 
    186 H186        6.5373   -9.3076  -46.5283 H         1 UNK         0.0600 
    187 H187        6.8696  -10.9891  -46.9268 H         1 UNK         0.0600 
    188 H188        6.1288   -9.9228  -48.1216 H         1 UNK         0.0600 
    189 H189        4.9544  -12.1883  -47.8949 H         1 UNK         0.3000 
    190 H190       -2.0379  -21.4102  -46.0189 H         1 UNK         0.3000 
    191 H191       -3.9283  -22.7904  -47.5402 H         1 UNK         0.0600 
    192 H192       -4.0356  -21.9248  -44.6079 H         1 UNK         0.0600 
    193 H193       -5.4317  -22.4390  -45.5454 H         1 UNK         0.0600 
    194 H194       -4.5609  -20.9852  -46.0053 H         1 UNK         0.0600 
    195 H195       -2.0593  -23.9583  -44.7481 H         1 UNK         0.3000 
    196 H196       -3.3898  -26.5129  -44.5699 H         1 UNK         0.0600 
    197 H197       -1.4637  -27.0746  -43.0816 H         1 UNK         0.0600 
    198 H198       -2.1842  -25.5310  -42.6481 H         1 UNK         0.0600 
    199 H199       -0.6625  -25.5737  -43.5330 H         1 UNK         0.0600 
    200 H200       -0.2887  -25.4256  -46.0622 H         1 UNK         0.3000 
    201 H201        0.4633  -28.0563  -46.8933 H         1 UNK         0.0600 
    202 H202        2.1093  -26.3023  -46.3302 H         1 UNK         0.0600 
    203 H203        1.5650  -25.3117  -47.6825 H         1 UNK         0.0600 
    204 H204        2.3585  -26.8546  -47.9796 H         1 UNK         0.0600 
    205 H205       -0.9417  -25.2767  -48.7024 H         1 UNK         0.3000 
    206 H206       -0.8163  -26.8348  -51.2405 H         1 UNK         0.0600 
    207 H207        0.4550  -24.6641  -51.0448 H         1 UNK         0.0600 
    208 H208       -0.7637  -24.6473  -52.3059 H         1 UNK         0.0600 
    209 H209       -1.0705  -23.8222  -50.7822 H         1 UNK         0.0600 
    210 H210       -3.0424  -26.3082  -48.9038 H         1 UNK         0.3000 
    211 H211       -5.2172  -26.6022  -48.6944 H         1 UNK         0.0600 
    212 H212       -5.3745  -27.2894  -51.6702 H         1 UNK         0.0600 
    213 H213       -6.5996  -27.6000  -50.4543 H         1 UNK         0.0600 
    214 H214       -5.0509  -28.4244  -50.3608 H         1 UNK         0.0600 
    215 H215       -5.4864  -24.5259  -48.0608 H         1 UNK         0.3000 
    216 H216       -6.4270  -22.5212  -47.8944 H         1 UNK         0.0600 
    217 H217       -8.5920  -22.1357  -49.0443 H         1 UNK         0.0600 
    218 H218       -8.4893  -23.7785  -48.4460 H         1 UNK         0.0600 
    219 H219       -8.2690  -23.4630  -50.1610 H         1 UNK         0.0600 
    220 H220       -7.5704  -21.5866  -50.8809 H         1 UNK         0.3000 
    221 H221       -5.4752  -19.6130  -51.2540 H         1 UNK         0.0600 
    222 H222       -7.9052  -19.1086  -51.5711 H         1 UNK         0.0600 
    223 H223       -6.9737  -18.7787  -53.0174 H         1 UNK         0.0600 
    224 H224       -7.9647  -20.2312  -52.9324 H         1 UNK         0.0600 
    225 H225       -5.6078  -22.8308  -52.1973 H         1 UNK         0.3000 
    226 H226       -4.4740  -24.1455  -53.5410 H         1 UNK         0.0600 
    227 H227       -2.1480  -23.5135  -54.0190 H         1 UNK         0.0600 
    228 H228       -2.5172  -21.8017  -53.8515 H         1 UNK         0.0600 
    229 H229       -2.5907  -22.8638  -52.4478 H         1 UNK         0.0600 
    230 H230       -6.4137  -22.2253  -54.8462 H         1 UNK         0.3000 
    231 H231       -7.2867  -21.6239  -56.7794 H         1 UNK         0.0600 
    232 H232       -6.9574  -24.0140  -57.4880 H         1 UNK         0.0600 
    233 H233       -5.4087  -23.5760  -58.2086 H         1 UNK         0.0600 
    234 H234       -6.8993  -22.8939  -58.8379 H         1 UNK         0.0600 
    235 H235       -4.6039  -20.4553  -55.7195 H         1 UNK         0.3000 
    236 H236       -3.5447  -19.0978  -58.1243 H         1 UNK         0.0600 
    237 H237       -1.8501  -18.2563  -56.4634 H         1 UNK         0.0600 
    238 H238       -2.6745  -19.1478  -55.1872 H         1 UNK         0.0600 
    239 H239       -1.9253  -20.0111  -56.5235 H         1 UNK         0.0600 
    240 H240       -5.6002  -18.4807  -55.3149 H         1 UNK         0.3000 
    241 H241       -6.4013  -15.9088  -56.4485 H         1 UNK         0.0600 
    242 H242       -7.7135  -18.6508  -56.0101 H         1 UNK         0.3800 
    243 H243       -9.1798  -18.2052  -55.1824 H         1 UNK         0.3800 
    244 H244       -4.6397  -15.1056  -55.0541 H         1 UNK         0.0800 
    245 H245       -6.1384  -14.6552  -54.3200 H         1 UNK         0.0800 
    246 H246       -3.0174  -17.1472  -54.0468 H         1 UNK         0.0800 
    247 H247       -2.8069  -15.4754  -53.5901 H         1 UNK         0.0800 
@<TRIPOS>BOND
     1    1    2 1    
     2    1  127 1    
     3    1  128 1    
     4    1  129 1    
     5    2    3 2    
     6    2    4 am   BACKBONE|DICT|INTERRES
     7    4    5 1    
     8    4  130 1    
     9    5    6 1    
    10    5   65 1    
    11    5  131 1    
    12    6    7 1    
    13    6  132 1    
    14    6  133 1    
    15    7    8 1    
    16    8    9 1    
    17    8  134 1    
    18    8  135 1    
    19    9   10 ar   
    20    9   14 ar   
    21   10   11 ar   
    22   10  136 1    
    23   11   12 ar   
    24   11  126 1    
    25   12   13 ar   
    26   12  137 1    
    27   13   14 ar   
    28   13   15 1    
    29   14  138 1    
    30   15   16 1    
    31   15  139 1    
    32   15  140 1    
    33   16   17 1    
    34   17   18 1    
    35   17  141 1    
    36   17  142 1    
    37   18   19 1    
    38   18   67 1    
    39   18  143 1    
    40   19   20 am   BACKBONE|DICT|INTERRES
    41   19  144 1    
    42   20   21 2    
    43   20   22 1    
    44   22   23 1    
    45   22   24 1    
    46   22  145 1    
    47   23  146 1    
    48   23  147 1    
    49   23  148 1    
    50   24   25 am   BACKBONE|DICT|INTERRES
    51   24  149 1    
    52   25   26 2    
    53   25   27 1    
    54   27   28 1    
    55   27   29 1    
    56   27  150 1    
    57   28  151 1    
    58   28  152 1    
    59   28  153 1    
    60   29   30 am   BACKBONE|DICT|INTERRES
    61   29  154 1    
    62   30   31 2    
    63   30   32 1    
    64   32   33 1    
    65   32   34 1    
    66   32  155 1    
    67   33  156 1    
    68   33  157 1    
    69   33  158 1    
    70   34   35 am   BACKBONE|DICT|INTERRES
    71   34  159 1    
    72   35   36 2    
    73   35   37 1    
    74   37   38 1    
    75   37   39 1    
    76   37  160 1    
    77   38  161 1    
    78   38  162 1    
    79   38  163 1    
    80   39   40 am   BACKBONE|DICT|INTERRES
    81   39  164 1    
    82   40   41 2    
    83   40   42 1    
    84   42   43 1    
    85   42   44 1    
    86   42  165 1    
    87   43  166 1    
    88   43  167 1    
    89   43  168 1    
    90   44   45 am   BACKBONE|DICT|INTERRES
    91   44  169 1    
    92   45   46 2    
    93   45   47 1    
    94   47   48 1    
    95   47   49 1    
    96   47  170 1    
    97   48  171 1    
    98   48  172 1    
    99   48  173 1    
   100   49   50 am   BACKBONE|DICT|INTERRES
   101   49  174 1    
   102   50   51 2    
   103   50   52 1    
   104   52   53 1    
   105   52   54 1    
   106   52  175 1    
   107   53  176 1    
   108   53  177 1    
   109   53  178 1    
   110   54   55 am   BACKBONE|DICT|INTERRES
   111   54  179 1    
   112   55   56 2    
   113   55   57 1    
   114   57   58 1    
   115   57   59 1    
   116   57  180 1    
   117   58  181 1    
   118   58  182 1    
   119   58  183 1    
   120   59   60 am   BACKBONE|DICT|INTERRES
   121   59  184 1    
   122   60   61 2    
   123   60   62 1    
   124   62   63 1    
   125   62   64 1    
   126   62  185 1    
   127   63  186 1    
   128   63  187 1    
   129   63  188 1    
   130   64   65 am   BACKBONE|DICT|INTERRES
   131   64  189 1    
   132   65   66 2    
   133   67   68 2    
   134   67   69 am   BACKBONE|DICT|INTERRES
   135   69   70 1    
   136   69  190 1    
   137   70   71 1    
   138   70   72 1    
   139   70  191 1    
   140   71  192 1    
   141   71  193 1    
   142   71  194 1    
   143   72   73 2    
   144   72   74 am   BACKBONE|DICT|INTERRES
   145   74   75 1    
   146   74  195 1    
   147   75   76 1    
   148   75   77 1    
   149   75  196 1    
   150   76  197 1    
   151   76  198 1    
   152   76  199 1    
   153   77   78 2    
   154   77   79 am   BACKBONE|DICT|INTERRES
   155   79   80 1    
   156   79  200 1    
   157   80   81 1    
   158   80   82 1    
   159   80  201 1    
   160   81  202 1    
   161   81  203 1    
   162   81  204 1    
   163   82   83 2    
   164   82   84 am   BACKBONE|DICT|INTERRES
   165   84   85 1    
   166   84  205 1    
   167   85   86 1    
   168   85   87 1    
   169   85  206 1    
   170   86  207 1    
   171   86  208 1    
   172   86  209 1    
   173   87   88 2    
   174   87   89 am   BACKBONE|DICT|INTERRES
   175   89   90 1    
   176   89  210 1    
   177   90   91 1    
   178   90   92 1    
   179   90  211 1    
   180   91  212 1    
   181   91  213 1    
   182   91  214 1    
   183   92   93 2    
   184   92   94 am   BACKBONE|DICT|INTERRES
   185   94   95 1    
   186   94  215 1    
   187   95   96 1    
   188   95   97 1    
   189   95  216 1    
   190   96  217 1    
   191   96  218 1    
   192   96  219 1    
   193   97   98 2    
   194   97   99 am   BACKBONE|DICT|INTERRES
   195   99  100 1    
   196   99  220 1    
   197  100  101 1    
   198  100  102 1    
   199  100  221 1    
   200  101  222 1    
   201  101  223 1    
   202  101  224 1    
   203  102  103 2    
   204  102  104 am   BACKBONE|DICT|INTERRES
   205  104  105 1    
   206  104  225 1    
   207  105  106 1    
   208  105  107 1    
   209  105  226 1    
   210  106  227 1    
   211  106  228 1    
   212  106  229 1    
   213  107  108 2    
   214  107  109 am   BACKBONE|DICT|INTERRES
   215  109  110 1    
   216  109  230 1    
   217  110  111 1    
   218  110  112 1    
   219  110  231 1    
   220  111  232 1    
   221  111  233 1    
   222  111  234 1    
   223  112  113 2    
   224  112  114 am   BACKBONE|DICT|INTERRES
   225  114  115 1    
   226  114  235 1    
   227  115  116 1    
   228  115  117 1    
   229  115  236 1    
   230  116  237 1    
   231  116  238 1    
   232  116  239 1    
   233  117  118 2    
   234  117  119 am   BACKBONE|DICT|INTERRES
   235  119  120 1    
   236  119  240 1    
   237  120  121 1    
   238  120  124 1    
   239  120  241 1    
   240  121  122 am   BACKBONE|DICT|INTERRES
   241  121  123 2    
   242  122  242 1    
   243  122  243 1    
   244  124  125 1    
   245  124  244 1    
   246  124  245 1    
   247  125  126 1    
   248  126  246 1    
   249  126  247 1    
@<TRIPOS>SUBSTRUCTURE
     1 UNK         1 GROUP             0       ****    0 ROOT    
