@<TRIPOS>MOLECULE
3R540
247   249    1
SMALL
USER_CHARGES


@<TRIPOS>ATOM
      1 CA         -5.6107  -19.0418  -47.1495 C.3       0 UNK        -0.1800 
      2 C          -4.5124  -17.9909  -47.2217 C.2       0 UNK         0.5000 
      3 O          -3.3364  -18.3421  -47.2798 O.2       0 UNK        -0.5000 
      4 N          -4.9027  -16.7073  -47.2089 N.am      1 UNK        -0.5000 
      5 CA         -4.0261  -15.5250  -47.1963 C.3       1 UNK         0.1400 
      6 C6         -3.1749  -15.3490  -48.4828 C.3       23 UNK        -0.0398 
      7 S7         -4.1536  -15.2220  -50.0215 S.3       23 UNK        -0.2404 
      8 C8         -3.6919  -16.7413  -50.9194 C.3       23 UNK        -0.0205 
      9 C9         -2.1922  -16.8420  -51.1744 C.ar      23 UNK        -0.0193 
     10 C10        -1.5690  -16.0579  -52.1497 C.ar      23 UNK        -0.1150 
     11 C11        -0.1842  -16.1302  -52.3385 C.ar      23 UNK        -0.0193 
     12 C12         0.5722  -17.0086  -51.5544 C.ar      23 UNK        -0.1150 
     13 C13        -0.0380  -17.8043  -50.5798 C.ar      23 UNK        -0.0193 
     14 C14        -1.4204  -17.7110  -50.4016 C.ar      23 UNK        -0.1150 
     15 C15         0.8120  -18.6961  -49.6778 C.3       23 UNK        -0.0205 
     16 S16         0.2702  -20.4392  -49.6360 S.3       23 UNK        -0.2404 
     17 C17        -1.0101  -20.4104  -48.3337 C.3       23 UNK        -0.0398 
     18 CA         -1.0146  -21.6854  -47.4633 C.3       11 UNK         0.1400 
     19 N           0.1718  -21.8170  -46.6113 N.am      11 UNK        -0.5000 
     20 C           0.4745  -22.9251  -45.9187 C.2       10 UNK         0.5000 
     21 O          -0.1914  -23.9602  -45.9636 O.2       10 UNK        -0.5000 
     22 CA          1.6879  -22.8529  -44.9738 C.3       10 UNK         0.1400 
     23 CB          3.0085  -22.9618  -45.7507 C.3       10 UNK        -0.1800 
     24 N           1.6861  -21.6414  -44.1531 N.am      10 UNK        -0.5000 
     25 C           0.7477  -21.3530  -43.2391 C.2       9 UNK         0.5000 
     26 O          -0.1880  -22.1015  -42.9603 O.2       9 UNK        -0.5000 
     27 CA          0.8388  -19.9808  -42.5505 C.3       9 UNK         0.1400 
     28 CB          1.8419  -20.0170  -41.3881 C.3       9 UNK        -0.1800 
     29 N           1.1999  -18.9097  -43.4763 N.am      9 UNK        -0.5000 
     30 C           0.4650  -18.5244  -44.5277 C.2       8 UNK         0.5000 
     31 O          -0.6285  -19.0068  -44.8120 O.2       8 UNK        -0.5000 
     32 CA          1.0830  -17.4552  -45.4432 C.3       8 UNK         0.1400 
     33 CB          0.9648  -16.0594  -44.8174 C.3       8 UNK        -0.1800 
     34 N           2.4851  -17.7277  -45.7549 N.am      8 UNK        -0.5000 
     35 C           2.9319  -18.8142  -46.3986 C.2       7 UNK         0.5000 
     36 O           2.2016  -19.7009  -46.8377 O.2       7 UNK        -0.5000 
     37 CA          4.4586  -18.9463  -46.5287 C.3       7 UNK         0.1400 
     38 CB          4.9787  -18.0995  -47.6999 C.3       7 UNK        -0.1800 
     39 N           5.1519  -18.5615  -45.2968 N.am      7 UNK        -0.5000 
     40 C           5.0908  -19.2600  -44.1541 C.2       6 UNK         0.5000 
     41 O           4.4648  -20.3132  -44.0288 O.2       6 UNK        -0.5000 
     42 CA          5.8142  -18.6527  -42.9360 C.3       6 UNK         0.1400 
     43 CB          7.3255  -18.9179  -43.0124 C.3       6 UNK        -0.1800 
     44 N           5.5765  -17.2140  -42.7613 N.am      6 UNK        -0.5000 
     45 C           4.3693  -16.6692  -42.5642 C.2       5 UNK         0.5000 
     46 O           3.3224  -17.3206  -42.5804 O.2       5 UNK        -0.5000 
     47 CA          4.3046  -15.1527  -42.3254 C.3       5 UNK         0.1400 
     48 CB          4.5428  -14.3709  -43.6285 C.3       5 UNK        -0.1800 
     49 N           2.9742  -14.8432  -41.8109 N.am      5 UNK        -0.5000 
     50 C           2.6625  -13.9186  -40.9000 C.2       4 UNK         0.5000 
     51 O           3.4716  -13.1176  -40.4277 O.2       4 UNK        -0.5000 
     52 CA          1.1846  -13.9141  -40.4559 C.3       4 UNK         0.1400 
     53 CB          0.8970  -12.9423  -39.2913 C.3       4 UNK        -0.1800 
     54 N           0.2661  -13.6878  -41.5805 N.am      4 UNK        -0.5000 
     55 C           0.1531  -12.5798  -42.3300 C.2       3 UNK         0.5000 
     56 O           0.8350  -11.5687  -42.1575 O.2       3 UNK        -0.5000 
     57 CA         -0.8903  -12.5829  -43.4712 C.3       3 UNK         0.1400 
     58 CB         -0.2423  -12.1785  -44.8067 C.3       3 UNK        -0.1800 
     59 N          -1.5790  -13.8600  -43.6728 N.am      3 UNK        -0.5000 
     60 C          -2.5917  -14.3530  -42.9529 C.2       2 UNK         0.5000 
     61 O          -3.0642  -13.7818  -41.9694 O.2       2 UNK        -0.5000 
     62 CA         -3.1610  -15.7121  -43.4272 C.3       2 UNK         0.1400 
     63 CB         -4.1790  -16.3034  -42.4356 C.3       2 UNK        -0.1800 
     64 N          -3.7860  -15.6471  -44.7526 N.am      2 UNK        -0.5000 
     65 C          -3.1485  -15.4938  -45.9228 C.2       1 UNK         0.5000 
     66 O          -1.9280  -15.3534  -46.0149 O.2       1 UNK        -0.5000 
     67 C          -2.3229  -21.7769  -46.6519 C.2       11 UNK         0.5000 
     68 O          -3.2525  -22.4481  -47.0980 O.2       11 UNK        -0.5000 
     69 N          -2.3715  -21.1467  -45.4701 N.am      12 UNK        -0.5000 
     70 CA         -3.5146  -21.1943  -44.5589 C.3       12 UNK         0.1400 
     71 CB         -3.3240  -20.1787  -43.4236 C.3       12 UNK        -0.1800 
     72 C          -3.7789  -22.6064  -44.0073 C.2       12 UNK         0.5000 
     73 O          -4.9344  -23.0289  -43.9707 O.2       12 UNK        -0.5000 
     74 N          -2.7110  -23.3306  -43.6421 N.am      13 UNK        -0.5000 
     75 CA         -2.7618  -24.7282  -43.2039 C.3       13 UNK         0.1400 
     76 CB         -1.3870  -25.1484  -42.6630 C.3       13 UNK        -0.1800 
     77 C          -3.2252  -25.6886  -44.3160 C.2       13 UNK         0.5000 
     78 O          -3.9666  -26.6311  -44.0359 O.2       13 UNK        -0.5000 
     79 N          -2.8103  -25.4126  -45.5597 N.am      14 UNK        -0.5000 
     80 CA         -3.2399  -26.1274  -46.7639 C.3       14 UNK         0.1400 
     81 CB         -2.2259  -25.8510  -47.8858 C.3       14 UNK        -0.1800 
     82 C          -4.6647  -25.7553  -47.2281 C.2       14 UNK         0.5000 
     83 O          -5.2101  -26.4460  -48.0897 O.2       14 UNK        -0.5000 
     84 N          -5.2244  -24.6670  -46.6767 N.am      15 UNK        -0.5000 
     85 CA         -6.4847  -24.0138  -47.0474 C.3       15 UNK         0.1400 
     86 CB         -7.6926  -24.9268  -46.7534 C.3       15 UNK        -0.1800 
     87 C          -6.4690  -23.4712  -48.4933 C.2       15 UNK         0.5000 
     88 O          -7.4998  -23.4596  -49.1698 O.2       15 UNK        -0.5000 
     89 N          -5.2936  -23.0156  -48.9438 N.am      16 UNK        -0.5000 
     90 CA         -5.0245  -22.5084  -50.2865 C.3       16 UNK         0.1400 
     91 CB         -3.5362  -22.7276  -50.6122 C.3       16 UNK        -0.1800 
     92 C          -5.4625  -21.0392  -50.4356 C.2       16 UNK         0.5000 
     93 O          -4.6431  -20.1720  -50.7399 O.2       16 UNK        -0.5000 
     94 N          -6.7611  -20.7856  -50.2172 N.am      17 UNK        -0.5000 
     95 CA         -7.4162  -19.5022  -50.4875 C.3       17 UNK         0.1400 
     96 CB         -8.8223  -19.5045  -49.8709 C.3       17 UNK        -0.1800 
     97 C          -7.4687  -19.2042  -51.9975 C.2       17 UNK         0.5000 
     98 O          -7.2646  -18.0610  -52.4067 O.2       17 UNK        -0.5000 
     99 N          -7.6635  -20.2625  -52.7972 N.am      18 UNK        -0.5000 
    100 CA        -7.2805  -20.3077  -54.2033 C.3       18 UNK         0.1400 
    101 CB        -8.0639  -21.4250  -54.9116 C.3       18 UNK        -0.1800 
    102 C         -5.7639  -20.5577  -54.2411 C.2       18 UNK         0.5000 
    103 O         -5.3235  -21.6567  -53.8978 O.2       18 UNK        -0.5000 
    104 N         -5.0004  -19.5083  -54.5670 N.am      19 UNK        -0.5000 
    105 CA        -3.5459  -19.4475  -54.4033 C.3       19 UNK         0.1400 
    106 CB        -3.0818  -18.0151  -54.7108 C.3       19 UNK        -0.1800 
    107 C         -2.7570  -20.4499  -55.2659 C.2       19 UNK         0.5000 
    108 O         -1.6488  -20.8258  -54.8821 O.2       19 UNK        -0.5000 
    109 N         -3.3194  -20.8263  -56.4261 N.am      20 UNK        -0.5000 
    110 CA        -2.7396  -21.7223  -57.4365 C.3       20 UNK         0.1400 
    111 CB        -2.6739  -23.1682  -56.9017 C.3       20 UNK        -0.1800 
    112 C         -1.3815  -21.2037  -57.9576 C.2       20 UNK         0.5000 
    113 O         -0.3974  -21.9443  -57.9826 O.2       20 UNK        -0.5000 
    114 N         -1.3631  -19.9100  -58.3164 N.am      21 UNK        -0.5000 
    115 CA        -0.1898  -19.1075  -58.6883 C.3       21 UNK         0.1400 
    116 CB         0.4813  -19.6458  -59.9702 C.3       21 UNK        -0.1800 
    117 C          0.7975  -18.9105  -57.5155 C.2       21 UNK         0.5000 
    118 O          2.0077  -18.8275  -57.7331 O.2       21 UNK        -0.5000 
    119 N          0.2465  -18.8187  -56.2971 N.am      22 UNK        -0.5000 
    120 CA         0.9526  -18.6402  -55.0166 C.3       22 UNK         0.1400 
    121 C          1.8439  -19.8607  -54.6522 C.2       22 UNK         0.5000 
    122 N          1.2841  -21.0632  -54.6806 N.am      22 UNK        -0.7600 
    123 O          3.0260  -19.7314  -54.3437 O.2       22 UNK        -0.5000 
    124 C124        1.6746  -17.2697  -54.9070 C.3       23 UNK        -0.0398 
    125 S125        0.4971  -15.8777  -55.0351 S.3       23 UNK        -0.2404 
    126 C126        0.5030  -15.2116  -53.3407 C.3       23 UNK        -0.0205 
    127 H127       -5.2922  -19.9609  -47.6413 H         1 UNK         0.0600 
    128 H128       -5.8387  -19.2727  -46.1096 H         1 UNK         0.0600 
    129 H129       -6.5251  -18.6952  -47.6296 H         1 UNK         0.0600 
    130 H130       -5.8912  -16.5030  -47.1711 H         1 UNK         0.3000 
    131 H131       -4.6857  -14.6589  -47.1245 H         1 UNK         0.0600 
    132 H132       -2.4489  -16.1556  -48.5546 H         1 UNK         0.0800 
    133 H133       -2.5848  -14.4334  -48.4167 H         1 UNK         0.0800 
    134 H134       -4.2284  -16.7691  -51.8681 H         1 UNK         0.0800 
    135 H135       -4.0425  -17.6033  -50.3503 H         1 UNK         0.0800 
    136 H136       -2.1586  -15.3725  -52.7422 H         1 UNK         0.1150 
    137 H137        1.6446  -17.0492  -51.6809 H         1 UNK         0.1150 
    138 H138       -1.9075  -18.2862  -49.6320 H         1 UNK         0.1150 
    139 H139        1.8510  -18.6840  -50.0099 H         1 UNK         0.0800 
    140 H140        0.8164  -18.2793  -48.6712 H         1 UNK         0.0800 
    141 H141       -0.8886  -19.5275  -47.7036 H         1 UNK         0.0800 
    142 H142       -1.9734  -20.3015  -48.8347 H         1 UNK         0.0800 
    143 H143       -1.0138  -22.5420  -48.1409 H         1 UNK         0.0600 
    144 H144        0.7918  -21.0129  -46.5599 H         1 UNK         0.3000 
    145 H145        1.6284  -23.7079  -44.2971 H         1 UNK         0.0600 
    146 H146        3.1424  -22.1329  -46.4451 H         1 UNK         0.0600 
    147 H147        3.8634  -22.9716  -45.0744 H         1 UNK         0.0600 
    148 H148        3.0422  -23.8839  -46.3321 H         1 UNK         0.0600 
    149 H149        2.4435  -20.9848  -44.3028 H         1 UNK         0.3000 
    150 H150       -0.1459  -19.7475  -42.1413 H         1 UNK         0.0600 
    151 H151        1.8477  -19.0723  -40.8442 H         1 UNK         0.0600 
    152 H152        2.8572  -20.2061  -41.7381 H         1 UNK         0.0600 
    153 H153        1.5867  -20.8021  -40.6754 H         1 UNK         0.0600 
    154 H154        2.0757  -18.4268  -43.2865 H         1 UNK         0.3000 
    155 H155        0.5143  -17.4587  -46.3754 H         1 UNK         0.0600 
    156 H156       -0.0202  -15.9170  -44.3801 H         1 UNK         0.0600 
    157 H157        1.1125  -15.2805  -45.5652 H         1 UNK         0.0600 
    158 H158        1.6883  -15.9027  -44.0224 H         1 UNK         0.0600 
    159 H159        3.1634  -17.0734  -45.3976 H         1 UNK         0.3000 
    160 H160        4.6862  -19.9938  -46.7380 H         1 UNK         0.0600 
    161 H161        4.8049  -17.0347  -47.5393 H         1 UNK         0.0600 
    162 H162        4.4821  -18.3765  -48.6309 H         1 UNK         0.0600 
    163 H163        6.0488  -18.2466  -47.8473 H         1 UNK         0.0600 
    164 H164        5.6862  -17.7054  -45.3148 H         1 UNK         0.3000 
    165 H165        5.4291  -19.1577  -42.0474 H         1 UNK         0.0600 
    166 H166        7.7849  -18.4005  -43.8554 H         1 UNK         0.0600 
    167 H167        7.8295  -18.5910  -42.1027 H         1 UNK         0.0600 
    168 H168        7.5296  -19.9831  -43.1298 H         1 UNK         0.0600 
    169 H169        6.3933  -16.6203  -42.7446 H         1 UNK         0.3000 
    170 H170        5.0638  -14.8880  -41.5866 H         1 UNK         0.0600 
    171 H171        5.5357  -14.5702  -44.0327 H         1 UNK         0.0600 
    172 H172        3.8148  -14.6328  -44.3970 H         1 UNK         0.0600 
    173 H173        4.4729  -13.2963  -43.4583 H         1 UNK         0.0600 
    174 H174        2.2722  -15.5174  -42.0861 H         1 UNK         0.3000 
    175 H175        0.9736  -14.9198  -40.0889 H         1 UNK         0.0600 
    176 H176       -0.1487  -12.9907  -38.9876 H         1 UNK         0.0600 
    177 H177        1.5004  -13.1948  -38.4187 H         1 UNK         0.0600 
    178 H178        1.1225  -11.9081  -39.5519 H         1 UNK         0.0600 
    179 H179       -0.3450  -14.4571  -41.8093 H         1 UNK         0.3000 
    180 H180       -1.6385  -11.8293  -43.2173 H         1 UNK         0.0600 
    181 H181       -0.9792  -12.1459  -45.6096 H         1 UNK         0.0600 
    182 H182        0.2086  -11.1874  -44.7440 H         1 UNK         0.0600 
    183 H183        0.5415  -12.8778  -45.0996 H         1 UNK         0.0600 
    184 H184       -1.3296  -14.3742  -44.5140 H         1 UNK         0.3000 
    185 H185       -2.3225  -16.4096  -43.4854 H         1 UNK         0.0600 
    186 H186       -4.5132  -17.2910  -42.7533 H         1 UNK         0.0600 
    187 H187       -3.7395  -16.4157  -41.4436 H         1 UNK         0.0600 
    188 H188       -5.0602  -15.6684  -42.3356 H         1 UNK         0.0600 
    189 H189       -4.7904  -15.7459  -44.7701 H         1 UNK         0.3000 
    190 H190       -1.5990  -20.5427  -45.1977 H         1 UNK         0.3000 
    191 H191       -4.3974  -20.8981  -45.1272 H         1 UNK         0.0600 
    192 H192       -4.1828  -20.1762  -42.7516 H         1 UNK         0.0600 
    193 H193       -3.2155  -19.1681  -43.8182 H         1 UNK         0.0600 
    194 H194       -2.4392  -20.4026  -42.8279 H         1 UNK         0.0600 
    195 H195       -1.7935  -22.8920  -43.6507 H         1 UNK         0.3000 
    196 H196       -3.4831  -24.7959  -42.3870 H         1 UNK         0.0600 
    197 H197       -1.3997  -26.1844  -42.3224 H         1 UNK         0.0600 
    198 H198       -1.0927  -24.5308  -41.8143 H         1 UNK         0.0600 
    199 H199       -0.6112  -25.0611  -43.4244 H         1 UNK         0.0600 
    200 H200       -2.1478  -24.6560  -45.6948 H         1 UNK         0.3000 
    201 H201       -3.2325  -27.1988  -46.5539 H         1 UNK         0.0600 
    202 H202       -1.2204  -26.1532  -47.5926 H         1 UNK         0.0600 
    203 H203       -2.1941  -24.7928  -48.1465 H         1 UNK         0.0600 
    204 H204       -2.4804  -26.4037  -48.7909 H         1 UNK         0.0600 
    205 H205       -4.6736  -24.1673  -45.9907 H         1 UNK         0.3000 
    206 H206       -6.5696  -23.1394  -46.4008 H         1 UNK         0.0600 
    207 H207       -7.6704  -25.2894  -45.7257 H         1 UNK         0.0600 
    208 H208       -8.6308  -24.3869  -46.8861 H         1 UNK         0.0600 
    209 H209       -7.7191  -25.7927  -47.4153 H         1 UNK         0.0600 
    210 H210       -4.5163  -22.9706  -48.2867 H         1 UNK         0.3000 
    211 H211       -5.6037  -23.0894  -51.0074 H         1 UNK         0.0600 
    212 H212       -3.3049  -22.3930  -51.6247 H         1 UNK         0.0600 
    213 H213       -3.2707  -23.7830  -50.5499 H         1 UNK         0.0600 
    214 H214       -2.8889  -22.1801  -49.9290 H         1 UNK         0.0600 
    215 H215       -7.3504  -21.5601  -49.9305 H         1 UNK         0.3000 
    216 H216       -6.8312  -18.7104  -50.0154 H         1 UNK         0.0600 
    217 H217       -9.3249  -18.5520  -50.0439 H         1 UNK         0.0600 
    218 H218       -8.7788  -19.6579  -48.7924 H         1 UNK         0.0600 
    219 H219       -9.4487  -20.2895  -50.2962 H         1 UNK         0.0600 
    220 H220       -7.7956  -21.1598  -52.3545 H         1 UNK         0.3000 
    221 H221       -7.5159  -19.3577  -54.6882 H         1 UNK         0.0600 
    222 H222       -7.8822  -22.4012  -54.4600 H         1 UNK         0.0600 
    223 H223       -9.1368  -21.2354  -54.8751 H         1 UNK         0.0600 
    224 H224       -7.7803  -21.4913  -55.9626 H         1 UNK         0.0600 
    225 H225       -5.4556  -18.6387  -54.8052 H         1 UNK         0.3000 
    226 H226       -3.3220  -19.6645  -53.3562 H         1 UNK         0.0600 
    227 H227       -2.0233  -17.8887  -54.4865 H         1 UNK         0.0600 
    228 H228       -3.2301  -17.7571  -55.7601 H         1 UNK         0.0600 
    229 H229       -3.6226  -17.2845  -54.1106 H         1 UNK         0.0600 
    230 H230       -4.2313  -20.4497  -56.6429 H         1 UNK         0.3000 
    231 H231       -3.4202  -21.7172  -58.2891 H         1 UNK         0.0600 
    232 H232       -2.3469  -23.8581  -57.6805 H         1 UNK         0.0600 
    233 H233       -3.6522  -23.5050  -56.5587 H         1 UNK         0.0600 
    234 H234       -1.9775  -23.2623  -56.0679 H         1 UNK         0.0600 
    235 H235       -2.2337  -19.4000  -58.2615 H         1 UNK         0.3000 
    236 H236       -0.5712  -18.1121  -58.9206 H         1 UNK         0.0600 
    237 H237        0.9741  -20.6036  -59.8019 H         1 UNK         0.0600 
    238 H238       -0.2459  -19.7776  -60.7712 H         1 UNK         0.0600 
    239 H239        1.2396  -18.9512  -60.3333 H         1 UNK         0.0600 
    240 H240       -0.7486  -18.9574  -56.2226 H         1 UNK         0.3000 
    241 H241        0.1820  -18.6413  -54.2452 H         1 UNK         0.0600 
    242 H242        1.8306  -21.8781  -54.4537 H         1 UNK         0.3800 
    243 H243        0.2933  -21.1554  -54.8871 H         1 UNK         0.3800 
    244 H244        2.4260  -17.1646  -55.6902 H         1 UNK         0.0800 
    245 H245        2.2196  -17.1948  -53.9661 H         1 UNK         0.0800 
    246 H246        1.5295  -15.0077  -53.0322 H         1 UNK         0.0800 
    247 H247       -0.0027  -14.2449  -53.3477 H         1 UNK         0.0800 
@<TRIPOS>BOND
     1    1    2 1    
     2    1  127 1    
     3    1  128 1    
     4    1  129 1    
     5    2    3 2    
     6    2    4 am   BACKBONE|DICT|INTERRES
     7    4    5 1    
     8    4  130 1    
     9    5    6 1    
    10    5   65 1    
    11    5  131 1    
    12    6    7 1    
    13    6  132 1    
    14    6  133 1    
    15    7    8 1    
    16    8    9 1    
    17    8  134 1    
    18    8  135 1    
    19    9   10 ar   
    20    9   14 ar   
    21   10   11 ar   
    22   10  136 1    
    23   11   12 ar   
    24   11  126 1    
    25   12   13 ar   
    26   12  137 1    
    27   13   14 ar   
    28   13   15 1    
    29   14  138 1    
    30   15   16 1    
    31   15  139 1    
    32   15  140 1    
    33   16   17 1    
    34   17   18 1    
    35   17  141 1    
    36   17  142 1    
    37   18   19 1    
    38   18   67 1    
    39   18  143 1    
    40   19   20 am   BACKBONE|DICT|INTERRES
    41   19  144 1    
    42   20   21 2    
    43   20   22 1    
    44   22   23 1    
    45   22   24 1    
    46   22  145 1    
    47   23  146 1    
    48   23  147 1    
    49   23  148 1    
    50   24   25 am   BACKBONE|DICT|INTERRES
    51   24  149 1    
    52   25   26 2    
    53   25   27 1    
    54   27   28 1    
    55   27   29 1    
    56   27  150 1    
    57   28  151 1    
    58   28  152 1    
    59   28  153 1    
    60   29   30 am   BACKBONE|DICT|INTERRES
    61   29  154 1    
    62   30   31 2    
    63   30   32 1    
    64   32   33 1    
    65   32   34 1    
    66   32  155 1    
    67   33  156 1    
    68   33  157 1    
    69   33  158 1    
    70   34   35 am   BACKBONE|DICT|INTERRES
    71   34  159 1    
    72   35   36 2    
    73   35   37 1    
    74   37   38 1    
    75   37   39 1    
    76   37  160 1    
    77   38  161 1    
    78   38  162 1    
    79   38  163 1    
    80   39   40 am   BACKBONE|DICT|INTERRES
    81   39  164 1    
    82   40   41 2    
    83   40   42 1    
    84   42   43 1    
    85   42   44 1    
    86   42  165 1    
    87   43  166 1    
    88   43  167 1    
    89   43  168 1    
    90   44   45 am   BACKBONE|DICT|INTERRES
    91   44  169 1    
    92   45   46 2    
    93   45   47 1    
    94   47   48 1    
    95   47   49 1    
    96   47  170 1    
    97   48  171 1    
    98   48  172 1    
    99   48  173 1    
   100   49   50 am   BACKBONE|DICT|INTERRES
   101   49  174 1    
   102   50   51 2    
   103   50   52 1    
   104   52   53 1    
   105   52   54 1    
   106   52  175 1    
   107   53  176 1    
   108   53  177 1    
   109   53  178 1    
   110   54   55 am   BACKBONE|DICT|INTERRES
   111   54  179 1    
   112   55   56 2    
   113   55   57 1    
   114   57   58 1    
   115   57   59 1    
   116   57  180 1    
   117   58  181 1    
   118   58  182 1    
   119   58  183 1    
   120   59   60 am   BACKBONE|DICT|INTERRES
   121   59  184 1    
   122   60   61 2    
   123   60   62 1    
   124   62   63 1    
   125   62   64 1    
   126   62  185 1    
   127   63  186 1    
   128   63  187 1    
   129   63  188 1    
   130   64   65 am   BACKBONE|DICT|INTERRES
   131   64  189 1    
   132   65   66 2    
   133   67   68 2    
   134   67   69 am   BACKBONE|DICT|INTERRES
   135   69   70 1    
   136   69  190 1    
   137   70   71 1    
   138   70   72 1    
   139   70  191 1    
   140   71  192 1    
   141   71  193 1    
   142   71  194 1    
   143   72   73 2    
   144   72   74 am   BACKBONE|DICT|INTERRES
   145   74   75 1    
   146   74  195 1    
   147   75   76 1    
   148   75   77 1    
   149   75  196 1    
   150   76  197 1    
   151   76  198 1    
   152   76  199 1    
   153   77   78 2    
   154   77   79 am   BACKBONE|DICT|INTERRES
   155   79   80 1    
   156   79  200 1    
   157   80   81 1    
   158   80   82 1    
   159   80  201 1    
   160   81  202 1    
   161   81  203 1    
   162   81  204 1    
   163   82   83 2    
   164   82   84 am   BACKBONE|DICT|INTERRES
   165   84   85 1    
   166   84  205 1    
   167   85   86 1    
   168   85   87 1    
   169   85  206 1    
   170   86  207 1    
   171   86  208 1    
   172   86  209 1    
   173   87   88 2    
   174   87   89 am   BACKBONE|DICT|INTERRES
   175   89   90 1    
   176   89  210 1    
   177   90   91 1    
   178   90   92 1    
   179   90  211 1    
   180   91  212 1    
   181   91  213 1    
   182   91  214 1    
   183   92   93 2    
   184   92   94 am   BACKBONE|DICT|INTERRES
   185   94   95 1    
   186   94  215 1    
   187   95   96 1    
   188   95   97 1    
   189   95  216 1    
   190   96  217 1    
   191   96  218 1    
   192   96  219 1    
   193   97   98 2    
   194   97   99 am   BACKBONE|DICT|INTERRES
   195   99  100 1    
   196   99  220 1    
   197  100  101 1    
   198  100  102 1    
   199  100  221 1    
   200  101  222 1    
   201  101  223 1    
   202  101  224 1    
   203  102  103 2    
   204  102  104 am   BACKBONE|DICT|INTERRES
   205  104  105 1    
   206  104  225 1    
   207  105  106 1    
   208  105  107 1    
   209  105  226 1    
   210  106  227 1    
   211  106  228 1    
   212  106  229 1    
   213  107  108 2    
   214  107  109 am   BACKBONE|DICT|INTERRES
   215  109  110 1    
   216  109  230 1    
   217  110  111 1    
   218  110  112 1    
   219  110  231 1    
   220  111  232 1    
   221  111  233 1    
   222  111  234 1    
   223  112  113 2    
   224  112  114 am   BACKBONE|DICT|INTERRES
   225  114  115 1    
   226  114  235 1    
   227  115  116 1    
   228  115  117 1    
   229  115  236 1    
   230  116  237 1    
   231  116  238 1    
   232  116  239 1    
   233  117  118 2    
   234  117  119 am   BACKBONE|DICT|INTERRES
   235  119  120 1    
   236  119  240 1    
   237  120  121 1    
   238  120  124 1    
   239  120  241 1    
   240  121  122 am   BACKBONE|DICT|INTERRES
   241  121  123 2    
   242  122  242 1    
   243  122  243 1    
   244  124  125 1    
   245  124  244 1    
   246  124  245 1    
   247  125  126 1    
   248  126  246 1    
   249  126  247 1    
@<TRIPOS>SUBSTRUCTURE
     1 UNK         1 GROUP             0       ****    0 ROOT    
