@<TRIPOS>MOLECULE
3R540
247   249    1
SMALL
USER_CHARGES


@<TRIPOS>ATOM
      1 CA         -4.6582  -16.5255  -45.9165 C.3       0 UNK        -0.1800 
      2 C          -4.0086  -15.4138  -46.7273 C.2       0 UNK         0.5000 
      3 O          -4.4744  -14.2749  -46.6876 O.2       0 UNK        -0.5000 
      4 N          -2.9279  -15.7342  -47.4505 N.am      1 UNK        -0.5000 
      5 CA         -2.0863  -14.7776  -48.1731 C.3       1 UNK         0.1400 
      6 C6         -1.2898  -15.4820  -49.2945 C.3       23 UNK        -0.0398 
      7 S7         -0.5980  -14.3253  -50.5275 S.3       23 UNK        -0.2404 
      8 C8          1.1883  -14.3858  -50.1756 C.3       23 UNK        -0.0205 
      9 C9          1.8380  -15.6809  -50.6410 C.ar      23 UNK        -0.0193 
     10 C10         2.2664  -15.8268  -51.9653 C.ar      23 UNK        -0.1150 
     11 C11         2.8879  -17.0085  -52.3858 C.ar      23 UNK        -0.0193 
     12 C12         3.0900  -18.0406  -51.4663 C.ar      23 UNK        -0.1150 
     13 C13         2.6429  -17.9150  -50.1498 C.ar      23 UNK        -0.0193 
     14 C14         2.0282  -16.7310  -49.7400 C.ar      23 UNK        -0.1150 
     15 C15         2.7886  -19.0738  -49.1828 C.3       23 UNK        -0.0205 
     16 S16         1.3216  -20.1448  -49.2827 S.3       23 UNK        -0.2404 
     17 C17         0.6873  -20.1195  -47.5732 C.3       23 UNK        -0.0398 
     18 CA          0.1600  -21.5134  -47.1578 C.3       11 UNK         0.1400 
     19 N           0.2412  -21.7365  -45.7150 N.am      11 UNK        -0.5000 
     20 C           0.0183  -22.9117  -45.1104 C.2       10 UNK         0.5000 
     21 O          -0.2215  -23.9585  -45.7120 O.2       10 UNK        -0.5000 
     22 CA          0.0029  -22.8979  -43.5725 C.3       10 UNK         0.1400 
     23 CB          1.4283  -22.9677  -43.0036 C.3       10 UNK        -0.1800 
     24 N          -0.6822  -21.7156  -43.0485 N.am      10 UNK        -0.5000 
     25 C          -1.9979  -21.4890  -43.1726 C.2       9 UNK         0.5000 
     26 O          -2.7812  -22.2804  -43.6978 O.2       9 UNK        -0.5000 
     27 CA         -2.5143  -20.1321  -42.6608 C.3       9 UNK         0.1400 
     28 CB         -2.7610  -20.1808  -41.1458 C.3       9 UNK        -0.1800 
     29 N          -1.5989  -19.0319  -42.9681 N.am      9 UNK        -0.5000 
     30 C          -1.3527  -18.5765  -44.2046 C.2       8 UNK         0.5000 
     31 O          -1.8887  -19.0216  -45.2186 O.2       8 UNK        -0.5000 
     32 CA         -0.2920  -17.4693  -44.3345 C.3       8 UNK         0.1400 
     33 CB         -0.9243  -16.0949  -44.0785 C.3       8 UNK        -0.1800 
     34 N           0.8583  -17.6567  -43.4430 N.am      8 UNK        -0.5000 
     35 C           1.6724  -18.7248  -43.4694 C.2       7 UNK         0.5000 
     36 O           1.5213  -19.6584  -44.2561 O.2       7 UNK        -0.5000 
     37 CA          2.8315  -18.7987  -42.4565 C.3       7 UNK         0.1400 
     38 CB          4.1910  -18.8809  -43.1686 C.3       7 UNK        -0.1800 
     39 N           2.8460  -17.6828  -41.5116 N.am      7 UNK        -0.5000 
     40 C           2.1270  -17.6416  -40.3807 C.2       6 UNK         0.5000 
     41 O           1.3863  -18.5545  -40.0139 O.2       6 UNK        -0.5000 
     42 CA          2.2285  -16.3624  -39.5244 C.3       6 UNK         0.1400 
     43 CB          3.2407  -16.5583  -38.3856 C.3       6 UNK        -0.1800 
     44 N           2.5939  -15.1641  -40.2846 N.am      6 UNK        -0.5000 
     45 C           1.8553  -14.6223  -41.2620 C.2       5 UNK         0.5000 
     46 O           0.7726  -15.0840  -41.6217 O.2       5 UNK        -0.5000 
     47 CA          2.4201  -13.3848  -41.9881 C.3       5 UNK         0.1400 
     48 CB          3.7107  -12.8108  -41.3613 C.3       5 UNK        -0.1800 
     49 N           2.6189  -13.6437  -43.4166 N.am      5 UNK        -0.5000 
     50 C           3.3809  -14.6010  -43.9705 C.2       4 UNK         0.5000 
     51 O           4.0181  -15.4224  -43.3093 O.2       4 UNK        -0.5000 
     52 CA          3.4571  -14.6626  -45.5125 C.3       4 UNK         0.1400 
     53 CB          2.9442  -16.0083  -46.0452 C.3       4 UNK        -0.1800 
     54 N           2.7246  -13.5819  -46.1771 N.am      4 UNK        -0.5000 
     55 C           3.2007  -12.3411  -46.3632 C.2       3 UNK         0.5000 
     56 O           4.3519  -12.0064  -46.0825 O.2       3 UNK        -0.5000 
     57 CA          2.2244  -11.2800  -46.9182 C.3       3 UNK         0.1400 
     58 CB          2.4634  -11.0485  -48.4171 C.3       3 UNK        -0.1800 
     59 N           0.8111  -11.6022  -46.6984 N.am      3 UNK        -0.5000 
     60 C           0.2349  -11.7238  -45.4946 C.2       2 UNK         0.5000 
     61 O           0.8295  -11.5128  -44.4375 O.2       2 UNK        -0.5000 
     62 CA         -1.2293  -12.1984  -45.4425 C.3       2 UNK         0.1400 
     63 CB         -2.1648  -11.0084  -45.1813 C.3       2 UNK        -0.1800 
     64 N          -1.7197  -12.9324  -46.6143 N.am      2 UNK        -0.5000 
     65 C          -1.1924  -14.0407  -47.1532 C.2       1 UNK         0.5000 
     66 O          -0.0985  -14.5101  -46.8327 O.2       1 UNK        -0.5000 
     67 C          -1.2618  -21.7722  -47.6934 C.2       11 UNK         0.5000 
     68 O          -1.4062  -22.4631  -48.6994 O.2       11 UNK        -0.5000 
     69 N          -2.2868  -21.2806  -46.9819 N.am      12 UNK        -0.5000 
     70 CA         -3.6928  -21.5155  -47.3065 C.3       12 UNK         0.1400 
     71 CB         -4.5924  -20.6396  -46.4254 C.3       12 UNK        -0.1800 
     72 C          -4.0979  -22.9964  -47.2194 C.2       12 UNK         0.5000 
     73 O          -4.8126  -23.4774  -48.0995 O.2       12 UNK        -0.5000 
     74 N          -3.6009  -23.7024  -46.1945 N.am      13 UNK        -0.5000 
     75 CA         -3.7848  -25.1441  -46.0221 C.3       13 UNK         0.1400 
     76 CB         -3.2604  -25.5698  -44.6425 C.3       13 UNK        -0.1800 
     77 C          -3.1239  -25.9701  -47.1432 C.2       13 UNK         0.5000 
     78 O          -3.7104  -26.9554  -47.5919 O.2       13 UNK        -0.5000 
     79 N          -1.9342  -25.5432  -47.5899 N.am      14 UNK        -0.5000 
     80 CA         -1.2131  -26.1336  -48.7180 C.3       14 UNK         0.1400 
     81 CB          0.2421  -25.6397  -48.7114 C.3       14 UNK        -0.1800 
     82 C          -1.8882  -25.8381  -50.0715 C.2       14 UNK         0.5000 
     83 O          -1.9819  -26.7355  -50.9097 O.2       14 UNK        -0.5000 
     84 N          -2.3452  -24.5916  -50.2560 N.am      15 UNK        -0.5000 
     85 CA         -3.0464  -24.1071  -51.4452 C.3       15 UNK         0.1400 
     86 CB         -3.2119  -22.5835  -51.3451 C.3       15 UNK        -0.1800 
     87 C          -4.4071  -24.7911  -51.6594 C.2       15 UNK         0.5000 
     88 O          -4.7201  -25.1629  -52.7913 O.2       15 UNK        -0.5000 
     89 N          -5.1662  -24.9638  -50.5669 N.am      16 UNK        -0.5000 
     90 CA         -6.4518  -25.6572  -50.4654 C.3       16 UNK         0.1400 
     91 CB         -6.2539  -27.1796  -50.6293 C.3       16 UNK        -0.1800 
     92 C          -7.5225  -25.0745  -51.4107 C.2       16 UNK         0.5000 
     93 O          -8.2282  -24.1425  -51.0241 O.2       16 UNK        -0.5000 
     94 N          -7.6279  -25.6359  -52.6224 N.am      17 UNK        -0.5000 
     95 CA         -8.5282  -25.1864  -53.6835 C.3       17 UNK         0.1400 
     96 CB         -8.6808  -26.3143  -54.7157 C.3       17 UNK        -0.1800 
     97 C          -8.0602  -23.8874  -54.3694 C.2       17 UNK         0.5000 
     98 O          -8.8981  -23.1606  -54.9062 O.2       17 UNK        -0.5000 
     99 N          -6.7471  -23.6139  -54.3512 N.am      18 UNK        -0.5000 
    100 CA        -6.1620  -22.3659  -54.8453 C.3       18 UNK         0.1400 
    101 CB        -4.6675  -22.5816  -55.1310 C.3       18 UNK        -0.1800 
    102 C         -6.3996  -21.2025  -53.8610 C.2       18 UNK         0.5000 
    103 O         -6.6956  -21.4342  -52.6859 O.2       18 UNK        -0.5000 
    104 N         -6.2769  -19.9672  -54.3640 N.am      19 UNK        -0.5000 
    105 CA        -6.6225  -18.7089  -53.6915 C.3       19 UNK         0.1400 
    106 CB        -6.7579  -17.6102  -54.7618 C.3       19 UNK        -0.1800 
    107 C         -5.6603  -18.3064  -52.5497 C.2       19 UNK         0.5000 
    108 O         -5.0559  -17.2341  -52.5952 O.2       19 UNK        -0.5000 
    109 N         -5.5420  -19.1835  -51.5451 N.am      20 UNK        -0.5000 
    110 CA        -4.7745  -19.0597  -50.2985 C.3       20 UNK         0.1400 
    111 CB        -5.2899  -17.8827  -49.4480 C.3       20 UNK        -0.1800 
    112 C         -3.2397  -19.0149  -50.4714 C.2       20 UNK         0.5000 
    113 O         -2.5273  -18.7785  -49.4950 O.2       20 UNK        -0.5000 
    114 N         -2.7644  -19.2591  -51.6949 N.am      21 UNK        -0.5000 
    115 CA        -1.3767  -19.2431  -52.1336 C.3       21 UNK         0.1400 
    116 CB        -0.8236  -17.8072  -52.0588 C.3       21 UNK        -0.1800 
    117 C         -1.3328  -19.7819  -53.5772 C.2       21 UNK         0.5000 
    118 O         -2.3807  -19.8284  -54.2259 O.2       21 UNK        -0.5000 
    119 N         -0.1731  -20.1819  -54.1141 N.am      22 UNK        -0.5000 
    120 CA         1.1469  -20.2834  -53.4600 C.3       22 UNK         0.1400 
    121 C          1.4617  -21.7143  -52.9306 C.2       22 UNK         0.5000 
    122 N          0.5638  -22.6845  -53.0570 N.am      22 UNK        -0.7600 
    123 O          2.5368  -21.9483  -52.3871 O.2       22 UNK        -0.5000 
    124 C124        2.2801  -19.7638  -54.3864 C.3       23 UNK        -0.0398 
    125 S125        2.0812  -18.0065  -54.8550 S.3       23 UNK        -0.2404 
    126 C126        3.3399  -17.1737  -53.8299 C.3       23 UNK        -0.0205 
    127 H127       -5.6216  -16.7968  -46.3477 H         1 UNK         0.0600 
    128 H128       -4.8227  -16.1950  -44.8910 H         1 UNK         0.0600 
    129 H129       -4.0294  -17.4140  -45.8831 H         1 UNK         0.0600 
    130 H130       -2.5956  -16.6891  -47.4466 H         1 UNK         0.3000 
    131 H131       -2.7409  -14.0446  -48.6502 H         1 UNK         0.0600 
    132 H132       -1.9679  -16.1343  -49.8453 H         1 UNK         0.0800 
    133 H133       -0.5230  -16.1379  -48.8855 H         1 UNK         0.0800 
    134 H134        1.3596  -14.2366  -49.1088 H         1 UNK         0.0800 
    135 H135        1.6673  -13.5467  -50.6814 H         1 UNK         0.0800 
    136 H136        2.1101  -15.0217  -52.6695 H         1 UNK         0.1150 
    137 H137        3.5667  -18.9581  -51.7801 H         1 UNK         0.1150 
    138 H138        1.6819  -16.6356  -48.7217 H         1 UNK         0.1150 
    139 H139        3.6748  -19.6613  -49.4274 H         1 UNK         0.0800 
    140 H140        2.9428  -18.6947  -48.1720 H         1 UNK         0.0800 
    141 H141       -0.0766  -19.3453  -47.4759 H         1 UNK         0.0800 
    142 H142        1.4997  -19.8270  -46.9084 H         1 UNK         0.0800 
    143 H143        0.8114  -22.2681  -47.6048 H         1 UNK         0.0600 
    144 H144        0.4955  -20.9350  -45.1431 H         1 UNK         0.3000 
    145 H145       -0.5408  -23.7831  -43.2357 H         1 UNK         0.0600 
    146 H146        1.4167  -23.0027  -41.9141 H         1 UNK         0.0600 
    147 H147        1.9406  -23.8655  -43.3518 H         1 UNK         0.0600 
    148 H148        2.0309  -22.1109  -43.3054 H         1 UNK         0.0600 
    149 H149       -0.1039  -20.9973  -42.6401 H         1 UNK         0.3000 
    150 H150       -3.4669  -19.9306  -43.1553 H         1 UNK         0.0600 
    151 H151       -3.4496  -20.9867  -40.8884 H         1 UNK         0.0600 
    152 H152       -3.2033  -19.2505  -40.7889 H         1 UNK         0.0600 
    153 H153       -1.8369  -20.3476  -40.5907 H         1 UNK         0.0600 
    154 H154       -1.1055  -18.6144  -42.1923 H         1 UNK         0.3000 
    155 H155        0.0740  -17.4910  -45.3626 H         1 UNK         0.0600 
    156 H156       -1.3161  -16.0130  -43.0643 H         1 UNK         0.0600 
    157 H157       -1.7520  -15.9115  -44.7623 H         1 UNK         0.0600 
    158 H158       -0.1986  -15.2944  -44.2234 H         1 UNK         0.0600 
    159 H159        1.0259  -16.9247  -42.7629 H         1 UNK         0.3000 
    160 H160        2.7010  -19.7306  -41.9025 H         1 UNK         0.0600 
    161 H161        4.4041  -17.9835  -43.7470 H         1 UNK         0.0600 
    162 H162        4.2249  -19.7281  -43.8548 H         1 UNK         0.0600 
    163 H163        5.0012  -19.0145  -42.4517 H         1 UNK         0.0600 
    164 H164        3.3946  -16.8733  -41.7800 H         1 UNK         0.3000 
    165 H165        1.2454  -16.1889  -39.0820 H         1 UNK         0.0600 
    166 H166        3.2595  -15.6947  -37.7205 H         1 UNK         0.0600 
    167 H167        2.9837  -17.4278  -37.7791 H         1 UNK         0.0600 
    168 H168        4.2508  -16.7115  -38.7676 H         1 UNK         0.0600 
    169 H169        3.4845  -14.7424  -40.0648 H         1 UNK         0.3000 
    170 H170        1.6495  -12.6159  -41.9186 H         1 UNK         0.0600 
    171 H171        3.5554  -12.5388  -40.3165 H         1 UNK         0.0600 
    172 H172        4.5426  -13.5145  -41.4054 H         1 UNK         0.0600 
    173 H173        4.0218  -11.9050  -41.8821 H         1 UNK         0.0600 
    174 H174        2.1069  -13.0203  -44.0307 H         1 UNK         0.3000 
    175 H175        4.5147  -14.5885  -45.7738 H         1 UNK         0.0600 
    176 H176        1.8681  -16.1085  -45.9138 H         1 UNK         0.0600 
    177 H177        3.1687  -16.1079  -47.1056 H         1 UNK         0.0600 
    178 H178        3.4189  -16.8493  -45.5410 H         1 UNK         0.0600 
    179 H179        1.7616  -13.7833  -46.4301 H         1 UNK         0.3000 
    180 H180        2.4342  -10.3450  -46.3945 H         1 UNK         0.0600 
    181 H181        2.2649  -11.9471  -48.9988 H         1 UNK         0.0600 
    182 H182        3.4974  -10.7579  -48.6071 H         1 UNK         0.0600 
    183 H183        1.8272  -10.2509  -48.8010 H         1 UNK         0.0600 
    184 H184        0.2554  -11.8067  -47.5156 H         1 UNK         0.3000 
    185 H185       -1.3048  -12.8793  -44.5924 H         1 UNK         0.0600 
    186 H186       -1.8574  -10.4534  -44.2937 H         1 UNK         0.0600 
    187 H187       -2.1695  -10.3110  -46.0199 H         1 UNK         0.0600 
    188 H188       -3.1896  -11.3409  -45.0142 H         1 UNK         0.0600 
    189 H189       -2.6464  -12.6716  -46.9234 H         1 UNK         0.3000 
    190 H190       -2.0957  -20.6664  -46.1955 H         1 UNK         0.3000 
    191 H191       -3.8322  -21.2088  -48.3409 H         1 UNK         0.0600 
    192 H192       -4.4560  -20.8565  -45.3660 H         1 UNK         0.0600 
    193 H193       -5.6455  -20.7955  -46.6627 H         1 UNK         0.0600 
    194 H194       -4.3774  -19.5843  -46.5831 H         1 UNK         0.0600 
    195 H195       -3.0636  -23.2197  -45.4814 H         1 UNK         0.3000 
    196 H196       -4.8574  -25.3467  -46.0522 H         1 UNK         0.0600 
    197 H197       -3.4223  -26.6353  -44.4756 H         1 UNK         0.0600 
    198 H198       -3.7726  -25.0332  -43.8436 H         1 UNK         0.0600 
    199 H199       -2.1920  -25.3804  -44.5399 H         1 UNK         0.0600 
    200 H200       -1.4932  -24.7554  -47.1270 H         1 UNK         0.3000 
    201 H201       -1.2002  -27.2170  -48.5820 H         1 UNK         0.0600 
    202 H202        0.7416  -25.8996  -47.7780 H         1 UNK         0.0600 
    203 H203        0.3038  -24.5579  -48.8316 H         1 UNK         0.0600 
    204 H204        0.8115  -26.0929  -49.5236 H         1 UNK         0.0600 
    205 H205       -2.1468  -23.8947  -49.5405 H         1 UNK         0.3000 
    206 H206       -2.4228  -24.3268  -52.3140 H         1 UNK         0.0600 
    207 H207       -2.2413  -22.0909  -51.2913 H         1 UNK         0.0600 
    208 H208       -3.7375  -22.1728  -52.2052 H         1 UNK         0.0600 
    209 H209       -3.7793  -22.3013  -50.4592 H         1 UNK         0.0600 
    210 H210       -4.8434  -24.5448  -49.6983 H         1 UNK         0.3000 
    211 H211       -6.8096  -25.4838  -49.4493 H         1 UNK         0.0600 
    212 H212       -5.7975  -27.4411  -51.5842 H         1 UNK         0.0600 
    213 H213       -7.2052  -27.7086  -50.5595 H         1 UNK         0.0600 
    214 H214       -5.6087  -27.5707  -49.8421 H         1 UNK         0.0600 
    215 H215       -6.9701  -26.3630  -52.8651 H         1 UNK         0.3000 
    216 H216       -9.5089  -24.9922  -53.2441 H         1 UNK         0.0600 
    217 H217       -9.3695  -26.0257  -55.5108 H         1 UNK         0.0600 
    218 H218       -9.0783  -27.2192  -54.2557 H         1 UNK         0.0600 
    219 H219       -7.7270  -26.5645  -55.1820 H         1 UNK         0.0600 
    220 H220       -6.1254  -24.2383  -53.8466 H         1 UNK         0.3000 
    221 H221       -6.6479  -22.1055  -55.7881 H         1 UNK         0.0600 
    222 H222       -4.1296  -22.9396  -54.2563 H         1 UNK         0.0600 
    223 H223       -4.5263  -23.3163  -55.9238 H         1 UNK         0.0600 
    224 H224       -4.1871  -21.6587  -55.4579 H         1 UNK         0.0600 
    225 H225       -5.9789  -19.8733  -55.3243 H         1 UNK         0.3000 
    226 H226       -7.6059  -18.8372  -53.2342 H         1 UNK         0.0600 
    227 H227       -7.5083  -17.8745  -55.5071 H         1 UNK         0.0600 
    228 H228       -7.0677  -16.6637  -54.3165 H         1 UNK         0.0600 
    229 H229       -5.8145  -17.4367  -55.2811 H         1 UNK         0.0600 
    230 H230       -6.0393  -20.0645  -51.6674 H         1 UNK         0.3000 
    231 H231       -4.9936  -19.9737  -49.7495 H         1 UNK         0.0600 
    232 H232       -4.8473  -17.9075  -48.4533 H         1 UNK         0.0600 
    233 H233       -6.3715  -17.9266  -49.3213 H         1 UNK         0.0600 
    234 H234       -5.0389  -16.9192  -49.8926 H         1 UNK         0.0600 
    235 H235       -3.4172  -19.4424  -52.4470 H         1 UNK         0.3000 
    236 H236       -0.8055  -19.9092  -51.4855 H         1 UNK         0.0600 
    237 H237       -1.5576  -17.0705  -52.3870 H         1 UNK         0.0600 
    238 H238       -0.5310  -17.5666  -51.0386 H         1 UNK         0.0600 
    239 H239        0.0608  -17.6700  -52.6779 H         1 UNK         0.0600 
    240 H240       -0.1885  -20.5012  -55.0709 H         1 UNK         0.3000 
    241 H241        1.1673  -19.6610  -52.5688 H         1 UNK         0.0600 
    242 H242        0.7832  -23.6035  -52.7074 H         1 UNK         0.3800 
    243 H243       -0.3130  -22.5194  -53.5231 H         1 UNK         0.3800 
    244 H244        3.2580  -19.8949  -53.9215 H         1 UNK         0.0800 
    245 H245        2.3111  -20.3538  -55.3036 H         1 UNK         0.0800 
    246 H246        3.5449  -16.1936  -54.2631 H         1 UNK         0.0800 
    247 H247        4.2818  -17.7223  -53.8736 H         1 UNK         0.0800 
@<TRIPOS>BOND
     1    1    2 1    
     2    1  127 1    
     3    1  128 1    
     4    1  129 1    
     5    2    3 2    
     6    2    4 am   BACKBONE|DICT|INTERRES
     7    4    5 1    
     8    4  130 1    
     9    5    6 1    
    10    5   65 1    
    11    5  131 1    
    12    6    7 1    
    13    6  132 1    
    14    6  133 1    
    15    7    8 1    
    16    8    9 1    
    17    8  134 1    
    18    8  135 1    
    19    9   10 ar   
    20    9   14 ar   
    21   10   11 ar   
    22   10  136 1    
    23   11   12 ar   
    24   11  126 1    
    25   12   13 ar   
    26   12  137 1    
    27   13   14 ar   
    28   13   15 1    
    29   14  138 1    
    30   15   16 1    
    31   15  139 1    
    32   15  140 1    
    33   16   17 1    
    34   17   18 1    
    35   17  141 1    
    36   17  142 1    
    37   18   19 1    
    38   18   67 1    
    39   18  143 1    
    40   19   20 am   BACKBONE|DICT|INTERRES
    41   19  144 1    
    42   20   21 2    
    43   20   22 1    
    44   22   23 1    
    45   22   24 1    
    46   22  145 1    
    47   23  146 1    
    48   23  147 1    
    49   23  148 1    
    50   24   25 am   BACKBONE|DICT|INTERRES
    51   24  149 1    
    52   25   26 2    
    53   25   27 1    
    54   27   28 1    
    55   27   29 1    
    56   27  150 1    
    57   28  151 1    
    58   28  152 1    
    59   28  153 1    
    60   29   30 am   BACKBONE|DICT|INTERRES
    61   29  154 1    
    62   30   31 2    
    63   30   32 1    
    64   32   33 1    
    65   32   34 1    
    66   32  155 1    
    67   33  156 1    
    68   33  157 1    
    69   33  158 1    
    70   34   35 am   BACKBONE|DICT|INTERRES
    71   34  159 1    
    72   35   36 2    
    73   35   37 1    
    74   37   38 1    
    75   37   39 1    
    76   37  160 1    
    77   38  161 1    
    78   38  162 1    
    79   38  163 1    
    80   39   40 am   BACKBONE|DICT|INTERRES
    81   39  164 1    
    82   40   41 2    
    83   40   42 1    
    84   42   43 1    
    85   42   44 1    
    86   42  165 1    
    87   43  166 1    
    88   43  167 1    
    89   43  168 1    
    90   44   45 am   BACKBONE|DICT|INTERRES
    91   44  169 1    
    92   45   46 2    
    93   45   47 1    
    94   47   48 1    
    95   47   49 1    
    96   47  170 1    
    97   48  171 1    
    98   48  172 1    
    99   48  173 1    
   100   49   50 am   BACKBONE|DICT|INTERRES
   101   49  174 1    
   102   50   51 2    
   103   50   52 1    
   104   52   53 1    
   105   52   54 1    
   106   52  175 1    
   107   53  176 1    
   108   53  177 1    
   109   53  178 1    
   110   54   55 am   BACKBONE|DICT|INTERRES
   111   54  179 1    
   112   55   56 2    
   113   55   57 1    
   114   57   58 1    
   115   57   59 1    
   116   57  180 1    
   117   58  181 1    
   118   58  182 1    
   119   58  183 1    
   120   59   60 am   BACKBONE|DICT|INTERRES
   121   59  184 1    
   122   60   61 2    
   123   60   62 1    
   124   62   63 1    
   125   62   64 1    
   126   62  185 1    
   127   63  186 1    
   128   63  187 1    
   129   63  188 1    
   130   64   65 am   BACKBONE|DICT|INTERRES
   131   64  189 1    
   132   65   66 2    
   133   67   68 2    
   134   67   69 am   BACKBONE|DICT|INTERRES
   135   69   70 1    
   136   69  190 1    
   137   70   71 1    
   138   70   72 1    
   139   70  191 1    
   140   71  192 1    
   141   71  193 1    
   142   71  194 1    
   143   72   73 2    
   144   72   74 am   BACKBONE|DICT|INTERRES
   145   74   75 1    
   146   74  195 1    
   147   75   76 1    
   148   75   77 1    
   149   75  196 1    
   150   76  197 1    
   151   76  198 1    
   152   76  199 1    
   153   77   78 2    
   154   77   79 am   BACKBONE|DICT|INTERRES
   155   79   80 1    
   156   79  200 1    
   157   80   81 1    
   158   80   82 1    
   159   80  201 1    
   160   81  202 1    
   161   81  203 1    
   162   81  204 1    
   163   82   83 2    
   164   82   84 am   BACKBONE|DICT|INTERRES
   165   84   85 1    
   166   84  205 1    
   167   85   86 1    
   168   85   87 1    
   169   85  206 1    
   170   86  207 1    
   171   86  208 1    
   172   86  209 1    
   173   87   88 2    
   174   87   89 am   BACKBONE|DICT|INTERRES
   175   89   90 1    
   176   89  210 1    
   177   90   91 1    
   178   90   92 1    
   179   90  211 1    
   180   91  212 1    
   181   91  213 1    
   182   91  214 1    
   183   92   93 2    
   184   92   94 am   BACKBONE|DICT|INTERRES
   185   94   95 1    
   186   94  215 1    
   187   95   96 1    
   188   95   97 1    
   189   95  216 1    
   190   96  217 1    
   191   96  218 1    
   192   96  219 1    
   193   97   98 2    
   194   97   99 am   BACKBONE|DICT|INTERRES
   195   99  100 1    
   196   99  220 1    
   197  100  101 1    
   198  100  102 1    
   199  100  221 1    
   200  101  222 1    
   201  101  223 1    
   202  101  224 1    
   203  102  103 2    
   204  102  104 am   BACKBONE|DICT|INTERRES
   205  104  105 1    
   206  104  225 1    
   207  105  106 1    
   208  105  107 1    
   209  105  226 1    
   210  106  227 1    
   211  106  228 1    
   212  106  229 1    
   213  107  108 2    
   214  107  109 am   BACKBONE|DICT|INTERRES
   215  109  110 1    
   216  109  230 1    
   217  110  111 1    
   218  110  112 1    
   219  110  231 1    
   220  111  232 1    
   221  111  233 1    
   222  111  234 1    
   223  112  113 2    
   224  112  114 am   BACKBONE|DICT|INTERRES
   225  114  115 1    
   226  114  235 1    
   227  115  116 1    
   228  115  117 1    
   229  115  236 1    
   230  116  237 1    
   231  116  238 1    
   232  116  239 1    
   233  117  118 2    
   234  117  119 am   BACKBONE|DICT|INTERRES
   235  119  120 1    
   236  119  240 1    
   237  120  121 1    
   238  120  124 1    
   239  120  241 1    
   240  121  122 am   BACKBONE|DICT|INTERRES
   241  121  123 2    
   242  122  242 1    
   243  122  243 1    
   244  124  125 1    
   245  124  244 1    
   246  124  245 1    
   247  125  126 1    
   248  126  246 1    
   249  126  247 1    
@<TRIPOS>SUBSTRUCTURE
     1 UNK         1 GROUP             0       ****    0 ROOT    
