@<TRIPOS>MOLECULE
3R540
247   249    1
SMALL
USER_CHARGES


@<TRIPOS>ATOM
      1 CA         -4.5344  -13.7011  -41.5381 C.3       0 UNK        -0.1800 
      2 C          -3.5603  -13.7611  -42.7056 C.2       0 UNK         0.5000 
      3 O          -3.5263  -12.8413  -43.5236 O.2       0 UNK        -0.5000 
      4 N          -2.7539  -14.8307  -42.7781 N.am      1 UNK        -0.5000 
      5 CA         -1.7720  -15.0787  -43.8466 C.3       1 UNK         0.1400 
      6 C6         -1.2060  -16.5270  -43.7997 C.3       23 UNK        -0.0398 
      7 S7         -1.3188  -17.3747  -45.4106 S.3       23 UNK        -0.2404 
      8 C8          0.3522  -17.1283  -46.0899 C.3       23 UNK        -0.0205 
      9 C9          0.4495  -17.7137  -47.4890 C.ar      23 UNK        -0.0193 
     10 C10        -0.1376  -17.0482  -48.5654 C.ar      23 UNK        -0.1150 
     11 C11        -0.1169  -17.6049  -49.8454 C.ar      23 UNK        -0.0193 
     12 C12         0.4843  -18.8520  -50.0429 C.ar      23 UNK        -0.1150 
     13 C13         1.0874  -19.5287  -48.9767 C.ar      23 UNK        -0.0193 
     14 C14         1.0930  -18.9325  -47.7089 C.ar      23 UNK        -0.1150 
     15 C15         1.7090  -20.9063  -49.2157 C.3       23 UNK        -0.0205 
     16 S16         1.5010  -22.0842  -47.8288 S.3       23 UNK        -0.2404 
     17 C17        -0.2926  -21.9477  -47.5557 C.3       23 UNK        -0.0398 
     18 CA         -0.8879  -23.0817  -46.6987 C.3       11 UNK         0.1400 
     19 N          -0.3373  -23.1067  -45.3397 N.am      11 UNK        -0.5000 
     20 C          -0.6285  -24.0294  -44.4103 C.2       10 UNK         0.5000 
     21 O          -1.3492  -25.0031  -44.6272 O.2       10 UNK        -0.5000 
     22 CA         -0.0891  -23.8008  -42.9834 C.3       10 UNK         0.1400 
     23 CB          1.2044  -24.5996  -42.7687 C.3       10 UNK        -0.1800 
     24 N           0.1596  -22.3950  -42.6527 N.am      10 UNK        -0.5000 
     25 C          -0.7288  -21.3932  -42.7318 C.2       9 UNK         0.5000 
     26 O          -1.9095  -21.5599  -43.0387 O.2       9 UNK        -0.5000 
     27 CA         -0.2118  -19.9615  -42.4764 C.3       9 UNK         0.1400 
     28 CB         -0.7837  -19.4036  -41.1644 C.3       9 UNK        -0.1800 
     29 N           1.2497  -19.8182  -42.4586 N.am      9 UNK        -0.5000 
     30 C           2.0658  -20.0545  -43.4947 C.2       8 UNK         0.5000 
     31 O           1.6758  -20.4835  -44.5825 O.2       8 UNK        -0.5000 
     32 CA          3.5700  -19.8434  -43.2331 C.3       8 UNK         0.1400 
     33 CB          4.1476  -21.0434  -42.4649 C.3       8 UNK        -0.1800 
     34 N           4.3293  -19.6779  -44.4719 N.am      8 UNK        -0.5000 
     35 C           4.2772  -18.6009  -45.2638 C.2       7 UNK         0.5000 
     36 O           3.6552  -17.5727  -44.9794 O.2       7 UNK        -0.5000 
     37 CA          5.0484  -18.6857  -46.5937 C.3       7 UNK         0.1400 
     38 CB          4.8966  -20.0573  -47.2825 C.3       7 UNK        -0.1800 
     39 N           4.5646  -17.6177  -47.4589 N.am      7 UNK        -0.5000 
     40 C           5.1717  -17.1155  -48.5389 C.2       6 UNK         0.5000 
     41 O           6.2237  -17.5548  -49.0049 O.2       6 UNK        -0.5000 
     42 CA          4.4963  -15.8949  -49.1960 C.3       6 UNK         0.1400 
     43 CB          3.5566  -16.3440  -50.3248 C.3       6 UNK        -0.1800 
     44 N           3.7348  -15.0900  -48.2388 N.am      6 UNK        -0.5000 
     45 C           4.2592  -14.3491  -47.2564 C.2       5 UNK         0.5000 
     46 O           5.4717  -14.1768  -47.1160 O.2       5 UNK        -0.5000 
     47 CA          3.2599  -13.7107  -46.2651 C.3       5 UNK         0.1400 
     48 CB          3.9704  -13.0085  -45.0939 C.3       5 UNK        -0.1800 
     49 N           2.3272  -12.7583  -46.8741 N.am      5 UNK        -0.5000 
     50 C           1.3255  -13.0494  -47.7153 C.2       4 UNK         0.5000 
     51 O           1.1282  -14.1689  -48.1864 O.2       4 UNK        -0.5000 
     52 CA          0.3485  -11.9038  -48.0147 C.3       4 UNK         0.1400 
     53 CB         -0.7947  -12.3129  -48.9648 C.3       4 UNK        -0.1800 
     54 N          -0.2057  -11.4337  -46.7481 N.am      4 UNK        -0.5000 
     55 C          -0.5854  -10.1771  -46.4850 C.2       3 UNK         0.5000 
     56 O          -0.5043   -9.2599  -47.3032 O.2       3 UNK        -0.5000 
     57 CA         -1.1574   -9.8794  -45.0817 C.3       3 UNK         0.1400 
     58 CB         -2.6869   -9.7475  -45.1452 C.3       3 UNK        -0.1800 
     59 N          -0.8170  -10.8874  -44.0762 N.am      3 UNK        -0.5000 
     60 C           0.4065  -11.0777  -43.5613 C.2       2 UNK         0.5000 
     61 O           1.3774  -10.3728  -43.8376 O.2       2 UNK        -0.5000 
     62 CA          0.5883  -12.2688  -42.5950 C.3       2 UNK         0.1400 
     63 CB          0.5570  -11.7834  -41.1379 C.3       2 UNK        -0.1800 
     64 N          -0.3979  -13.3419  -42.7556 N.am      2 UNK        -0.5000 
     65 C          -0.6353  -14.0326  -43.8813 C.2       1 UNK         0.5000 
     66 O          -0.0249  -13.8391  -44.9297 O.2       1 UNK        -0.5000 
     67 C          -2.4256  -22.9568  -46.7326 C.2       11 UNK         0.5000 
     68 O          -3.0309  -23.4186  -47.6995 O.2       11 UNK        -0.5000 
     69 N          -3.0364  -22.3392  -45.7107 N.am      12 UNK        -0.5000 
     70 CA         -4.4904  -22.2251  -45.5940 C.3       12 UNK         0.1400 
     71 CB         -4.8444  -21.0974  -44.6134 C.3       12 UNK        -0.1800 
     72 C          -5.1307  -23.5551  -45.1586 C.2       12 UNK         0.5000 
     73 O          -6.2058  -23.8995  -45.6484 O.2       12 UNK        -0.5000 
     74 N          -4.4434  -24.2914  -44.2737 N.am      13 UNK        -0.5000 
     75 CA         -4.8513  -25.6130  -43.7952 C.3       13 UNK         0.1400 
     76 CB         -4.0817  -25.9499  -42.5084 C.3       13 UNK        -0.1800 
     77 C          -4.6411  -26.7018  -44.8625 C.2       13 UNK         0.5000 
     78 O          -5.5065  -27.5595  -45.0394 O.2       13 UNK        -0.5000 
     79 N          -3.5067  -26.6285  -45.5721 N.am      14 UNK        -0.5000 
     80 CA         -3.1453  -27.5218  -46.6753 C.3       14 UNK         0.1400 
     81 CB         -1.6332  -27.4024  -46.9246 C.3       14 UNK        -0.1800 
     82 C          -3.9201  -27.2373  -47.9784 C.2       14 UNK         0.5000 
     83 O          -3.8984  -28.0727  -48.8823 O.2       14 UNK        -0.5000 
     84 N          -4.5523  -26.0568  -48.0614 N.am      15 UNK        -0.5000 
     85 CA         -5.2632  -25.4867  -49.2126 C.3       15 UNK         0.1400 
     86 CB         -6.4474  -26.3739  -49.6474 C.3       15 UNK        -0.1800 
     87 C          -4.3371  -25.1094  -50.3894 C.2       15 UNK         0.5000 
     88 O          -4.8207  -24.8582  -51.4926 O.2       15 UNK        -0.5000 
     89 N          -3.0271  -25.0125  -50.1266 N.am      16 UNK        -0.5000 
     90 CA         -2.0045  -24.5500  -51.0641 C.3       16 UNK         0.1400 
     91 CB         -0.6146  -24.8396  -50.4783 C.3       16 UNK        -0.1800 
     92 C          -2.1496  -23.0552  -51.4039 C.2       16 UNK         0.5000 
     93 O          -1.8220  -22.6571  -52.5203 O.2       16 UNK        -0.5000 
     94 N          -2.6703  -22.2650  -50.4520 N.am      17 UNK        -0.5000 
     95 CA         -3.0227  -20.8578  -50.6494 C.3       17 UNK         0.1400 
     96 CB         -3.3316  -20.2082  -49.2911 C.3       17 UNK        -0.1800 
     97 C          -4.2143  -20.7055  -51.6130 C.2       17 UNK         0.5000 
     98 O          -4.1793  -19.8714  -52.5207 O.2       17 UNK        -0.5000 
     99 N          -5.2377  -21.5467  -51.4085 N.am      18 UNK        -0.5000 
    100 CA        -6.4649  -21.5948  -52.2035 C.3       18 UNK         0.1400 
    101 CB        -7.5117  -22.4383  -51.4601 C.3       18 UNK        -0.1800 
    102 C         -6.2482  -22.1326  -53.6299 C.2       18 UNK         0.5000 
    103 O         -6.9952  -21.7569  -54.5343 O.2       18 UNK        -0.5000 
    104 N         -5.2225  -22.9741  -53.8197 N.am      19 UNK        -0.5000 
    105 CA        -4.8033  -23.5707  -55.0911 C.3       19 UNK         0.1400 
    106 CB        -3.9198  -24.7955  -54.7936 C.3       19 UNK        -0.1800 
    107 C         -4.1181  -22.5607  -56.0414 C.2       19 UNK         0.5000 
    108 O         -3.0062  -22.8036  -56.5126 O.2       19 UNK        -0.5000 
    109 N         -4.8051  -21.4405  -56.3004 N.am      20 UNK        -0.5000 
    110 CA        -4.4716  -20.3427  -57.2149 C.3       20 UNK         0.1400 
    111 CB        -4.3896  -20.8524  -58.6691 C.3       20 UNK        -0.1800 
    112 C         -3.2353  -19.5025  -56.8272 C.2       20 UNK         0.5000 
    113 O         -2.8448  -18.6298  -57.6049 O.2       20 UNK        -0.5000 
    114 N         -2.6480  -19.7399  -55.6455 N.am      21 UNK        -0.5000 
    115 CA        -1.5137  -18.9697  -55.1316 C.3       21 UNK         0.1400 
    116 CB        -0.8097  -19.7572  -54.0184 C.3       21 UNK        -0.1800 
    117 C         -1.9462  -17.5781  -54.6383 C.2       21 UNK         0.5000 
    118 O         -1.2686  -16.5923  -54.9313 O.2       21 UNK        -0.5000 
    119 N         -3.0770  -17.5231  -53.9263 N.am      22 UNK        -0.5000 
    120 CA        -3.6997  -16.2875  -53.4280 C.3       22 UNK         0.1400 
    121 C         -5.2125  -16.4212  -53.0965 C.2       22 UNK         0.5000 
    122 N         -5.7683  -17.6152  -52.9323 N.am      22 UNK        -0.7600 
    123 O         -5.9100  -15.4134  -53.0174 O.2       22 UNK        -0.5000 
    124 C124       -2.9034  -15.6132  -52.2773 C.3       23 UNK        -0.0398 
    125 S125       -2.5365  -16.7247  -50.8728 S.3       23 UNK        -0.2404 
    126 C126       -0.7254  -16.8386  -51.0077 C.3       23 UNK        -0.0205 
    127 H127       -5.5586  -13.6506  -41.9075 H         1 UNK         0.0600 
    128 H128       -4.3438  -12.8124  -40.9364 H         1 UNK         0.0600 
    129 H129       -4.4483  -14.5749  -40.8919 H         1 UNK         0.0600 
    130 H130       -2.8274  -15.5467  -42.0694 H         1 UNK         0.3000 
    131 H131       -2.3209  -14.9477  -44.7820 H         1 UNK         0.0600 
    132 H132       -0.1793  -16.5691  -43.4294 H         1 UNK         0.0800 
    133 H133       -1.7818  -17.1361  -43.1020 H         1 UNK         0.0800 
    134 H134        0.5905  -16.0655  -46.1263 H         1 UNK         0.0800 
    135 H135        1.0792  -17.5953  -45.4254 H         1 UNK         0.0800 
    136 H136       -0.6257  -16.0972  -48.4037 H         1 UNK         0.1150 
    137 H137        0.4869  -19.2939  -51.0293 H         1 UNK         0.1150 
    138 H138        1.5570  -19.4410  -46.8776 H         1 UNK         0.1150 
    139 H139        1.2728  -21.3605  -50.1070 H         1 UNK         0.0800 
    140 H140        2.7716  -20.7824  -49.4252 H         1 UNK         0.0800 
    141 H141       -0.7596  -21.9236  -48.5406 H         1 UNK         0.0800 
    142 H142       -0.5079  -20.9856  -47.0886 H         1 UNK         0.0800 
    143 H143       -0.6346  -24.0350  -47.1652 H         1 UNK         0.0600 
    144 H144        0.2773  -22.3407  -45.0916 H         1 UNK         0.3000 
    145 H145       -0.8444  -24.1726  -42.2883 H         1 UNK         0.0600 
    146 H146        1.5478  -24.5266  -41.7366 H         1 UNK         0.0600 
    147 H147        1.0508  -25.6580  -42.9844 H         1 UNK         0.0600 
    148 H148        2.0073  -24.2452  -43.4167 H         1 UNK         0.0600 
    149 H149        1.1075  -22.1559  -42.4047 H         1 UNK         0.3000 
    150 H150       -0.5871  -19.3522  -43.2988 H         1 UNK         0.0600 
    151 H151       -0.4275  -19.9660  -40.3005 H         1 UNK         0.0600 
    152 H152       -1.8736  -19.4507  -41.1604 H         1 UNK         0.0600 
    153 H153       -0.5059  -18.3588  -41.0242 H         1 UNK         0.0600 
    154 H154        1.6512  -19.4990  -41.5885 H         1 UNK         0.3000 
    155 H155        3.6942  -18.9428  -42.6280 H         1 UNK         0.0600 
    156 H156        4.0388  -21.9718  -43.0276 H         1 UNK         0.0600 
    157 H157        3.6445  -21.1796  -41.5068 H         1 UNK         0.0600 
    158 H158        5.2078  -20.9024  -42.2532 H         1 UNK         0.0600 
    159 H159        4.8286  -20.4917  -44.7981 H         1 UNK         0.3000 
    160 H160        6.1029  -18.5044  -46.3773 H         1 UNK         0.0600 
    161 H161        3.8495  -20.3448  -47.3542 H         1 UNK         0.0600 
    162 H162        5.4142  -20.8397  -46.7271 H         1 UNK         0.0600 
    163 H163        5.3133  -20.0569  -48.2894 H         1 UNK         0.0600 
    164 H164        3.7336  -17.1569  -47.1106 H         1 UNK         0.3000 
    165 H165        5.2797  -15.2677  -49.6261 H         1 UNK         0.0600 
    166 H166        3.1018  -15.4893  -50.8259 H         1 UNK         0.0600 
    167 H167        4.0964  -16.9171  -51.0795 H         1 UNK         0.0600 
    168 H168        2.7533  -16.9756  -49.9453 H         1 UNK         0.0600 
    169 H169        2.7204  -15.0994  -48.3245 H         1 UNK         0.3000 
    170 H170        2.6698  -14.5280  -45.8447 H         1 UNK         0.0600 
    171 H171        4.6212  -13.7010  -44.5585 H         1 UNK         0.0600 
    172 H172        4.5844  -12.1749  -45.4370 H         1 UNK         0.0600 
    173 H173        3.2538  -12.6177  -44.3736 H         1 UNK         0.0600 
    174 H174        2.3998  -11.8067  -46.5447 H         1 UNK         0.3000 
    175 H175        0.9274  -11.1074  -48.4869 H         1 UNK         0.0600 
    176 H176       -0.4025  -12.6782  -49.9147 H         1 UNK         0.0600 
    177 H177       -1.4079  -13.1061  -48.5348 H         1 UNK         0.0600 
    178 H178       -1.4469  -11.4680  -49.1861 H         1 UNK         0.0600 
    179 H179       -0.2600  -12.1364  -46.0158 H         1 UNK         0.3000 
    180 H180       -0.7453   -8.9216  -44.7575 H         1 UNK         0.0600 
    181 H181       -3.1570  -10.6815  -45.4562 H         1 UNK         0.0600 
    182 H182       -2.9852   -8.9762  -45.8565 H         1 UNK         0.0600 
    183 H183       -3.1004   -9.4715  -44.1750 H         1 UNK         0.0600 
    184 H184       -1.5596  -11.5188  -43.8037 H         1 UNK         0.3000 
    185 H185        1.5710  -12.7004  -42.7882 H         1 UNK         0.0600 
    186 H186        1.3005  -11.0031  -40.9691 H         1 UNK         0.0600 
    187 H187       -0.4176  -11.3712  -40.8730 H         1 UNK         0.0600 
    188 H188        0.7790  -12.5955  -40.4454 H         1 UNK         0.0600 
    189 H189       -0.9625  -13.5548  -41.9464 H         1 UNK         0.3000 
    190 H190       -2.4898  -21.9924  -44.9288 H         1 UNK         0.3000 
    191 H191       -4.8996  -21.9590  -46.5712 H         1 UNK         0.0600 
    192 H192       -4.3892  -20.1540  -44.9158 H         1 UNK         0.0600 
    193 H193       -5.9231  -20.9416  -44.5745 H         1 UNK         0.0600 
    194 H194       -4.5106  -21.3214  -43.5999 H         1 UNK         0.0600 
    195 H195       -3.5517  -23.9460  -43.9493 H         1 UNK         0.3000 
    196 H196       -5.9160  -25.5801  -43.5540 H         1 UNK         0.0600 
    197 H197       -4.3898  -26.9188  -42.1135 H         1 UNK         0.0600 
    198 H198       -4.2692  -25.2082  -41.7318 H         1 UNK         0.0600 
    199 H199       -3.0053  -25.9929  -42.6777 H         1 UNK         0.0600 
    200 H200       -2.8118  -25.9338  -45.3069 H         1 UNK         0.3000 
    201 H201       -3.3653  -28.5491  -46.3776 H         1 UNK         0.0600 
    202 H202       -1.3084  -28.0870  -47.7092 H         1 UNK         0.0600 
    203 H203       -1.0651  -27.6454  -46.0264 H         1 UNK         0.0600 
    204 H204       -1.3552  -26.3941  -47.2325 H         1 UNK         0.0600 
    205 H205       -4.4749  -25.4408  -47.2639 H         1 UNK         0.3000 
    206 H206       -5.6805  -24.5438  -48.8563 H         1 UNK         0.0600 
    207 H207       -7.0840  -26.6249  -48.7989 H         1 UNK         0.0600 
    208 H208       -7.0720  -25.8608  -50.3793 H         1 UNK         0.0600 
    209 H209       -6.1128  -27.3048  -50.1052 H         1 UNK         0.0600 
    210 H210       -2.7383  -25.1533  -49.1694 H         1 UNK         0.3000 
    211 H211       -2.1131  -25.1169  -51.9908 H         1 UNK         0.0600 
    212 H212       -0.4451  -24.2946  -49.5504 H         1 UNK         0.0600 
    213 H213        0.1706  -24.5468  -51.1765 H         1 UNK         0.0600 
    214 H214       -0.4864  -25.9024  -50.2721 H         1 UNK         0.0600 
    215 H215       -2.9087  -22.6815  -49.5580 H         1 UNK         0.3000 
    216 H216       -2.1653  -20.3384  -51.0784 H         1 UNK         0.0600 
    217 H217       -3.6779  -19.1819  -49.4186 H         1 UNK         0.0600 
    218 H218       -2.4433  -20.1657  -48.6617 H         1 UNK         0.0600 
    219 H219       -4.1055  -20.7499  -48.7465 H         1 UNK         0.0600 
    220 H220       -5.1615  -22.2198  -50.6620 H         1 UNK         0.3000 
    221 H221       -6.8491  -20.5766  -52.2921 H         1 UNK         0.0600 
    222 H222       -7.1849  -23.4712  -51.3377 H         1 UNK         0.0600 
    223 H223       -7.7177  -22.0309  -50.4702 H         1 UNK         0.0600 
    224 H224       -8.4559  -22.4570  -52.0058 H         1 UNK         0.0600 
    225 H225       -4.7022  -23.2677  -53.0027 H         1 UNK         0.3000 
    226 H226       -5.6968  -23.9295  -55.6059 H         1 UNK         0.0600 
    227 H227       -3.6383  -25.3101  -55.7131 H         1 UNK         0.0600 
    228 H228       -3.0007  -24.5110  -54.2807 H         1 UNK         0.0600 
    229 H229       -4.4435  -25.5183  -54.1677 H         1 UNK         0.0600 
    230 H230       -5.6980  -21.3483  -55.8212 H         1 UNK         0.3000 
    231 H231       -5.3170  -19.6554  -57.1604 H         1 UNK         0.0600 
    232 H232       -3.5260  -21.4997  -58.8237 H         1 UNK         0.0600 
    233 H233       -4.3039  -20.0233  -59.3723 H         1 UNK         0.0600 
    234 H234       -5.2835  -21.4134  -58.9418 H         1 UNK         0.0600 
    235 H235       -3.0182  -20.4700  -55.0544 H         1 UNK         0.3000 
    236 H236       -0.7952  -18.8292  -55.9422 H         1 UNK         0.0600 
    237 H237       -0.4691  -20.7292  -54.3756 H         1 UNK         0.0600 
    238 H238        0.0645  -19.2188  -53.6507 H         1 UNK         0.0600 
    239 H239       -1.4713  -19.9274  -53.1721 H         1 UNK         0.0600 
    240 H240       -3.5470  -18.3873  -53.6842 H         1 UNK         0.3000 
    241 H241       -3.6833  -15.5892  -54.2673 H         1 UNK         0.0600 
    242 H242       -5.2069  -18.4607  -52.8785 H         1 UNK         0.3800 
    243 H243       -6.7551  -17.6630  -52.7374 H         1 UNK         0.3800 
    244 H244       -1.9693  -15.2142  -52.6733 H         1 UNK         0.0800 
    245 H245       -3.4391  -14.7429  -51.8945 H         1 UNK         0.0800 
    246 H246       -0.4627  -17.3042  -51.9582 H         1 UNK         0.0800 
    247 H247       -0.2982  -15.8346  -51.0233 H         1 UNK         0.0800 
@<TRIPOS>BOND
     1    1    2 1    
     2    1  127 1    
     3    1  128 1    
     4    1  129 1    
     5    2    3 2    
     6    2    4 am   BACKBONE|DICT|INTERRES
     7    4    5 1    
     8    4  130 1    
     9    5    6 1    
    10    5   65 1    
    11    5  131 1    
    12    6    7 1    
    13    6  132 1    
    14    6  133 1    
    15    7    8 1    
    16    8    9 1    
    17    8  134 1    
    18    8  135 1    
    19    9   10 ar   
    20    9   14 ar   
    21   10   11 ar   
    22   10  136 1    
    23   11   12 ar   
    24   11  126 1    
    25   12   13 ar   
    26   12  137 1    
    27   13   14 ar   
    28   13   15 1    
    29   14  138 1    
    30   15   16 1    
    31   15  139 1    
    32   15  140 1    
    33   16   17 1    
    34   17   18 1    
    35   17  141 1    
    36   17  142 1    
    37   18   19 1    
    38   18   67 1    
    39   18  143 1    
    40   19   20 am   BACKBONE|DICT|INTERRES
    41   19  144 1    
    42   20   21 2    
    43   20   22 1    
    44   22   23 1    
    45   22   24 1    
    46   22  145 1    
    47   23  146 1    
    48   23  147 1    
    49   23  148 1    
    50   24   25 am   BACKBONE|DICT|INTERRES
    51   24  149 1    
    52   25   26 2    
    53   25   27 1    
    54   27   28 1    
    55   27   29 1    
    56   27  150 1    
    57   28  151 1    
    58   28  152 1    
    59   28  153 1    
    60   29   30 am   BACKBONE|DICT|INTERRES
    61   29  154 1    
    62   30   31 2    
    63   30   32 1    
    64   32   33 1    
    65   32   34 1    
    66   32  155 1    
    67   33  156 1    
    68   33  157 1    
    69   33  158 1    
    70   34   35 am   BACKBONE|DICT|INTERRES
    71   34  159 1    
    72   35   36 2    
    73   35   37 1    
    74   37   38 1    
    75   37   39 1    
    76   37  160 1    
    77   38  161 1    
    78   38  162 1    
    79   38  163 1    
    80   39   40 am   BACKBONE|DICT|INTERRES
    81   39  164 1    
    82   40   41 2    
    83   40   42 1    
    84   42   43 1    
    85   42   44 1    
    86   42  165 1    
    87   43  166 1    
    88   43  167 1    
    89   43  168 1    
    90   44   45 am   BACKBONE|DICT|INTERRES
    91   44  169 1    
    92   45   46 2    
    93   45   47 1    
    94   47   48 1    
    95   47   49 1    
    96   47  170 1    
    97   48  171 1    
    98   48  172 1    
    99   48  173 1    
   100   49   50 am   BACKBONE|DICT|INTERRES
   101   49  174 1    
   102   50   51 2    
   103   50   52 1    
   104   52   53 1    
   105   52   54 1    
   106   52  175 1    
   107   53  176 1    
   108   53  177 1    
   109   53  178 1    
   110   54   55 am   BACKBONE|DICT|INTERRES
   111   54  179 1    
   112   55   56 2    
   113   55   57 1    
   114   57   58 1    
   115   57   59 1    
   116   57  180 1    
   117   58  181 1    
   118   58  182 1    
   119   58  183 1    
   120   59   60 am   BACKBONE|DICT|INTERRES
   121   59  184 1    
   122   60   61 2    
   123   60   62 1    
   124   62   63 1    
   125   62   64 1    
   126   62  185 1    
   127   63  186 1    
   128   63  187 1    
   129   63  188 1    
   130   64   65 am   BACKBONE|DICT|INTERRES
   131   64  189 1    
   132   65   66 2    
   133   67   68 2    
   134   67   69 am   BACKBONE|DICT|INTERRES
   135   69   70 1    
   136   69  190 1    
   137   70   71 1    
   138   70   72 1    
   139   70  191 1    
   140   71  192 1    
   141   71  193 1    
   142   71  194 1    
   143   72   73 2    
   144   72   74 am   BACKBONE|DICT|INTERRES
   145   74   75 1    
   146   74  195 1    
   147   75   76 1    
   148   75   77 1    
   149   75  196 1    
   150   76  197 1    
   151   76  198 1    
   152   76  199 1    
   153   77   78 2    
   154   77   79 am   BACKBONE|DICT|INTERRES
   155   79   80 1    
   156   79  200 1    
   157   80   81 1    
   158   80   82 1    
   159   80  201 1    
   160   81  202 1    
   161   81  203 1    
   162   81  204 1    
   163   82   83 2    
   164   82   84 am   BACKBONE|DICT|INTERRES
   165   84   85 1    
   166   84  205 1    
   167   85   86 1    
   168   85   87 1    
   169   85  206 1    
   170   86  207 1    
   171   86  208 1    
   172   86  209 1    
   173   87   88 2    
   174   87   89 am   BACKBONE|DICT|INTERRES
   175   89   90 1    
   176   89  210 1    
   177   90   91 1    
   178   90   92 1    
   179   90  211 1    
   180   91  212 1    
   181   91  213 1    
   182   91  214 1    
   183   92   93 2    
   184   92   94 am   BACKBONE|DICT|INTERRES
   185   94   95 1    
   186   94  215 1    
   187   95   96 1    
   188   95   97 1    
   189   95  216 1    
   190   96  217 1    
   191   96  218 1    
   192   96  219 1    
   193   97   98 2    
   194   97   99 am   BACKBONE|DICT|INTERRES
   195   99  100 1    
   196   99  220 1    
   197  100  101 1    
   198  100  102 1    
   199  100  221 1    
   200  101  222 1    
   201  101  223 1    
   202  101  224 1    
   203  102  103 2    
   204  102  104 am   BACKBONE|DICT|INTERRES
   205  104  105 1    
   206  104  225 1    
   207  105  106 1    
   208  105  107 1    
   209  105  226 1    
   210  106  227 1    
   211  106  228 1    
   212  106  229 1    
   213  107  108 2    
   214  107  109 am   BACKBONE|DICT|INTERRES
   215  109  110 1    
   216  109  230 1    
   217  110  111 1    
   218  110  112 1    
   219  110  231 1    
   220  111  232 1    
   221  111  233 1    
   222  111  234 1    
   223  112  113 2    
   224  112  114 am   BACKBONE|DICT|INTERRES
   225  114  115 1    
   226  114  235 1    
   227  115  116 1    
   228  115  117 1    
   229  115  236 1    
   230  116  237 1    
   231  116  238 1    
   232  116  239 1    
   233  117  118 2    
   234  117  119 am   BACKBONE|DICT|INTERRES
   235  119  120 1    
   236  119  240 1    
   237  120  121 1    
   238  120  124 1    
   239  120  241 1    
   240  121  122 am   BACKBONE|DICT|INTERRES
   241  121  123 2    
   242  122  242 1    
   243  122  243 1    
   244  124  125 1    
   245  124  244 1    
   246  124  245 1    
   247  125  126 1    
   248  126  246 1    
   249  126  247 1    
@<TRIPOS>SUBSTRUCTURE
     1 UNK         1 GROUP             0       ****    0 ROOT    
