@<TRIPOS>MOLECULE
3R540
247   249    1
SMALL
USER_CHARGES


@<TRIPOS>ATOM
      1 CA         -5.4325  -16.0642  -43.6865 C.3       0 UNK        -0.1800 
      2 C          -4.7266  -17.1128  -44.5453 C.2       0 UNK         0.5000 
      3 O          -4.9189  -18.3018  -44.3076 O.2       0 UNK        -0.5000 
      4 N          -3.9215  -16.7336  -45.5493 N.am      1 UNK        -0.5000 
      5 CA         -3.5497  -15.3615  -45.9029 C.3       1 UNK         0.1400 
      6 C6         -3.0250  -15.2429  -47.3581 C.3       23 UNK        -0.0398 
      7 S7         -1.5514  -16.2522  -47.7538 S.3       23 UNK        -0.2404 
      8 C8         -2.1475  -17.2588  -49.1447 C.3       23 UNK        -0.0205 
      9 C9         -1.0077  -18.0213  -49.8037 C.ar      23 UNK        -0.0193 
     10 C10        -0.4156  -17.5282  -50.9684 C.ar      23 UNK        -0.1150 
     11 C11         0.6014  -18.2428  -51.6092 C.ar      23 UNK        -0.0193 
     12 C12         1.0447  -19.4504  -51.0601 C.ar      23 UNK        -0.1150 
     13 C13         0.4777  -19.9433  -49.8813 C.ar      23 UNK        -0.0193 
     14 C14        -0.5521  -19.2271  -49.2649 C.ar      23 UNK        -0.1150 
     15 C15         0.9515  -21.2587  -49.2809 C.3       23 UNK        -0.0205 
     16 S16         1.7163  -21.0193  -47.6432 S.3       23 UNK        -0.2404 
     17 C17         1.7347  -22.7268  -46.9969 C.3       23 UNK        -0.0398 
     18 CA          0.5614  -23.1254  -46.0612 C.3       11 UNK         0.1400 
     19 N           0.6060  -22.5181  -44.7270 N.am      11 UNK        -0.5000 
     20 C          -0.0355  -23.0439  -43.6690 C.2       10 UNK         0.5000 
     21 O          -0.6801  -24.0924  -43.7182 O.2       10 UNK        -0.5000 
     22 CA          0.0154  -22.2685  -42.3401 C.3       10 UNK         0.1400 
     23 CB          1.3585  -22.4799  -41.6266 C.3       10 UNK        -0.1800 
     24 N          -0.2440  -20.8412  -42.5121 N.am      10 UNK        -0.5000 
     25 C          -1.4065  -20.3287  -42.9415 C.2       9 UNK         0.5000 
     26 O          -2.4030  -21.0088  -43.1896 O.2       9 UNK        -0.5000 
     27 CA         -1.4459  -18.8060  -43.1665 C.3       9 UNK         0.1400 
     28 CB         -1.8240  -18.0597  -41.8788 C.3       9 UNK        -0.1800 
     29 N          -0.1762  -18.2926  -43.6781 N.am      9 UNK        -0.5000 
     30 C           0.2886  -18.5539  -44.9070 C.2       8 UNK         0.5000 
     31 O          -0.3204  -19.2340  -45.7300 O.2       8 UNK        -0.5000 
     32 CA          1.6975  -18.0318  -45.2382 C.3       8 UNK         0.1400 
     33 CB          1.6696  -16.5377  -45.5821 C.3       8 UNK        -0.1800 
     34 N           2.6355  -18.2619  -44.1407 N.am      8 UNK        -0.5000 
     35 C           3.0492  -19.4748  -43.7435 C.2       7 UNK         0.5000 
     36 O           2.7169  -20.5251  -44.2917 O.2       7 UNK        -0.5000 
     37 CA          3.9561  -19.5322  -42.4989 C.3       7 UNK         0.1400 
     38 CB          5.4347  -19.4887  -42.9121 C.3       7 UNK        -0.1800 
     39 N           3.6970  -18.4591  -41.5388 N.am      7 UNK        -0.5000 
     40 C           2.5330  -18.2364  -40.9104 C.2       6 UNK         0.5000 
     41 O           1.5430  -18.9576  -41.0334 O.2       6 UNK        -0.5000 
     42 CA          2.4518  -16.9683  -40.0369 C.3       6 UNK         0.1400 
     43 CB          2.6809  -17.3180  -38.5592 C.3       6 UNK        -0.1800 
     44 N           3.4106  -15.9340  -40.4437 N.am      6 UNK        -0.5000 
     45 C           3.3456  -15.2558  -41.5972 C.2       5 UNK         0.5000 
     46 O           2.4382  -15.3934  -42.4203 O.2       5 UNK        -0.5000 
     47 CA          4.5390  -14.3442  -41.9207 C.3       5 UNK         0.1400 
     48 CB          5.5312  -15.0808  -42.8347 C.3       5 UNK        -0.1800 
     49 N           4.0994  -13.1263  -42.5918 N.am      5 UNK        -0.5000 
     50 C           3.6264  -12.0392  -41.9762 C.2       4 UNK         0.5000 
     51 O           3.5343  -11.9356  -40.7522 O.2       4 UNK        -0.5000 
     52 CA          3.1857  -10.8645  -42.8705 C.3       4 UNK         0.1400 
     53 CB          4.3968  -10.1510  -43.5022 C.3       4 UNK        -0.1800 
     54 N           2.1815  -11.2183  -43.8804 N.am      4 UNK        -0.5000 
     55 C           2.2820  -12.0205  -44.9490 C.2       3 UNK         0.5000 
     56 O           3.3087  -12.6269  -45.2618 O.2       3 UNK        -0.5000 
     57 CA          0.9959  -12.1740  -45.7888 C.3       3 UNK         0.1400 
     58 CB          1.1954  -13.0400  -47.0447 C.3       3 UNK        -0.1800 
     59 N          -0.1073  -12.7274  -44.9999 N.am      3 UNK        -0.5000 
     60 C          -0.8647  -12.0443  -44.1320 C.2       2 UNK         0.5000 
     61 O          -0.6914  -10.8487  -43.8858 O.2       2 UNK        -0.5000 
     62 CA         -2.0056  -12.8230  -43.4463 C.3       2 UNK         0.1400 
     63 CB         -2.9291  -11.9158  -42.6130 C.3       2 UNK        -0.1800 
     64 N          -2.8183  -13.5432  -44.4282 N.am      2 UNK        -0.5000 
     65 C          -2.5608  -14.7784  -44.8718 C.2       1 UNK         0.5000 
     66 O          -1.5902  -15.4388  -44.5004 O.2       1 UNK        -0.5000 
     67 C          -0.8234  -22.9710  -46.7201 C.2       11 UNK         0.5000 
     68 O          -1.2694  -23.9125  -47.3745 O.2       11 UNK        -0.5000 
     69 N          -1.4985  -21.8258  -46.5194 N.am      12 UNK        -0.5000 
     70 CA         -2.8303  -21.5295  -47.0625 C.3       12 UNK         0.1400 
     71 CB         -3.2949  -20.1381  -46.6100 C.3       12 UNK        -0.1800 
     72 C          -3.8978  -22.5664  -46.6791 C.2       12 UNK         0.5000 
     73 O          -4.7255  -22.9185  -47.5185 O.2       12 UNK        -0.5000 
     74 N          -3.8271  -23.0648  -45.4383 N.am      13 UNK        -0.5000 
     75 CA         -4.7131  -24.0951  -44.8976 C.3       13 UNK         0.1400 
     76 CB         -4.4386  -24.2391  -43.3930 C.3       13 UNK        -0.1800 
     77 C          -4.5919  -25.4629  -45.6017 C.2       13 UNK         0.5000 
     78 O          -5.5501  -26.2363  -45.5709 O.2       13 UNK        -0.5000 
     79 N          -3.4322  -25.7393  -46.2128 N.am      14 UNK        -0.5000 
     80 CA         -3.1436  -26.9820  -46.9253 C.3       14 UNK         0.1400 
     81 CB         -1.7413  -27.4700  -46.5258 C.3       14 UNK        -0.1800 
     82 C          -3.2337  -26.7963  -48.4488 C.2       14 UNK         0.5000 
     83 O          -3.8415  -27.6247  -49.1277 O.2       14 UNK        -0.5000 
     84 N          -2.6086  -25.7294  -48.9618 N.am      15 UNK        -0.5000 
     85 CA         -2.4216  -25.4819  -50.3906 C.3       15 UNK         0.1400 
     86 CB         -1.1267  -24.6751  -50.5811 C.3       15 UNK        -0.1800 
     87 C          -3.5944  -24.7427  -51.0540 C.2       15 UNK         0.5000 
     88 O          -3.6433  -24.7084  -52.2835 O.2       15 UNK        -0.5000 
     89 N          -4.4810  -24.1234  -50.2585 N.am      16 UNK        -0.5000 
     90 CA         -5.6144  -23.2957  -50.6952 C.3       16 UNK         0.1400 
     91 CB         -6.6880  -24.1635  -51.3853 C.3       16 UNK        -0.1800 
     92 C          -5.1619  -22.0974  -51.5573 C.2       16 UNK         0.5000 
     93 O          -5.7297  -21.8498  -52.6213 O.2       16 UNK        -0.5000 
     94 N          -4.1013  -21.4123  -51.0998 N.am      17 UNK        -0.5000 
     95 CA         -3.4036  -20.3124  -51.7819 C.3       17 UNK         0.1400 
     96 CB         -4.2995  -19.0583  -51.8528 C.3       17 UNK        -0.1800 
     97 C          -2.8371  -20.7412  -53.1534 C.2       17 UNK         0.5000 
     98 O          -3.0098  -20.0361  -54.1502 O.2       17 UNK        -0.5000 
     99 N          -2.2060  -21.9264  -53.1611 N.am      18 UNK        -0.5000 
    100 CA        -1.6588  -22.6420  -54.3182 C.3       18 UNK         0.1400 
    101 CB        -0.4668  -21.8704  -54.9215 C.3       18 UNK        -0.1800 
    102 C         -2.7518  -22.9783  -55.3523 C.2       18 UNK         0.5000 
    103 O         -2.6067  -22.6615  -56.5320 O.2       18 UNK        -0.5000 
    104 N         -3.8546  -23.5741  -54.8748 N.am      19 UNK        -0.5000 
    105 CA        -5.0910  -23.8593  -55.6149 C.3       19 UNK         0.1400 
    106 CB        -4.8651  -24.9961  -56.6327 C.3       19 UNK        -0.1800 
    107 C         -5.6948  -22.5857  -56.2483 C.2       19 UNK         0.5000 
    108 O         -6.0734  -22.5843  -57.4209 O.2       19 UNK        -0.5000 
    109 N         -5.7215  -21.5126  -55.4472 N.am      20 UNK        -0.5000 
    110 CA        -6.1363  -20.1428  -55.7545 C.3       20 UNK         0.1400 
    111 CB        -7.6247  -20.0948  -56.1559 C.3       20 UNK        -0.1800 
    112 C         -5.2387  -19.3882  -56.7602 C.2       20 UNK         0.5000 
    113 O         -5.5775  -18.2572  -57.1147 O.2       20 UNK        -0.5000 
    114 N         -4.1030  -19.9666  -57.1847 N.am      21 UNK        -0.5000 
    115 CA        -3.1698  -19.3465  -58.1333 C.3       21 UNK         0.1400 
    116 CB        -2.1203  -20.3681  -58.5923 C.3       21 UNK        -0.1800 
    117 C         -2.4820  -18.0821  -57.5853 C.2       21 UNK         0.5000 
    118 O         -2.1329  -17.2012  -58.3728 O.2       21 UNK        -0.5000 
    119 N         -2.3298  -17.9954  -56.2577 N.am      22 UNK        -0.5000 
    120 CA        -1.8668  -16.7874  -55.5579 C.3       22 UNK         0.1400 
    121 C         -2.9679  -15.6961  -55.3833 C.2       22 UNK         0.5000 
    122 N         -4.2152  -15.9140  -55.7868 N.am      22 UNK        -0.7600 
    123 O         -2.6811  -14.6140  -54.8786 O.2       22 UNK        -0.5000 
    124 C124       -1.2015  -17.1256  -54.2014 C.3       23 UNK        -0.0398 
    125 S125        0.2723  -18.1904  -54.3646 S.3       23 UNK        -0.2404 
    126 C126        1.2260  -17.7073  -52.8897 C.3       23 UNK        -0.0205 
    127 H127       -4.7168  -15.5122  -43.0778 H         1 UNK         0.0600 
    128 H128       -6.1381  -16.5442  -43.0080 H         1 UNK         0.0600 
    129 H129       -5.9973  -15.3621  -44.2989 H         1 UNK         0.0600 
    130 H130       -3.4257  -17.4452  -46.0651 H         1 UNK         0.3000 
    131 H131       -4.4577  -14.7575  -45.8670 H         1 UNK         0.0600 
    132 H132       -3.8307  -15.5079  -48.0438 H         1 UNK         0.0800 
    133 H133       -2.7870  -14.2026  -47.5866 H         1 UNK         0.0800 
    134 H134       -2.6322  -16.6117  -49.8775 H         1 UNK         0.0800 
    135 H135       -2.9122  -17.9542  -48.7979 H         1 UNK         0.0800 
    136 H136       -0.7551  -16.5891  -51.3803 H         1 UNK         0.1150 
    137 H137        1.8321  -20.0046  -51.5514 H         1 UNK         0.1150 
    138 H138       -0.9841  -19.6084  -48.3538 H         1 UNK         0.1150 
    139 H139        0.0944  -21.9252  -49.1992 H         1 UNK         0.0800 
    140 H140        1.6668  -21.7537  -49.9394 H         1 UNK         0.0800 
    141 H141        1.7803  -23.4169  -47.8411 H         1 UNK         0.0800 
    142 H142        2.6767  -22.8640  -46.4644 H         1 UNK         0.0800 
    143 H143        0.6860  -24.1997  -45.9046 H         1 UNK         0.0600 
    144 H144        1.1564  -21.6698  -44.6223 H         1 UNK         0.3000 
    145 H145       -0.7705  -22.6651  -41.6936 H         1 UNK         0.0600 
    146 H146        1.4120  -21.9077  -40.7001 H         1 UNK         0.0600 
    147 H147        2.1993  -22.1876  -42.2534 H         1 UNK         0.0600 
    148 H148        1.4973  -23.5307  -41.3699 H         1 UNK         0.0600 
    149 H149        0.5064  -20.2021  -42.2726 H         1 UNK         0.3000 
    150 H150       -2.2130  -18.6017  -43.9142 H         1 UNK         0.0600 
    151 H151       -2.7896  -18.4006  -41.5035 H         1 UNK         0.0600 
    152 H152       -1.9056  -16.9872  -42.0571 H         1 UNK         0.0600 
    153 H153       -1.0889  -18.2156  -41.0888 H         1 UNK         0.0600 
    154 H154        0.3896  -17.7475  -43.0448 H         1 UNK         0.3000 
    155 H155        2.0641  -18.5690  -46.1138 H         1 UNK         0.0600 
    156 H156        1.0676  -16.3666  -46.4736 H         1 UNK         0.0600 
    157 H157        2.6699  -16.1561  -45.7869 H         1 UNK         0.0600 
    158 H158        1.2395  -15.9411  -44.7770 H         1 UNK         0.0600 
    159 H159        2.9195  -17.4490  -43.6118 H         1 UNK         0.3000 
    160 H160        3.7709  -20.4803  -41.9920 H         1 UNK         0.0600 
    161 H161        5.6890  -18.5474  -43.4011 H         1 UNK         0.0600 
    162 H162        5.6683  -20.2944  -43.6095 H         1 UNK         0.0600 
    163 H163        6.0902  -19.6080  -42.0492 H         1 UNK         0.0600 
    164 H164        4.4571  -17.8197  -41.3638 H         1 UNK         0.3000 
    165 H165        1.4435  -16.5617  -40.1416 H         1 UNK         0.0600 
    166 H166        2.5560  -16.4419  -37.9225 H         1 UNK         0.0600 
    167 H167        1.9653  -18.0686  -38.2207 H         1 UNK         0.0600 
    168 H168        3.6813  -17.7181  -38.3895 H         1 UNK         0.0600 
    169 H169        4.1861  -15.7687  -39.8177 H         1 UNK         0.3000 
    170 H170        5.0523  -14.0782  -40.9941 H         1 UNK         0.0600 
    171 H171        5.0683  -15.3742  -43.7783 H         1 UNK         0.0600 
    172 H172        6.3923  -14.4537  -43.0665 H         1 UNK         0.0600 
    173 H173        5.9091  -15.9857  -42.3575 H         1 UNK         0.0600 
    174 H174        4.0498  -13.1475  -43.6071 H         1 UNK         0.3000 
    175 H175        2.6946  -10.1433  -42.2152 H         1 UNK         0.0600 
    176 H176        4.9525  -10.8024  -44.1772 H         1 UNK         0.0600 
    177 H177        4.0849   -9.2722  -44.0667 H         1 UNK         0.0600 
    178 H178        5.0920   -9.8129  -42.7328 H         1 UNK         0.0600 
    179 H179        1.2586  -10.8260  -43.7155 H         1 UNK         0.3000 
    180 H180        0.7145  -11.1747  -46.1277 H         1 UNK         0.0600 
    181 H181        1.9575  -12.6112  -47.6965 H         1 UNK         0.0600 
    182 H182        0.2757  -13.1149  -47.6253 H         1 UNK         0.0600 
    183 H183        1.5138  -14.0495  -46.7917 H         1 UNK         0.0600 
    184 H184       -0.2874  -13.7185  -45.1036 H         1 UNK         0.3000 
    185 H185       -1.5403  -13.5349  -42.7609 H         1 UNK         0.0600 
    186 H186       -3.4146  -11.1583  -43.2295 H         1 UNK         0.0600 
    187 H187       -3.7085  -12.4959  -42.1186 H         1 UNK         0.0600 
    188 H188       -2.3700  -11.3974  -41.8329 H         1 UNK         0.0600 
    189 H189       -3.6094  -13.0370  -44.8001 H         1 UNK         0.3000 
    190 H190       -1.0398  -21.0697  -46.0182 H         1 UNK         0.3000 
    191 H191       -2.7430  -21.5268  -48.1501 H         1 UNK         0.0600 
    192 H192       -2.6085  -19.3529  -46.9143 H         1 UNK         0.0600 
    193 H193       -3.3866  -20.0899  -45.5259 H         1 UNK         0.0600 
    194 H194       -4.2709  -19.8930  -47.0310 H         1 UNK         0.0600 
    195 H195       -3.1188  -22.6998  -44.8140 H         1 UNK         0.3000 
    196 H196       -5.7412  -23.7508  -45.0272 H         1 UNK         0.0600 
    197 H197       -4.5875  -23.2929  -42.8720 H         1 UNK         0.0600 
    198 H198       -3.4164  -24.5684  -43.2020 H         1 UNK         0.0600 
    199 H199       -5.1100  -24.9696  -42.9398 H         1 UNK         0.0600 
    200 H200       -2.7094  -25.0307  -46.2252 H         1 UNK         0.3000 
    201 H201       -3.8571  -27.7587  -46.6421 H         1 UNK         0.0600 
    202 H202       -1.6871  -27.6718  -45.4559 H         1 UNK         0.0600 
    203 H203       -0.9715  -26.7350  -46.7649 H         1 UNK         0.0600 
    204 H204       -1.4863  -28.3949  -47.0446 H         1 UNK         0.0600 
    205 H205       -2.1259  -25.0882  -48.3333 H         1 UNK         0.3000 
    206 H206       -2.3027  -26.4377  -50.9054 H         1 UNK         0.0600 
    207 H207       -0.2775  -25.1737  -50.1133 H         1 UNK         0.0600 
    208 H208       -1.2093  -23.6785  -50.1476 H         1 UNK         0.0600 
    209 H209       -0.8887  -24.5568  -51.6385 H         1 UNK         0.0600 
    210 H210       -4.3501  -24.1774  -49.2552 H         1 UNK         0.3000 
    211 H211       -6.0651  -22.8730  -49.7969 H         1 UNK         0.0600 
    212 H212       -6.3299  -24.5879  -52.3235 H         1 UNK         0.0600 
    213 H213       -7.5778  -23.5754  -51.6125 H         1 UNK         0.0600 
    214 H214       -6.9993  -24.9872  -50.7429 H         1 UNK         0.0600 
    215 H215       -3.7065  -21.7082  -50.2199 H         1 UNK         0.3000 
    216 H216       -2.5400  -20.0643  -51.1656 H         1 UNK         0.0600 
    217 H217       -3.7480  -18.2023  -52.2403 H         1 UNK         0.0600 
    218 H218       -4.6671  -18.7826  -50.8646 H         1 UNK         0.0600 
    219 H219       -5.1627  -19.2104  -52.5006 H         1 UNK         0.0600 
    220 H220       -2.1730  -22.4357  -52.2916 H         1 UNK         0.3000 
    221 H221       -1.2820  -23.5961  -53.9477 H         1 UNK         0.0600 
    222 H222       -0.7782  -20.9230  -55.3620 H         1 UNK         0.0600 
    223 H223        0.2871  -21.6534  -54.1647 H         1 UNK         0.0600 
    224 H224        0.0165  -22.4513  -55.7075 H         1 UNK         0.0600 
    225 H225       -3.8645  -23.8361  -53.8907 H         1 UNK         0.3000 
    226 H226       -5.8159  -24.2105  -54.8793 H         1 UNK         0.0600 
    227 H227       -4.4579  -25.8829  -56.1472 H         1 UNK         0.0600 
    228 H228       -5.8031  -25.2875  -57.1065 H         1 UNK         0.0600 
    229 H229       -4.1763  -24.7011  -57.4248 H         1 UNK         0.0600 
    230 H230       -5.4294  -21.6491  -54.4820 H         1 UNK         0.3000 
    231 H231       -6.0370  -19.5988  -54.8144 H         1 UNK         0.0600 
    232 H232       -7.9802  -19.0659  -56.2213 H         1 UNK         0.0600 
    233 H233       -8.2477  -20.6044  -55.4208 H         1 UNK         0.0600 
    234 H234       -7.7990  -20.5603  -57.1262 H         1 UNK         0.0600 
    235 H235       -3.8504  -20.8820  -56.8311 H         1 UNK         0.3000 
    236 H236       -3.7487  -19.0483  -59.0098 H         1 UNK         0.0600 
    237 H237       -1.4559  -20.6542  -57.7767 H         1 UNK         0.0600 
    238 H238       -2.5888  -21.2720  -58.9822 H         1 UNK         0.0600 
    239 H239       -1.4981  -19.9551  -59.3871 H         1 UNK         0.0600 
    240 H240       -2.6295  -18.7673  -55.6687 H         1 UNK         0.3000 
    241 H241       -1.0981  -16.3195  -56.1758 H         1 UNK         0.0600 
    242 H242       -4.9017  -15.1864  -55.6669 H         1 UNK         0.3800 
    243 H243       -4.4860  -16.7813  -56.2358 H         1 UNK         0.3800 
    244 H244       -1.9129  -17.6164  -53.5386 H         1 UNK         0.0800 
    245 H245       -0.8969  -16.2052  -53.7012 H         1 UNK         0.0800 
    246 H246        1.3164  -16.6211  -52.8423 H         1 UNK         0.0800 
    247 H247        2.2429  -18.0886  -52.9931 H         1 UNK         0.0800 
@<TRIPOS>BOND
     1    1    2 1    
     2    1  127 1    
     3    1  128 1    
     4    1  129 1    
     5    2    3 2    
     6    2    4 am   BACKBONE|DICT|INTERRES
     7    4    5 1    
     8    4  130 1    
     9    5    6 1    
    10    5   65 1    
    11    5  131 1    
    12    6    7 1    
    13    6  132 1    
    14    6  133 1    
    15    7    8 1    
    16    8    9 1    
    17    8  134 1    
    18    8  135 1    
    19    9   10 ar   
    20    9   14 ar   
    21   10   11 ar   
    22   10  136 1    
    23   11   12 ar   
    24   11  126 1    
    25   12   13 ar   
    26   12  137 1    
    27   13   14 ar   
    28   13   15 1    
    29   14  138 1    
    30   15   16 1    
    31   15  139 1    
    32   15  140 1    
    33   16   17 1    
    34   17   18 1    
    35   17  141 1    
    36   17  142 1    
    37   18   19 1    
    38   18   67 1    
    39   18  143 1    
    40   19   20 am   BACKBONE|DICT|INTERRES
    41   19  144 1    
    42   20   21 2    
    43   20   22 1    
    44   22   23 1    
    45   22   24 1    
    46   22  145 1    
    47   23  146 1    
    48   23  147 1    
    49   23  148 1    
    50   24   25 am   BACKBONE|DICT|INTERRES
    51   24  149 1    
    52   25   26 2    
    53   25   27 1    
    54   27   28 1    
    55   27   29 1    
    56   27  150 1    
    57   28  151 1    
    58   28  152 1    
    59   28  153 1    
    60   29   30 am   BACKBONE|DICT|INTERRES
    61   29  154 1    
    62   30   31 2    
    63   30   32 1    
    64   32   33 1    
    65   32   34 1    
    66   32  155 1    
    67   33  156 1    
    68   33  157 1    
    69   33  158 1    
    70   34   35 am   BACKBONE|DICT|INTERRES
    71   34  159 1    
    72   35   36 2    
    73   35   37 1    
    74   37   38 1    
    75   37   39 1    
    76   37  160 1    
    77   38  161 1    
    78   38  162 1    
    79   38  163 1    
    80   39   40 am   BACKBONE|DICT|INTERRES
    81   39  164 1    
    82   40   41 2    
    83   40   42 1    
    84   42   43 1    
    85   42   44 1    
    86   42  165 1    
    87   43  166 1    
    88   43  167 1    
    89   43  168 1    
    90   44   45 am   BACKBONE|DICT|INTERRES
    91   44  169 1    
    92   45   46 2    
    93   45   47 1    
    94   47   48 1    
    95   47   49 1    
    96   47  170 1    
    97   48  171 1    
    98   48  172 1    
    99   48  173 1    
   100   49   50 am   BACKBONE|DICT|INTERRES
   101   49  174 1    
   102   50   51 2    
   103   50   52 1    
   104   52   53 1    
   105   52   54 1    
   106   52  175 1    
   107   53  176 1    
   108   53  177 1    
   109   53  178 1    
   110   54   55 am   BACKBONE|DICT|INTERRES
   111   54  179 1    
   112   55   56 2    
   113   55   57 1    
   114   57   58 1    
   115   57   59 1    
   116   57  180 1    
   117   58  181 1    
   118   58  182 1    
   119   58  183 1    
   120   59   60 am   BACKBONE|DICT|INTERRES
   121   59  184 1    
   122   60   61 2    
   123   60   62 1    
   124   62   63 1    
   125   62   64 1    
   126   62  185 1    
   127   63  186 1    
   128   63  187 1    
   129   63  188 1    
   130   64   65 am   BACKBONE|DICT|INTERRES
   131   64  189 1    
   132   65   66 2    
   133   67   68 2    
   134   67   69 am   BACKBONE|DICT|INTERRES
   135   69   70 1    
   136   69  190 1    
   137   70   71 1    
   138   70   72 1    
   139   70  191 1    
   140   71  192 1    
   141   71  193 1    
   142   71  194 1    
   143   72   73 2    
   144   72   74 am   BACKBONE|DICT|INTERRES
   145   74   75 1    
   146   74  195 1    
   147   75   76 1    
   148   75   77 1    
   149   75  196 1    
   150   76  197 1    
   151   76  198 1    
   152   76  199 1    
   153   77   78 2    
   154   77   79 am   BACKBONE|DICT|INTERRES
   155   79   80 1    
   156   79  200 1    
   157   80   81 1    
   158   80   82 1    
   159   80  201 1    
   160   81  202 1    
   161   81  203 1    
   162   81  204 1    
   163   82   83 2    
   164   82   84 am   BACKBONE|DICT|INTERRES
   165   84   85 1    
   166   84  205 1    
   167   85   86 1    
   168   85   87 1    
   169   85  206 1    
   170   86  207 1    
   171   86  208 1    
   172   86  209 1    
   173   87   88 2    
   174   87   89 am   BACKBONE|DICT|INTERRES
   175   89   90 1    
   176   89  210 1    
   177   90   91 1    
   178   90   92 1    
   179   90  211 1    
   180   91  212 1    
   181   91  213 1    
   182   91  214 1    
   183   92   93 2    
   184   92   94 am   BACKBONE|DICT|INTERRES
   185   94   95 1    
   186   94  215 1    
   187   95   96 1    
   188   95   97 1    
   189   95  216 1    
   190   96  217 1    
   191   96  218 1    
   192   96  219 1    
   193   97   98 2    
   194   97   99 am   BACKBONE|DICT|INTERRES
   195   99  100 1    
   196   99  220 1    
   197  100  101 1    
   198  100  102 1    
   199  100  221 1    
   200  101  222 1    
   201  101  223 1    
   202  101  224 1    
   203  102  103 2    
   204  102  104 am   BACKBONE|DICT|INTERRES
   205  104  105 1    
   206  104  225 1    
   207  105  106 1    
   208  105  107 1    
   209  105  226 1    
   210  106  227 1    
   211  106  228 1    
   212  106  229 1    
   213  107  108 2    
   214  107  109 am   BACKBONE|DICT|INTERRES
   215  109  110 1    
   216  109  230 1    
   217  110  111 1    
   218  110  112 1    
   219  110  231 1    
   220  111  232 1    
   221  111  233 1    
   222  111  234 1    
   223  112  113 2    
   224  112  114 am   BACKBONE|DICT|INTERRES
   225  114  115 1    
   226  114  235 1    
   227  115  116 1    
   228  115  117 1    
   229  115  236 1    
   230  116  237 1    
   231  116  238 1    
   232  116  239 1    
   233  117  118 2    
   234  117  119 am   BACKBONE|DICT|INTERRES
   235  119  120 1    
   236  119  240 1    
   237  120  121 1    
   238  120  124 1    
   239  120  241 1    
   240  121  122 am   BACKBONE|DICT|INTERRES
   241  121  123 2    
   242  122  242 1    
   243  122  243 1    
   244  124  125 1    
   245  124  244 1    
   246  124  245 1    
   247  125  126 1    
   248  126  246 1    
   249  126  247 1    
@<TRIPOS>SUBSTRUCTURE
     1 UNK         1 GROUP             0       ****    0 ROOT    
