@<TRIPOS>MOLECULE
3R540
247   249    1
SMALL
USER_CHARGES


@<TRIPOS>ATOM
      1 CA         -2.3470  -13.8203  -41.4849 C.3       0 UNK        -0.1800 
      2 C          -1.3098  -12.7146  -41.6233 C.2       0 UNK         0.5000 
      3 O          -0.9199  -12.1058  -40.6267 O.2       0 UNK        -0.5000 
      4 N          -0.8682  -12.4511  -42.8573 N.am      1 UNK        -0.5000 
      5 CA          0.1865  -11.5003  -43.2110 C.3       1 UNK         0.1400 
      6 C6          0.1429  -11.1033  -44.7152 C.3       23 UNK        -0.0398 
      7 S7         -0.2051  -12.4843  -45.8702 S.3       23 UNK        -0.2404 
      8 C8         -1.8800  -12.0310  -46.4092 C.3       23 UNK        -0.0205 
      9 C9         -2.5901  -13.1845  -47.0963 C.ar      23 UNK        -0.0193 
     10 C10        -2.4723  -13.3695  -48.4774 C.ar      23 UNK        -0.1150 
     11 C11        -3.1856  -14.3883  -49.1170 C.ar      23 UNK        -0.0193 
     12 C12        -4.0282  -15.2114  -48.3669 C.ar      23 UNK        -0.1150 
     13 C13        -4.1192  -15.0649  -46.9812 C.ar      23 UNK        -0.0193 
     14 C14        -3.3990  -14.0471  -46.3508 C.ar      23 UNK        -0.1150 
     15 C15        -4.9979  -16.0009  -46.1670 C.3       23 UNK        -0.0205 
     16 S16        -4.1317  -17.5504  -45.7676 S.3       23 UNK        -0.2404 
     17 C17        -4.3129  -18.4769  -47.3334 C.3       23 UNK        -0.0398 
     18 CA         -3.8712  -19.9622  -47.3231 C.3       11 UNK         0.1400 
     19 N          -2.4289  -20.1316  -47.5130 N.am      11 UNK        -0.5000 
     20 C          -1.8745  -21.2631  -47.9721 C.2       10 UNK         0.5000 
     21 O          -2.5198  -22.2625  -48.2839 O.2       10 UNK        -0.5000 
     22 CA         -0.3438  -21.3133  -48.0787 C.3       10 UNK         0.1400 
     23 CB          0.1281  -20.6299  -49.3706 C.3       10 UNK        -0.1800 
     24 N           0.3284  -20.7350  -46.9160 N.am      10 UNK        -0.5000 
     25 C           0.2102  -21.2042  -45.6645 C.2       9 UNK         0.5000 
     26 O          -0.4727  -22.1834  -45.3613 O.2       9 UNK        -0.5000 
     27 CA          0.9461  -20.4289  -44.5586 C.3       9 UNK         0.1400 
     28 CB          2.4429  -20.7728  -44.5551 C.3       9 UNK        -0.1800 
     29 N           0.7709  -18.9824  -44.6805 N.am      9 UNK        -0.5000 
     30 C          -0.4036  -18.3471  -44.5609 C.2       8 UNK         0.5000 
     31 O          -1.4553  -18.9166  -44.2738 O.2       8 UNK        -0.5000 
     32 CA         -0.4097  -16.8349  -44.8582 C.3       8 UNK         0.1400 
     33 CB          0.1147  -16.0299  -43.6594 C.3       8 UNK        -0.1800 
     34 N           0.3695  -16.5017  -46.0498 N.am      8 UNK        -0.5000 
     35 C           0.0827  -16.9269  -47.2890 C.2       7 UNK         0.5000 
     36 O          -0.8887  -17.6288  -47.5712 O.2       7 UNK        -0.5000 
     37 CA          1.0992  -16.5605  -48.3820 C.3       7 UNK         0.1400 
     38 CB          0.8915  -15.1176  -48.8676 C.3       7 UNK        -0.1800 
     39 N           2.4751  -16.7300  -47.9107 N.am      7 UNK        -0.5000 
     40 C           3.0596  -17.9192  -47.7023 C.2       6 UNK         0.5000 
     41 O           2.5043  -18.9958  -47.9150 O.2       6 UNK        -0.5000 
     42 CA          4.4893  -17.9156  -47.1251 C.3       6 UNK         0.1400 
     43 CB          5.5257  -17.7869  -48.2510 C.3       6 UNK        -0.1800 
     44 N           4.7124  -16.8573  -46.1404 N.am      6 UNK        -0.5000 
     45 C           4.0585  -16.7529  -44.9759 C.2       5 UNK         0.5000 
     46 O           3.2509  -17.5886  -44.5741 O.2       5 UNK        -0.5000 
     47 CA          4.3097  -15.4900  -44.1315 C.3       5 UNK         0.1400 
     48 CB          5.3584  -15.7732  -43.0461 C.3       5 UNK        -0.1800 
     49 N           4.7053  -14.2905  -44.8783 N.am      5 UNK        -0.5000 
     50 C           4.0474  -13.7468  -45.9141 C.2       4 UNK         0.5000 
     51 O           3.1097  -14.2927  -46.4961 O.2       4 UNK        -0.5000 
     52 CA          4.5029  -12.3395  -46.3263 C.3       4 UNK         0.1400 
     53 CB          3.5979  -11.6963  -47.3937 C.3       4 UNK        -0.1800 
     54 N           4.5247  -11.4984  -45.1331 N.am      4 UNK        -0.5000 
     55 C           5.4645  -10.5947  -44.8303 C.2       3 UNK         0.5000 
     56 O           6.4311  -10.3522  -45.5542 O.2       3 UNK        -0.5000 
     57 CA          5.3084   -9.8210  -43.5031 C.3       3 UNK         0.1400 
     58 CB          4.8837   -8.3696  -43.7774 C.3       3 UNK        -0.1800 
     59 N           4.3432  -10.4212  -42.5794 N.am      3 UNK        -0.5000 
     60 C           4.5390  -11.5455  -41.8763 C.2       2 UNK         0.5000 
     61 O           5.5927  -12.1818  -41.8874 O.2       2 UNK        -0.5000 
     62 CA          3.3419  -12.0624  -41.0501 C.3       2 UNK         0.1400 
     63 CB          3.4463  -11.5855  -39.5939 C.3       2 UNK        -0.1800 
     64 N           2.0350  -11.6683  -41.5921 N.am      2 UNK        -0.5000 
     65 C           1.5664  -12.0441  -42.7897 C.2       1 UNK         0.5000 
     66 O           2.1930  -12.7769  -43.5512 O.2       1 UNK        -0.5000 
     67 C          -4.4060  -20.7774  -46.1259 C.2       11 UNK         0.5000 
     68 O          -5.4995  -21.3340  -46.2262 O.2       11 UNK        -0.5000 
     69 N          -3.6178  -20.8835  -45.0439 N.am      12 UNK        -0.5000 
     70 CA         -3.9359  -21.6901  -43.8625 C.3       12 UNK         0.1400 
     71 CB         -2.9436  -21.3754  -42.7334 C.3       12 UNK        -0.1800 
     72 C          -3.9566  -23.1993  -44.1655 C.2       12 UNK         0.5000 
     73 O          -4.8504  -23.9035  -43.6948 O.2       12 UNK        -0.5000 
     74 N          -2.9953  -23.6596  -44.9773 N.am      13 UNK        -0.5000 
     75 CA         -2.9257  -25.0289  -45.4919 C.3       13 UNK         0.1400 
     76 CB         -1.4847  -25.3058  -45.9498 C.3       13 UNK        -0.1800 
     77 C          -3.9033  -25.2911  -46.6554 C.2       13 UNK         0.5000 
     78 O          -4.0710  -26.4461  -47.0503 O.2       13 UNK        -0.5000 
     79 N          -4.4723  -24.2187  -47.2274 N.am      14 UNK        -0.5000 
     80 CA         -5.2960  -24.1704  -48.4412 C.3       14 UNK         0.1400 
     81 CB         -6.6794  -24.7978  -48.1747 C.3       14 UNK        -0.1800 
     82 C          -4.5837  -24.7919  -49.6617 C.2       14 UNK         0.5000 
     83 O          -5.2263  -25.4569  -50.4722 O.2       14 UNK        -0.5000 
     84 N          -3.2524  -24.6292  -49.7165 N.am      15 UNK        -0.5000 
     85 CA         -2.3028  -25.2677  -50.6362 C.3       15 UNK         0.1400 
     86 CB         -2.3673  -24.5965  -52.0201 C.3       15 UNK        -0.1800 
     87 C          -2.4268  -26.8091  -50.7002 C.2       15 UNK         0.5000 
     88 O          -2.2301  -27.3967  -51.7643 O.2       15 UNK        -0.5000 
     89 N          -2.7628  -27.4293  -49.5571 N.am      16 UNK        -0.5000 
     90 CA         -3.0954  -28.8479  -49.3843 C.3       16 UNK         0.1400 
     91 CB         -1.8896  -29.7576  -49.7025 C.3       16 UNK        -0.1800 
     92 C          -4.3836  -29.2348  -50.1431 C.2       16 UNK         0.5000 
     93 O          -4.4324  -30.2777  -50.7975 O.2       16 UNK        -0.5000 
     94 N          -5.3997  -28.3675  -50.0235 N.am      17 UNK        -0.5000 
     95 CA         -6.7149  -28.4137  -50.6674 C.3       17 UNK         0.1400 
     96 CB         -7.5157  -29.6540  -50.2169 C.3       17 UNK        -0.1800 
     97 C          -6.6112  -28.2680  -52.1987 C.2       17 UNK         0.5000 
     98 O          -7.0421  -29.1539  -52.9405 O.2       17 UNK        -0.5000 
     99 N          -6.0333  -27.1457  -52.6407 N.am      18 UNK        -0.5000 
    100 CA        -5.8633  -26.7838  -54.0447 C.3       18 UNK         0.1400 
    101 CB        -4.4518  -27.1862  -54.5053 C.3       18 UNK        -0.1800 
    102 C         -6.0928  -25.2774  -54.2396 C.2       18 UNK         0.5000 
    103 O         -6.0011  -24.4993  -53.2889 O.2       18 UNK        -0.5000 
    104 N         -6.3465  -24.8816  -55.4926 N.am      19 UNK        -0.5000 
    105 CA        -6.5498  -23.4889  -55.9091 C.3       19 UNK         0.1400 
    106 CB        -7.3033  -23.4878  -57.2495 C.3       19 UNK        -0.1800 
    107 C         -5.2419  -22.6729  -56.0178 C.2       19 UNK         0.5000 
    108 O         -5.2980  -21.4755  -56.2981 O.2       19 UNK        -0.5000 
    109 N         -4.0911  -23.3291  -55.8163 N.am      20 UNK        -0.5000 
    110 CA        -2.7455  -22.7666  -55.9415 C.3       20 UNK         0.1400 
    111 CB        -1.7400  -23.9278  -56.0000 C.3       20 UNK        -0.1800 
    112 C         -2.3519  -21.7652  -54.8354 C.2       20 UNK         0.5000 
    113 O         -1.3330  -21.0884  -54.9883 O.2       20 UNK        -0.5000 
    114 N         -3.1329  -21.6853  -53.7469 N.am      21 UNK        -0.5000 
    115 CA        -2.9197  -20.7738  -52.6192 C.3       21 UNK         0.1400 
    116 CB        -3.9858  -21.0291  -51.5407 C.3       21 UNK        -0.1800 
    117 C         -2.9160  -19.2996  -53.0702 C.2       21 UNK         0.5000 
    118 O         -3.9414  -18.8060  -53.5437 O.2       21 UNK        -0.5000 
    119 N         -1.7480  -18.6552  -52.9512 N.am      22 UNK        -0.5000 
    120 CA        -1.4431  -17.2994  -53.4473 C.3       22 UNK         0.1400 
    121 C         -1.3826  -17.1807  -55.0029 C.2       22 UNK         0.5000 
    122 N         -1.2799  -18.2717  -55.7532 N.am      22 UNK        -0.7600 
    123 O         -1.3931  -16.0791  -55.5461 O.2       22 UNK        -0.5000 
    124 C124       -2.3118  -16.1834  -52.7990 C.3       23 UNK        -0.0398 
    125 S125       -2.1958  -16.1672  -50.9809 S.3       23 UNK        -0.2404 
    126 C126       -3.0604  -14.6079  -50.6159 C.3       23 UNK        -0.0205 
    127 H127       -2.5990  -14.2633  -42.4490 H         1 UNK         0.0600 
    128 H128       -3.2613  -13.4246  -41.0429 H         1 UNK         0.0600 
    129 H129       -1.9675  -14.6107  -40.8374 H         1 UNK         0.0600 
    130 H130       -1.2052  -13.0009  -43.6347 H         1 UNK         0.3000 
    131 H131        0.0150  -10.5847  -42.6407 H         1 UNK         0.0600 
    132 H132       -0.6174  -10.3334  -44.8510 H         1 UNK         0.0800 
    133 H133        1.0759  -10.6265  -45.0219 H         1 UNK         0.0800 
    134 H134       -2.4672  -11.7061  -45.5487 H         1 UNK         0.0800 
    135 H135       -1.8211  -11.1732  -47.0809 H         1 UNK         0.0800 
    136 H136       -1.8322  -12.7152  -49.0523 H         1 UNK         0.1150 
    137 H137       -4.5938  -15.9846  -48.8662 H         1 UNK         0.1150 
    138 H138       -3.4787  -13.9179  -45.2806 H         1 UNK         0.1150 
    139 H139       -5.2927  -15.5172  -45.2346 H         1 UNK         0.0800 
    140 H140       -5.9242  -16.2143  -46.7025 H         1 UNK         0.0800 
    141 H141       -3.7592  -17.9532  -48.1126 H         1 UNK         0.0800 
    142 H142       -5.3625  -18.4239  -47.6264 H         1 UNK         0.0800 
    143 H143       -4.3393  -20.4044  -48.2059 H         1 UNK         0.0600 
    144 H144       -1.8401  -19.3267  -47.3129 H         1 UNK         0.3000 
    145 H145       -0.0551  -22.3651  -48.1322 H         1 UNK         0.0600 
    146 H146        1.2013  -20.7558  -49.5131 H         1 UNK         0.0600 
    147 H147       -0.3651  -21.0614  -50.2421 H         1 UNK         0.0600 
    148 H148       -0.0877  -19.5613  -49.3652 H         1 UNK         0.0600 
    149 H149        0.9391  -19.9442  -47.0947 H         1 UNK         0.3000 
    150 H150        0.5250  -20.7369  -43.5994 H         1 UNK         0.0600 
    151 H151        2.5968  -21.8480  -44.4553 H         1 UNK         0.0600 
    152 H152        2.9550  -20.2920  -43.7214 H         1 UNK         0.0600 
    153 H153        2.9319  -20.4538  -45.4759 H         1 UNK         0.0600 
    154 H154        1.6108  -18.4358  -44.8545 H         1 UNK         0.3000 
    155 H155       -1.4405  -16.5294  -45.0455 H         1 UNK         0.0600 
    156 H156       -0.5163  -16.1829  -42.7834 H         1 UNK         0.0600 
    157 H157        0.1238  -14.9618  -43.8747 H         1 UNK         0.0600 
    158 H158        1.1289  -16.3216  -43.3873 H         1 UNK         0.0600 
    159 H159        1.1933  -15.9309  -45.9178 H         1 UNK         0.3000 
    160 H160        0.9388  -17.2285  -49.2308 H         1 UNK         0.0600 
    161 H161        1.0106  -14.3944  -48.0608 H         1 UNK         0.0600 
    162 H162       -0.1121  -14.9847  -49.2691 H         1 UNK         0.0600 
    163 H163        1.5961  -14.8596  -49.6579 H         1 UNK         0.0600 
    164 H164        2.9522  -15.8847  -47.6113 H         1 UNK         0.3000 
    165 H165        4.6460  -18.8739  -46.6255 H         1 UNK         0.0600 
    166 H166        6.5415  -17.8686  -47.8638 H         1 UNK         0.0600 
    167 H167        5.3967  -18.5772  -48.9918 H         1 UNK         0.0600 
    168 H168        5.4391  -16.8319  -48.7709 H         1 UNK         0.0600 
    169 H169        5.3494  -16.1182  -46.3975 H         1 UNK         0.3000 
    170 H170        3.3675  -15.2529  -43.6344 H         1 UNK         0.0600 
    171 H171        5.0858  -16.6495  -42.4563 H         1 UNK         0.0600 
    172 H172        6.3424  -15.9600  -43.4778 H         1 UNK         0.0600 
    173 H173        5.4473  -14.9353  -42.3547 H         1 UNK         0.0600 
    174 H174        5.4543  -13.7508  -44.4691 H         1 UNK         0.3000 
    175 H175        5.5087  -12.4426  -46.7383 H         1 UNK         0.0600 
    176 H176        2.5727  -11.5901  -47.0374 H         1 UNK         0.0600 
    177 H177        3.9599  -10.7071  -47.6735 H         1 UNK         0.0600 
    178 H178        3.5701  -12.3017  -48.3005 H         1 UNK         0.0600 
    179 H179        3.7874  -11.6915  -44.4638 H         1 UNK         0.3000 
    180 H180        6.2863   -9.8057  -43.0174 H         1 UNK         0.0600 
    181 H181        4.8339   -7.7914  -42.8545 H         1 UNK         0.0600 
    182 H182        3.9063   -8.3207  -44.2592 H         1 UNK         0.0600 
    183 H183        5.5979   -7.8695  -44.4331 H         1 UNK         0.0600 
    184 H184        3.4490   -9.9605  -42.4990 H         1 UNK         0.3000 
    185 H185        3.3897  -13.1535  -41.0572 H         1 UNK         0.0600 
    186 H186        3.3795  -10.4993  -39.5204 H         1 UNK         0.0600 
    187 H187        2.6529  -12.0136  -38.9809 H         1 UNK         0.0600 
    188 H188        4.3963  -11.8872  -39.1508 H         1 UNK         0.0600 
    189 H189        1.4427  -11.1120  -40.9906 H         1 UNK         0.3000 
    190 H190       -2.7548  -20.3496  -45.0101 H         1 UNK         0.3000 
    191 H191       -4.9342  -21.4065  -43.5230 H         1 UNK         0.0600 
    192 H192       -1.9159  -21.5895  -43.0282 H         1 UNK         0.0600 
    193 H193       -2.9969  -20.3254  -42.4453 H         1 UNK         0.0600 
    194 H194       -3.1615  -21.9675  -41.8438 H         1 UNK         0.0600 
    195 H195       -2.2541  -23.0273  -45.2680 H         1 UNK         0.3000 
    196 H196       -3.1724  -25.7248  -44.6876 H         1 UNK         0.0600 
    197 H197       -0.7779  -25.1670  -45.1315 H         1 UNK         0.0600 
    198 H198       -1.1880  -24.6413  -46.7627 H         1 UNK         0.0600 
    199 H199       -1.3732  -26.3313  -46.3046 H         1 UNK         0.0600 
    200 H200       -4.2316  -23.3157  -46.8425 H         1 UNK         0.3000 
    201 H201       -5.4427  -23.1152  -48.6756 H         1 UNK         0.0600 
    202 H202       -7.3412  -24.6662  -49.0315 H         1 UNK         0.0600 
    203 H203       -7.1631  -24.3293  -47.3174 H         1 UNK         0.0600 
    204 H204       -6.6082  -25.8676  -47.9763 H         1 UNK         0.0600 
    205 H205       -2.8478  -23.9913  -49.0357 H         1 UNK         0.3000 
    206 H206       -1.3101  -25.0731  -50.2280 H         1 UNK         0.0600 
    207 H207       -2.1178  -23.5402  -51.9422 H         1 UNK         0.0600 
    208 H208       -3.3583  -24.6803  -52.4654 H         1 UNK         0.0600 
    209 H209       -1.6513  -25.0402  -52.7121 H         1 UNK         0.0600 
    210 H210       -2.9488  -26.8544  -48.7428 H         1 UNK         0.3000 
    211 H211       -3.3229  -28.9745  -48.3248 H         1 UNK         0.0600 
    212 H212       -1.0043  -29.4472  -49.1476 H         1 UNK         0.0600 
    213 H213       -2.1004  -30.7909  -49.4248 H         1 UNK         0.0600 
    214 H214       -1.6405  -29.7526  -50.7637 H         1 UNK         0.0600 
    215 H215       -5.2086  -27.5056  -49.5298 H         1 UNK         0.3000 
    216 H216       -7.2562  -27.5351  -50.3131 H         1 UNK         0.0600 
    217 H217       -8.5316  -29.6230  -50.6121 H         1 UNK         0.0600 
    218 H218       -7.0622  -30.5837  -50.5611 H         1 UNK         0.0600 
    219 H219       -7.5915  -29.7000  -49.1305 H         1 UNK         0.0600 
    220 H220       -5.7377  -26.4374  -51.9679 H         1 UNK         0.3000 
    221 H221       -6.6018  -27.3097  -54.6536 H         1 UNK         0.0600 
    222 H222       -3.6812  -26.6428  -53.9583 H         1 UNK         0.0600 
    223 H223       -4.2766  -28.2514  -54.3529 H         1 UNK         0.0600 
    224 H224       -4.3076  -26.9829  -55.5668 H         1 UNK         0.0600 
    225 H225       -6.3957  -25.5755  -56.2253 H         1 UNK         0.3000 
    226 H226       -7.1778  -22.9914  -55.1669 H         1 UNK         0.0600 
    227 H227       -8.2554  -24.0126  -57.1675 H         1 UNK         0.0600 
    228 H228       -7.5242  -22.4707  -57.5761 H         1 UNK         0.0600 
    229 H229       -6.7217  -23.9666  -58.0382 H         1 UNK         0.0600 
    230 H230       -4.1469  -24.3098  -55.5888 H         1 UNK         0.3000 
    231 H231       -2.6946  -22.2266  -56.8891 H         1 UNK         0.0600 
    232 H232       -0.7196  -23.5603  -56.1171 H         1 UNK         0.0600 
    233 H233       -1.9444  -24.5842  -56.8461 H         1 UNK         0.0600 
    234 H234       -1.7694  -24.5317  -55.0929 H         1 UNK         0.0600 
    235 H235       -3.9624  -22.2594  -53.7142 H         1 UNK         0.3000 
    236 H236       -1.9461  -21.0111  -52.1863 H         1 UNK         0.0600 
    237 H237       -3.8431  -20.3622  -50.6896 H         1 UNK         0.0600 
    238 H238       -4.9938  -20.8646  -51.9234 H         1 UNK         0.0600 
    239 H239       -3.9339  -22.0499  -51.1630 H         1 UNK         0.0600 
    240 H240       -0.9566  -19.1590  -52.5791 H         1 UNK         0.3000 
    241 H241       -0.4156  -17.1132  -53.1332 H         1 UNK         0.0600 
    242 H242       -1.2274  -18.1751  -56.7545 H         1 UNK         0.3800 
    243 H243       -1.2572  -19.1996  -55.3396 H         1 UNK         0.3800 
    244 H244       -1.9929  -15.2026  -53.1554 H         1 UNK         0.0800 
    245 H245       -3.3585  -16.2857  -53.0876 H         1 UNK         0.0800 
    246 H246       -2.5253  -13.7800  -51.0835 H         1 UNK         0.0800 
    247 H247       -4.0560  -14.6298  -51.0615 H         1 UNK         0.0800 
@<TRIPOS>BOND
     1    1    2 1    
     2    1  127 1    
     3    1  128 1    
     4    1  129 1    
     5    2    3 2    
     6    2    4 am   BACKBONE|DICT|INTERRES
     7    4    5 1    
     8    4  130 1    
     9    5    6 1    
    10    5   65 1    
    11    5  131 1    
    12    6    7 1    
    13    6  132 1    
    14    6  133 1    
    15    7    8 1    
    16    8    9 1    
    17    8  134 1    
    18    8  135 1    
    19    9   10 ar   
    20    9   14 ar   
    21   10   11 ar   
    22   10  136 1    
    23   11   12 ar   
    24   11  126 1    
    25   12   13 ar   
    26   12  137 1    
    27   13   14 ar   
    28   13   15 1    
    29   14  138 1    
    30   15   16 1    
    31   15  139 1    
    32   15  140 1    
    33   16   17 1    
    34   17   18 1    
    35   17  141 1    
    36   17  142 1    
    37   18   19 1    
    38   18   67 1    
    39   18  143 1    
    40   19   20 am   BACKBONE|DICT|INTERRES
    41   19  144 1    
    42   20   21 2    
    43   20   22 1    
    44   22   23 1    
    45   22   24 1    
    46   22  145 1    
    47   23  146 1    
    48   23  147 1    
    49   23  148 1    
    50   24   25 am   BACKBONE|DICT|INTERRES
    51   24  149 1    
    52   25   26 2    
    53   25   27 1    
    54   27   28 1    
    55   27   29 1    
    56   27  150 1    
    57   28  151 1    
    58   28  152 1    
    59   28  153 1    
    60   29   30 am   BACKBONE|DICT|INTERRES
    61   29  154 1    
    62   30   31 2    
    63   30   32 1    
    64   32   33 1    
    65   32   34 1    
    66   32  155 1    
    67   33  156 1    
    68   33  157 1    
    69   33  158 1    
    70   34   35 am   BACKBONE|DICT|INTERRES
    71   34  159 1    
    72   35   36 2    
    73   35   37 1    
    74   37   38 1    
    75   37   39 1    
    76   37  160 1    
    77   38  161 1    
    78   38  162 1    
    79   38  163 1    
    80   39   40 am   BACKBONE|DICT|INTERRES
    81   39  164 1    
    82   40   41 2    
    83   40   42 1    
    84   42   43 1    
    85   42   44 1    
    86   42  165 1    
    87   43  166 1    
    88   43  167 1    
    89   43  168 1    
    90   44   45 am   BACKBONE|DICT|INTERRES
    91   44  169 1    
    92   45   46 2    
    93   45   47 1    
    94   47   48 1    
    95   47   49 1    
    96   47  170 1    
    97   48  171 1    
    98   48  172 1    
    99   48  173 1    
   100   49   50 am   BACKBONE|DICT|INTERRES
   101   49  174 1    
   102   50   51 2    
   103   50   52 1    
   104   52   53 1    
   105   52   54 1    
   106   52  175 1    
   107   53  176 1    
   108   53  177 1    
   109   53  178 1    
   110   54   55 am   BACKBONE|DICT|INTERRES
   111   54  179 1    
   112   55   56 2    
   113   55   57 1    
   114   57   58 1    
   115   57   59 1    
   116   57  180 1    
   117   58  181 1    
   118   58  182 1    
   119   58  183 1    
   120   59   60 am   BACKBONE|DICT|INTERRES
   121   59  184 1    
   122   60   61 2    
   123   60   62 1    
   124   62   63 1    
   125   62   64 1    
   126   62  185 1    
   127   63  186 1    
   128   63  187 1    
   129   63  188 1    
   130   64   65 am   BACKBONE|DICT|INTERRES
   131   64  189 1    
   132   65   66 2    
   133   67   68 2    
   134   67   69 am   BACKBONE|DICT|INTERRES
   135   69   70 1    
   136   69  190 1    
   137   70   71 1    
   138   70   72 1    
   139   70  191 1    
   140   71  192 1    
   141   71  193 1    
   142   71  194 1    
   143   72   73 2    
   144   72   74 am   BACKBONE|DICT|INTERRES
   145   74   75 1    
   146   74  195 1    
   147   75   76 1    
   148   75   77 1    
   149   75  196 1    
   150   76  197 1    
   151   76  198 1    
   152   76  199 1    
   153   77   78 2    
   154   77   79 am   BACKBONE|DICT|INTERRES
   155   79   80 1    
   156   79  200 1    
   157   80   81 1    
   158   80   82 1    
   159   80  201 1    
   160   81  202 1    
   161   81  203 1    
   162   81  204 1    
   163   82   83 2    
   164   82   84 am   BACKBONE|DICT|INTERRES
   165   84   85 1    
   166   84  205 1    
   167   85   86 1    
   168   85   87 1    
   169   85  206 1    
   170   86  207 1    
   171   86  208 1    
   172   86  209 1    
   173   87   88 2    
   174   87   89 am   BACKBONE|DICT|INTERRES
   175   89   90 1    
   176   89  210 1    
   177   90   91 1    
   178   90   92 1    
   179   90  211 1    
   180   91  212 1    
   181   91  213 1    
   182   91  214 1    
   183   92   93 2    
   184   92   94 am   BACKBONE|DICT|INTERRES
   185   94   95 1    
   186   94  215 1    
   187   95   96 1    
   188   95   97 1    
   189   95  216 1    
   190   96  217 1    
   191   96  218 1    
   192   96  219 1    
   193   97   98 2    
   194   97   99 am   BACKBONE|DICT|INTERRES
   195   99  100 1    
   196   99  220 1    
   197  100  101 1    
   198  100  102 1    
   199  100  221 1    
   200  101  222 1    
   201  101  223 1    
   202  101  224 1    
   203  102  103 2    
   204  102  104 am   BACKBONE|DICT|INTERRES
   205  104  105 1    
   206  104  225 1    
   207  105  106 1    
   208  105  107 1    
   209  105  226 1    
   210  106  227 1    
   211  106  228 1    
   212  106  229 1    
   213  107  108 2    
   214  107  109 am   BACKBONE|DICT|INTERRES
   215  109  110 1    
   216  109  230 1    
   217  110  111 1    
   218  110  112 1    
   219  110  231 1    
   220  111  232 1    
   221  111  233 1    
   222  111  234 1    
   223  112  113 2    
   224  112  114 am   BACKBONE|DICT|INTERRES
   225  114  115 1    
   226  114  235 1    
   227  115  116 1    
   228  115  117 1    
   229  115  236 1    
   230  116  237 1    
   231  116  238 1    
   232  116  239 1    
   233  117  118 2    
   234  117  119 am   BACKBONE|DICT|INTERRES
   235  119  120 1    
   236  119  240 1    
   237  120  121 1    
   238  120  124 1    
   239  120  241 1    
   240  121  122 am   BACKBONE|DICT|INTERRES
   241  121  123 2    
   242  122  242 1    
   243  122  243 1    
   244  124  125 1    
   245  124  244 1    
   246  124  245 1    
   247  125  126 1    
   248  126  246 1    
   249  126  247 1    
@<TRIPOS>SUBSTRUCTURE
     1 UNK         1 GROUP             0       ****    0 ROOT    
