@<TRIPOS>MOLECULE
3R540
247   249    1
SMALL
USER_CHARGES


@<TRIPOS>ATOM
      1 CA         -0.9446  -15.1786  -48.4808 C.3       0 UNK        -0.1800 
      2 C          -1.9520  -14.0858  -48.1573 C.2       0 UNK         0.5000 
      3 O          -1.8000  -12.9652  -48.6427 O.2       0 UNK        -0.5000 
      4 N          -2.9692  -14.4071  -47.3429 N.am      1 UNK        -0.5000 
      5 CA         -4.0342  -13.5003  -46.8852 C.3       1 UNK         0.1400 
      6 C6         -4.9927  -13.0587  -48.0283 C.3       23 UNK        -0.0398 
      7 S7         -6.1642  -14.3683  -48.5186 S.3       23 UNK        -0.2404 
      8 C8         -5.3604  -15.1463  -49.9627 C.3       23 UNK        -0.0205 
      9 C9         -4.6165  -16.4391  -49.6350 C.ar      23 UNK        -0.0193 
     10 C10        -3.4105  -16.7292  -50.2796 C.ar      23 UNK        -0.1150 
     11 C11        -2.7354  -17.9298  -50.0335 C.ar      23 UNK        -0.0193 
     12 C12        -3.2752  -18.8461  -49.1272 C.ar      23 UNK        -0.1150 
     13 C13        -4.4764  -18.5678  -48.4675 C.ar      23 UNK        -0.0193 
     14 C14        -5.1450  -17.3715  -48.7355 C.ar      23 UNK        -0.1150 
     15 C15        -5.0765  -19.5607  -47.4830 C.3       23 UNK        -0.0205 
     16 S16        -4.7429  -19.1084  -45.7473 S.3       23 UNK        -0.2404 
     17 C17        -2.9190  -19.1715  -45.6000 C.3       23 UNK        -0.0398 
     18 CA         -2.2416  -20.4952  -46.0424 C.3       11 UNK         0.1400 
     19 N          -0.8362  -20.2723  -46.3946 N.am      11 UNK        -0.5000 
     20 C          -0.1320  -20.9924  -47.2768 C.2       10 UNK         0.5000 
     21 O          -0.5845  -21.9698  -47.8714 O.2       10 UNK        -0.5000 
     22 CA          1.3393  -20.5842  -47.4749 C.3       10 UNK         0.1400 
     23 CB          1.4526  -19.3360  -48.3634 C.3       10 UNK        -0.1800 
     24 N           2.0183  -20.3458  -46.1994 N.am      10 UNK        -0.5000 
     25 C           2.2790  -21.3050  -45.2996 C.2       9 UNK         0.5000 
     26 O           2.0183  -22.4933  -45.4813 O.2       9 UNK        -0.5000 
     27 CA          2.9071  -20.8699  -43.9639 C.3       9 UNK         0.1400 
     28 CB          4.4277  -20.7071  -44.1052 C.3       9 UNK        -0.1800 
     29 N           2.3209  -19.6364  -43.4395 N.am      9 UNK        -0.5000 
     30 C           1.0573  -19.5199  -43.0050 C.2       8 UNK         0.5000 
     31 O           0.2655  -20.4596  -42.9445 O.2       8 UNK        -0.5000 
     32 CA          0.5835  -18.1107  -42.6037 C.3       8 UNK         0.1400 
     33 CB          1.0018  -17.7796  -41.1636 C.3       8 UNK        -0.1800 
     34 N           1.0786  -17.0714  -43.5045 N.am      8 UNK        -0.5000 
     35 C           0.7782  -16.9808  -44.8066 C.2       7 UNK         0.5000 
     36 O           0.0083  -17.7433  -45.3895 O.2       7 UNK        -0.5000 
     37 CA          1.5089  -15.8903  -45.6045 C.3       7 UNK         0.1400 
     38 CB          0.8535  -14.5174  -45.3984 C.3       7 UNK        -0.1800 
     39 N           2.9268  -15.8175  -45.2566 N.am      7 UNK        -0.5000 
     40 C           3.8276  -16.7629  -45.5579 C.2       6 UNK         0.5000 
     41 O           3.5613  -17.7841  -46.1913 O.2       6 UNK        -0.5000 
     42 CA          5.2564  -16.5455  -45.0275 C.3       6 UNK         0.1400 
     43 CB          6.0498  -15.6266  -45.9683 C.3       6 UNK        -0.1800 
     44 N           5.2740  -15.9875  -43.6740 N.am      6 UNK        -0.5000 
     45 C           4.8561  -16.6446  -42.5830 C.2       5 UNK         0.5000 
     46 O           4.4364  -17.8006  -42.6008 O.2       5 UNK        -0.5000 
     47 CA          4.8620  -15.8618  -41.2571 C.3       5 UNK         0.1400 
     48 CB          6.2508  -15.9157  -40.6033 C.3       5 UNK        -0.1800 
     49 N           4.4417  -14.4638  -41.3966 N.am      5 UNK        -0.5000 
     50 C           3.2446  -14.0716  -41.8517 C.2       4 UNK         0.5000 
     51 O           2.3884  -14.8491  -42.2772 O.2       4 UNK        -0.5000 
     52 CA          2.9827  -12.5545  -41.8829 C.3       4 UNK         0.1400 
     53 CB          3.4503  -11.9666  -43.2237 C.3       4 UNK        -0.1800 
     54 N           1.5687  -12.2254  -41.6973 N.am      4 UNK        -0.5000 
     55 C           0.8376  -12.5018  -40.6075 C.2       3 UNK         0.5000 
     56 O           1.3022  -13.0194  -39.5904 O.2       3 UNK        -0.5000 
     57 CA         -0.6561  -12.1115  -40.6362 C.3       3 UNK         0.1400 
     58 CB         -0.9534  -11.0320  -39.5820 C.3       3 UNK        -0.1800 
     59 N          -1.1140  -11.6231  -41.9409 N.am      3 UNK        -0.5000 
     60 C          -1.4593  -12.4020  -42.9726 C.2       2 UNK         0.5000 
     61 O          -1.4287  -13.6349  -42.9474 O.2       2 UNK        -0.5000 
     62 CA         -1.8958  -11.6705  -44.2497 C.3       2 UNK         0.1400 
     63 CB         -0.6948  -11.0215  -44.9633 C.3       2 UNK        -0.1800 
     64 N          -2.5505  -12.6196  -45.1430 N.am      2 UNK        -0.5000 
     65 C          -3.4598  -12.3114  -46.0748 C.2       1 UNK         0.5000 
     66 O          -3.8329  -11.1576  -46.2980 O.2       1 UNK        -0.5000 
     67 C          -2.4614  -21.6765  -45.0663 C.2       11 UNK         0.5000 
     68 O          -3.5948  -21.9237  -44.6534 O.2       11 UNK        -0.5000 
     69 N          -1.4044  -22.4453  -44.7614 N.am      12 UNK        -0.5000 
     70 CA         -1.5119  -23.7681  -44.1416 C.3       12 UNK         0.1400 
     71 CB         -0.1224  -24.2489  -43.7012 C.3       12 UNK        -0.1800 
     72 C          -2.1684  -24.7913  -45.0927 C.2       12 UNK         0.5000 
     73 O          -2.7985  -25.7394  -44.6227 O.2       12 UNK        -0.5000 
     74 N          -2.0432  -24.5613  -46.4090 N.am      13 UNK        -0.5000 
     75 CA         -2.8079  -25.2413  -47.4463 C.3       13 UNK         0.1400 
     76 CB         -2.0795  -25.0845  -48.7898 C.3       13 UNK        -0.1800 
     77 C          -4.2237  -24.6389  -47.4937 C.2       13 UNK         0.5000 
     78 O          -4.3931  -23.5057  -47.9498 O.2       13 UNK        -0.5000 
     79 N          -5.2108  -25.3968  -46.9986 N.am      14 UNK        -0.5000 
     80 CA         -6.6035  -24.9670  -46.8230 C.3       14 UNK         0.1400 
     81 CB         -7.3666  -26.0583  -46.0567 C.3       14 UNK        -0.1800 
     82 C          -7.3410  -24.6121  -48.1303 C.2       14 UNK         0.5000 
     83 O          -8.3002  -23.8411  -48.0930 O.2       14 UNK        -0.5000 
     84 N          -6.8729  -25.1593  -49.2602 N.am      15 UNK        -0.5000 
     85 CA         -7.3677  -24.8589  -50.6060 C.3       15 UNK         0.1400 
     86 CB         -6.9980  -26.0231  -51.5381 C.3       15 UNK        -0.1800 
     87 C          -6.8499  -23.5169  -51.1695 C.2       15 UNK         0.5000 
     88 O          -7.2661  -23.1321  -52.2636 O.2       15 UNK        -0.5000 
     89 N          -5.9554  -22.8357  -50.4353 N.am      16 UNK        -0.5000 
     90 CA         -5.3055  -21.5725  -50.7863 C.3       16 UNK         0.1400 
     91 CB         -6.3321  -20.4173  -50.8348 C.3       16 UNK        -0.1800 
     92 C          -4.4495  -21.7186  -52.0582 C.2       16 UNK         0.5000 
     93 O          -3.7295  -22.7119  -52.1829 O.2       16 UNK        -0.5000 
     94 N          -4.5392  -20.7512  -52.9810 N.am      17 UNK        -0.5000 
     95 CA         -3.7527  -20.6501  -54.2143 C.3       17 UNK         0.1400 
     96 CB         -4.1785  -19.3867  -54.9764 C.3       17 UNK        -0.1800 
     97 C          -3.8095  -21.8790  -55.1405 C.2       17 UNK         0.5000 
     98 O          -2.8568  -22.1045  -55.8858 O.2       17 UNK        -0.5000 
     99 N          -4.8869  -22.6705  -55.0512 N.am      18 UNK        -0.5000 
    100 CA        -5.0563  -23.9318  -55.7741 C.3       18 UNK         0.1400 
    101 CB        -6.5024  -24.4177  -55.5955 C.3       18 UNK        -0.1800 
    102 C         -4.0616  -25.0328  -55.3488 C.2       18 UNK         0.5000 
    103 O         -3.7922  -25.9304  -56.1482 O.2       18 UNK        -0.5000 
    104 N         -3.5378  -24.9489  -54.1179 N.am      19 UNK        -0.5000 
    105 CA        -2.5579  -25.8833  -53.5621 C.3       19 UNK         0.1400 
    106 CB        -3.1596  -26.5593  -52.3225 C.3       19 UNK        -0.1800 
    107 C         -1.2344  -25.1839  -53.2111 C.2       19 UNK         0.5000 
    108 O         -0.1719  -25.7723  -53.4140 O.2       19 UNK        -0.5000 
    109 N         -1.3084  -23.9463  -52.7015 N.am      20 UNK        -0.5000 
    110 CA        -0.1530  -23.1415  -52.2995 C.3       20 UNK         0.1400 
    111 CB        -0.6337  -21.9886  -51.4033 C.3       20 UNK        -0.1800 
    112 C          0.6475  -22.5788  -53.4885 C.2       20 UNK         0.5000 
    113 O          1.8205  -22.2486  -53.3138 O.2       20 UNK        -0.5000 
    114 N         -0.0041  -22.4503  -54.6567 N.am      21 UNK        -0.5000 
    115 CA         0.5137  -21.8712  -55.9044 C.3       21 UNK         0.1400 
    116 CB         1.6639  -22.7279  -56.4739 C.3       21 UNK        -0.1800 
    117 C          0.8822  -20.3748  -55.7817 C.2       21 UNK         0.5000 
    118 O          1.7172  -19.8810  -56.5414 O.2       21 UNK        -0.5000 
    119 N          0.2510  -19.6789  -54.8269 N.am      22 UNK        -0.5000 
    120 CA         0.4822  -18.2619  -54.5076 C.3       22 UNK         0.1400 
    121 C         -0.1963  -17.2422  -55.4717 C.2       22 UNK         0.5000 
    122 N         -0.9976  -17.6696  -56.4402 N.am      22 UNK        -0.7600 
    123 O          0.0245  -16.0402  -55.3503 O.2       22 UNK        -0.5000 
    124 C124        0.1788  -17.9658  -53.0151 C.3       23 UNK        -0.0398 
    125 S125       -1.5593  -18.2491  -52.5313 S.3       23 UNK        -0.2404 
    126 C126       -1.4079  -18.2200  -50.7199 C.3       23 UNK        -0.0205 
    127 H127       -0.9204  -15.3435  -49.5567 H         1 UNK         0.0600 
    128 H128       -1.1860  -16.1213  -47.9881 H         1 UNK         0.0600 
    129 H129        0.0531  -14.8710  -48.1719 H         1 UNK         0.0600 
    130 H130       -3.0438  -15.3567  -47.0072 H         1 UNK         0.3000 
    131 H131       -4.6241  -14.0677  -46.1635 H         1 UNK         0.0600 
    132 H132       -5.6213  -12.2274  -47.7055 H         1 UNK         0.0800 
    133 H133       -4.4438  -12.6888  -48.8945 H         1 UNK         0.0800 
    134 H134       -4.6945  -14.4287  -50.4438 H         1 UNK         0.0800 
    135 H135       -6.1325  -15.3831  -50.6955 H         1 UNK         0.0800 
    136 H136       -2.9944  -16.0221  -50.9835 H         1 UNK         0.1150 
    137 H137       -2.7567  -19.7744  -48.9383 H         1 UNK         0.1150 
    138 H138       -6.0840  -17.1711  -48.2396 H         1 UNK         0.1150 
    139 H139       -6.1584  -19.5836  -47.6205 H         1 UNK         0.0800 
    140 H140       -4.7446  -20.5780  -47.6884 H         1 UNK         0.0800 
    141 H141       -2.6416  -18.9303  -44.5725 H         1 UNK         0.0800 
    142 H142       -2.5386  -18.3463  -46.2039 H         1 UNK         0.0800 
    143 H143       -2.7213  -20.8260  -46.9601 H         1 UNK         0.0600 
    144 H144       -0.3921  -19.4694  -45.9534 H         1 UNK         0.3000 
    145 H145        1.8503  -21.4060  -47.9810 H         1 UNK         0.0600 
    146 H146        0.9162  -18.4848  -47.9425 H         1 UNK         0.0600 
    147 H147        2.4936  -19.0410  -48.4966 H         1 UNK         0.0600 
    148 H148        1.0459  -19.5294  -49.3553 H         1 UNK         0.0600 
    149 H149        2.3151  -19.3946  -46.0076 H         1 UNK         0.3000 
    150 H150        2.7200  -21.6638  -43.2376 H         1 UNK         0.0600 
    151 H151        4.8846  -21.6194  -44.4907 H         1 UNK         0.0600 
    152 H152        4.8917  -20.4941  -43.1421 H         1 UNK         0.0600 
    153 H153        4.6853  -19.8967  -44.7873 H         1 UNK         0.0600 
    154 H154        2.9344  -18.8293  -43.3863 H         1 UNK         0.3000 
    155 H155       -0.5073  -18.0998  -42.6534 H         1 UNK         0.0600 
    156 H156        0.6106  -18.5185  -40.4634 H         1 UNK         0.0600 
    157 H157        2.0863  -17.7633  -41.0536 H         1 UNK         0.0600 
    158 H158        0.6212  -16.8048  -40.8573 H         1 UNK         0.0600 
    159 H159        1.6812  -16.3611  -43.0945 H         1 UNK         0.3000 
    160 H160        1.4326  -16.1505  -46.6621 H         1 UNK         0.0600 
    161 H161        1.2972  -13.7683  -46.0540 H         1 UNK         0.0600 
    162 H162       -0.2130  -14.5563  -45.6202 H         1 UNK         0.0600 
    163 H163        0.9547  -14.1678  -44.3715 H         1 UNK         0.0600 
    164 H164        3.2133  -15.0430  -44.6774 H         1 UNK         0.3000 
    165 H165        5.7531  -17.5178  -45.0017 H         1 UNK         0.0600 
    166 H166        7.0855  -15.5289  -45.6426 H         1 UNK         0.0600 
    167 H167        6.0657  -16.0276  -46.9827 H         1 UNK         0.0600 
    168 H168        5.6169  -14.6266  -46.0172 H         1 UNK         0.0600 
    169 H169        5.6024  -15.0388  -43.5709 H         1 UNK         0.3000 
    170 H170        4.1529  -16.3515  -40.5865 H         1 UNK         0.0600 
    171 H171        6.5803  -16.9473  -40.4716 H         1 UNK         0.0600 
    172 H172        7.0019  -15.4057  -41.2078 H         1 UNK         0.0600 
    173 H173        6.2409  -15.4515  -39.6170 H         1 UNK         0.0600 
    174 H174        5.0989  -13.7648  -41.0810 H         1 UNK         0.3000 
    175 H175        3.5459  -12.0852  -41.0737 H         1 UNK         0.0600 
    176 H176        2.8973  -12.3886  -44.0639 H         1 UNK         0.0600 
    177 H177        3.3195  -10.8846  -43.2470 H         1 UNK         0.0600 
    178 H178        4.5090  -12.1668  -43.3937 H         1 UNK         0.0600 
    179 H179        1.0951  -11.8152  -42.4865 H         1 UNK         0.3000 
    180 H180       -1.2263  -13.0056  -40.3748 H         1 UNK         0.0600 
    181 H181       -0.4037  -10.1115  -39.7826 H         1 UNK         0.0600 
    182 H182       -0.6740  -11.3700  -38.5832 H         1 UNK         0.0600 
    183 H183       -2.0161  -10.7901  -39.5538 H         1 UNK         0.0600 
    184 H184       -1.1652  -10.6196  -42.0457 H         1 UNK         0.3000 
    185 H185       -2.6102  -10.8961  -43.9620 H         1 UNK         0.0600 
    186 H186       -1.0085  -10.4961  -45.8655 H         1 UNK         0.0600 
    187 H187       -0.1997  -10.2908  -44.3229 H         1 UNK         0.0600 
    188 H188        0.0497  -11.7620  -45.2541 H         1 UNK         0.0600 
    189 H189       -2.3183  -13.5880  -44.9623 H         1 UNK         0.3000 
    190 H190       -0.4913  -22.1730  -45.0979 H         1 UNK         0.3000 
    191 H191       -2.1402  -23.6794  -43.2529 H         1 UNK         0.0600 
    192 H192        0.5225  -24.4514  -44.5566 H         1 UNK         0.0600 
    193 H193       -0.1970  -25.1719  -43.1252 H         1 UNK         0.0600 
    194 H194        0.3729  -23.5093  -43.0715 H         1 UNK         0.0600 
    195 H195       -1.5315  -23.7406  -46.7089 H         1 UNK         0.3000 
    196 H196       -2.8676  -26.3066  -47.2138 H         1 UNK         0.0600 
    197 H197       -2.5929  -25.6430  -49.5697 H         1 UNK         0.0600 
    198 H198       -1.0599  -25.4659  -48.7354 H         1 UNK         0.0600 
    199 H199       -2.0292  -24.0428  -49.1075 H         1 UNK         0.0600 
    200 H200       -4.9779  -26.3052  -46.6228 H         1 UNK         0.3000 
    201 H201       -6.5911  -24.0646  -46.2079 H         1 UNK         0.0600 
    202 H202       -6.9129  -26.2485  -45.0838 H         1 UNK         0.0600 
    203 H203       -7.3860  -26.9985  -46.6093 H         1 UNK         0.0600 
    204 H204       -8.4010  -25.7612  -45.8778 H         1 UNK         0.0600 
    205 H205       -6.0839  -25.7852  -49.1953 H         1 UNK         0.3000 
    206 H206       -8.4570  -24.7916  -50.5693 H         1 UNK         0.0600 
    207 H207       -7.3885  -26.9695  -51.1637 H         1 UNK         0.0600 
    208 H208       -7.4137  -25.8758  -52.5354 H         1 UNK         0.0600 
    209 H209       -5.9193  -26.1221  -51.6438 H         1 UNK         0.0600 
    210 H210       -5.6289  -23.2505  -49.5693 H         1 UNK         0.3000 
    211 H211       -4.6025  -21.3634  -49.9803 H         1 UNK         0.0600 
    212 H212       -7.0377  -20.5258  -51.6589 H         1 UNK         0.0600 
    213 H213       -5.8379  -19.4513  -50.9450 H         1 UNK         0.0600 
    214 H214       -6.9108  -20.3735  -49.9124 H         1 UNK         0.0600 
    215 H215       -5.1702  -19.9847  -52.7982 H         1 UNK         0.3000 
    216 H216       -2.7095  -20.5368  -53.9191 H         1 UNK         0.0600 
    217 H217       -3.5894  -19.2591  -55.8854 H         1 UNK         0.0600 
    218 H218       -4.0341  -18.4911  -54.3719 H         1 UNK         0.0600 
    219 H219       -5.2284  -19.4293  -55.2684 H         1 UNK         0.0600 
    220 H220       -5.6118  -22.4254  -54.3907 H         1 UNK         0.3000 
    221 H221       -4.8910  -23.7344  -56.8353 H         1 UNK         0.0600 
    222 H222       -6.7303  -24.6190  -54.5487 H         1 UNK         0.0600 
    223 H223       -7.2161  -23.6779  -55.9582 H         1 UNK         0.0600 
    224 H224       -6.6779  -25.3388  -56.1528 H         1 UNK         0.0600 
    225 H225       -3.7999  -24.1644  -53.5300 H         1 UNK         0.3000 
    226 H226       -2.3166  -26.6663  -54.2839 H         1 UNK         0.0600 
    227 H227       -3.9838  -27.2159  -52.6008 H         1 UNK         0.0600 
    228 H228       -2.4199  -27.1699  -51.8029 H         1 UNK         0.0600 
    229 H229       -3.5415  -25.8216  -51.6174 H         1 UNK         0.0600 
    230 H230       -2.2218  -23.5335  -52.5205 H         1 UNK         0.3000 
    231 H231        0.5184  -23.7723  -51.7132 H         1 UNK         0.0600 
    232 H232        0.2093  -21.4108  -51.0226 H         1 UNK         0.0600 
    233 H233       -1.1867  -22.3592  -50.5412 H         1 UNK         0.0600 
    234 H234       -1.2852  -21.3025  -51.9443 H         1 UNK         0.0600 
    235 H235       -0.9693  -22.7508  -54.6964 H         1 UNK         0.3000 
    236 H236       -0.3052  -21.9160  -56.6228 H         1 UNK         0.0600 
    237 H237        1.9378  -22.3984  -57.4768 H         1 UNK         0.0600 
    238 H238        1.3751  -23.7764  -56.5465 H         1 UNK         0.0600 
    239 H239        2.5602  -22.6684  -55.8560 H         1 UNK         0.0600 
    240 H240       -0.4261  -20.1544  -54.2516 H         1 UNK         0.3000 
    241 H241        1.5518  -18.0844  -54.6354 H         1 UNK         0.0600 
    242 H242       -1.1698  -18.6531  -56.5647 H         1 UNK         0.3800 
    243 H243       -1.4231  -17.0007  -57.0623 H         1 UNK         0.3800 
    244 H244        0.4443  -16.9362  -52.7688 H         1 UNK         0.0800 
    245 H245        0.8164  -18.5925  -52.3895 H         1 UNK         0.0800 
    246 H246       -1.0100  -19.1802  -50.3923 H         1 UNK         0.0800 
    247 H247       -0.6802  -17.4656  -50.4229 H         1 UNK         0.0800 
@<TRIPOS>BOND
     1    1    2 1    
     2    1  127 1    
     3    1  128 1    
     4    1  129 1    
     5    2    3 2    
     6    2    4 am   BACKBONE|DICT|INTERRES
     7    4    5 1    
     8    4  130 1    
     9    5    6 1    
    10    5   65 1    
    11    5  131 1    
    12    6    7 1    
    13    6  132 1    
    14    6  133 1    
    15    7    8 1    
    16    8    9 1    
    17    8  134 1    
    18    8  135 1    
    19    9   10 ar   
    20    9   14 ar   
    21   10   11 ar   
    22   10  136 1    
    23   11   12 ar   
    24   11  126 1    
    25   12   13 ar   
    26   12  137 1    
    27   13   14 ar   
    28   13   15 1    
    29   14  138 1    
    30   15   16 1    
    31   15  139 1    
    32   15  140 1    
    33   16   17 1    
    34   17   18 1    
    35   17  141 1    
    36   17  142 1    
    37   18   19 1    
    38   18   67 1    
    39   18  143 1    
    40   19   20 am   BACKBONE|DICT|INTERRES
    41   19  144 1    
    42   20   21 2    
    43   20   22 1    
    44   22   23 1    
    45   22   24 1    
    46   22  145 1    
    47   23  146 1    
    48   23  147 1    
    49   23  148 1    
    50   24   25 am   BACKBONE|DICT|INTERRES
    51   24  149 1    
    52   25   26 2    
    53   25   27 1    
    54   27   28 1    
    55   27   29 1    
    56   27  150 1    
    57   28  151 1    
    58   28  152 1    
    59   28  153 1    
    60   29   30 am   BACKBONE|DICT|INTERRES
    61   29  154 1    
    62   30   31 2    
    63   30   32 1    
    64   32   33 1    
    65   32   34 1    
    66   32  155 1    
    67   33  156 1    
    68   33  157 1    
    69   33  158 1    
    70   34   35 am   BACKBONE|DICT|INTERRES
    71   34  159 1    
    72   35   36 2    
    73   35   37 1    
    74   37   38 1    
    75   37   39 1    
    76   37  160 1    
    77   38  161 1    
    78   38  162 1    
    79   38  163 1    
    80   39   40 am   BACKBONE|DICT|INTERRES
    81   39  164 1    
    82   40   41 2    
    83   40   42 1    
    84   42   43 1    
    85   42   44 1    
    86   42  165 1    
    87   43  166 1    
    88   43  167 1    
    89   43  168 1    
    90   44   45 am   BACKBONE|DICT|INTERRES
    91   44  169 1    
    92   45   46 2    
    93   45   47 1    
    94   47   48 1    
    95   47   49 1    
    96   47  170 1    
    97   48  171 1    
    98   48  172 1    
    99   48  173 1    
   100   49   50 am   BACKBONE|DICT|INTERRES
   101   49  174 1    
   102   50   51 2    
   103   50   52 1    
   104   52   53 1    
   105   52   54 1    
   106   52  175 1    
   107   53  176 1    
   108   53  177 1    
   109   53  178 1    
   110   54   55 am   BACKBONE|DICT|INTERRES
   111   54  179 1    
   112   55   56 2    
   113   55   57 1    
   114   57   58 1    
   115   57   59 1    
   116   57  180 1    
   117   58  181 1    
   118   58  182 1    
   119   58  183 1    
   120   59   60 am   BACKBONE|DICT|INTERRES
   121   59  184 1    
   122   60   61 2    
   123   60   62 1    
   124   62   63 1    
   125   62   64 1    
   126   62  185 1    
   127   63  186 1    
   128   63  187 1    
   129   63  188 1    
   130   64   65 am   BACKBONE|DICT|INTERRES
   131   64  189 1    
   132   65   66 2    
   133   67   68 2    
   134   67   69 am   BACKBONE|DICT|INTERRES
   135   69   70 1    
   136   69  190 1    
   137   70   71 1    
   138   70   72 1    
   139   70  191 1    
   140   71  192 1    
   141   71  193 1    
   142   71  194 1    
   143   72   73 2    
   144   72   74 am   BACKBONE|DICT|INTERRES
   145   74   75 1    
   146   74  195 1    
   147   75   76 1    
   148   75   77 1    
   149   75  196 1    
   150   76  197 1    
   151   76  198 1    
   152   76  199 1    
   153   77   78 2    
   154   77   79 am   BACKBONE|DICT|INTERRES
   155   79   80 1    
   156   79  200 1    
   157   80   81 1    
   158   80   82 1    
   159   80  201 1    
   160   81  202 1    
   161   81  203 1    
   162   81  204 1    
   163   82   83 2    
   164   82   84 am   BACKBONE|DICT|INTERRES
   165   84   85 1    
   166   84  205 1    
   167   85   86 1    
   168   85   87 1    
   169   85  206 1    
   170   86  207 1    
   171   86  208 1    
   172   86  209 1    
   173   87   88 2    
   174   87   89 am   BACKBONE|DICT|INTERRES
   175   89   90 1    
   176   89  210 1    
   177   90   91 1    
   178   90   92 1    
   179   90  211 1    
   180   91  212 1    
   181   91  213 1    
   182   91  214 1    
   183   92   93 2    
   184   92   94 am   BACKBONE|DICT|INTERRES
   185   94   95 1    
   186   94  215 1    
   187   95   96 1    
   188   95   97 1    
   189   95  216 1    
   190   96  217 1    
   191   96  218 1    
   192   96  219 1    
   193   97   98 2    
   194   97   99 am   BACKBONE|DICT|INTERRES
   195   99  100 1    
   196   99  220 1    
   197  100  101 1    
   198  100  102 1    
   199  100  221 1    
   200  101  222 1    
   201  101  223 1    
   202  101  224 1    
   203  102  103 2    
   204  102  104 am   BACKBONE|DICT|INTERRES
   205  104  105 1    
   206  104  225 1    
   207  105  106 1    
   208  105  107 1    
   209  105  226 1    
   210  106  227 1    
   211  106  228 1    
   212  106  229 1    
   213  107  108 2    
   214  107  109 am   BACKBONE|DICT|INTERRES
   215  109  110 1    
   216  109  230 1    
   217  110  111 1    
   218  110  112 1    
   219  110  231 1    
   220  111  232 1    
   221  111  233 1    
   222  111  234 1    
   223  112  113 2    
   224  112  114 am   BACKBONE|DICT|INTERRES
   225  114  115 1    
   226  114  235 1    
   227  115  116 1    
   228  115  117 1    
   229  115  236 1    
   230  116  237 1    
   231  116  238 1    
   232  116  239 1    
   233  117  118 2    
   234  117  119 am   BACKBONE|DICT|INTERRES
   235  119  120 1    
   236  119  240 1    
   237  120  121 1    
   238  120  124 1    
   239  120  241 1    
   240  121  122 am   BACKBONE|DICT|INTERRES
   241  121  123 2    
   242  122  242 1    
   243  122  243 1    
   244  124  125 1    
   245  124  244 1    
   246  124  245 1    
   247  125  126 1    
   248  126  246 1    
   249  126  247 1    
@<TRIPOS>SUBSTRUCTURE
     1 UNK         1 GROUP             0       ****    0 ROOT    
