@<TRIPOS>MOLECULE
3R540
247   249    1
SMALL
USER_CHARGES


@<TRIPOS>ATOM
      1 CA          1.2010   -8.8115  -51.3025 C.3       0 UNK        -0.1800 
      2 C           1.6053  -10.1488  -50.6998 C.2       0 UNK         0.5000 
      3 O           2.3239  -10.1798  -49.7020 O.2       0 UNK        -0.5000 
      4 N           1.1350  -11.2556  -51.2890 N.am      1 UNK        -0.5000 
      5 CA          1.4095  -12.6362  -50.8621 C.3       1 UNK         0.1400 
      6 C6          0.8894  -13.6635  -51.8998 C.3       23 UNK        -0.0398 
      7 S7         -0.9076  -13.5366  -52.2375 S.3       23 UNK        -0.2404 
      8 C8         -1.4665  -15.2651  -52.1014 C.3       23 UNK        -0.0205 
      9 C9         -1.2751  -15.8329  -50.7026 C.ar      23 UNK        -0.0193 
     10 C10        -2.1201  -15.4431  -49.6591 C.ar      23 UNK        -0.1150 
     11 C11        -1.9403  -15.9613  -48.3735 C.ar      23 UNK        -0.0193 
     12 C12        -0.9076  -16.8735  -48.1392 C.ar      23 UNK        -0.1150 
     13 C13        -0.0623  -17.2800  -49.1749 C.ar      23 UNK        -0.0193 
     14 C14        -0.2587  -16.7611  -50.4568 C.ar      23 UNK        -0.1150 
     15 C15         1.0883  -18.2431  -48.9112 C.3       23 UNK        -0.0205 
     16 S16         0.5900  -19.9896  -49.0705 S.3       23 UNK        -0.2404 
     17 C17         0.0113  -20.3397  -47.3806 C.3       23 UNK        -0.0398 
     18 CA         -0.2717  -21.8444  -47.1260 C.3       11 UNK         0.1400 
     19 N           0.0636  -22.2298  -45.7508 N.am      11 UNK        -0.5000 
     20 C          -0.0258  -23.4621  -45.2295 C.2       10 UNK         0.5000 
     21 O          -0.3662  -24.4587  -45.8650 O.2       10 UNK        -0.5000 
     22 CA          0.2697  -23.5910  -43.7256 C.3       10 UNK         0.1400 
     23 CB          1.7788  -23.7211  -43.4694 C.3       10 UNK        -0.1800 
     24 N          -0.2654  -22.4600  -42.9674 N.am      10 UNK        -0.5000 
     25 C          -1.5709  -22.2431  -42.7540 C.2       9 UNK         0.5000 
     26 O          -2.4629  -22.9973  -43.1419 O.2       9 UNK        -0.5000 
     27 CA         -1.9412  -20.9336  -42.0331 C.3       9 UNK         0.1400 
     28 CB         -1.6966  -21.0519  -40.5214 C.3       9 UNK        -0.1800 
     29 N          -1.2090  -19.7796  -42.5572 N.am      9 UNK        -0.5000 
     30 C          -1.3204  -19.3248  -43.8123 C.2       8 UNK         0.5000 
     31 O          -2.0801  -19.8078  -44.6512 O.2       8 UNK        -0.5000 
     32 CA         -0.3910  -18.1712  -44.2237 C.3       8 UNK         0.1400 
     33 CB         -1.0481  -16.8147  -43.9359 C.3       8 UNK        -0.1800 
     34 N           0.9480  -18.2048  -43.6329 N.am      8 UNK        -0.5000 
     35 C           1.8160  -19.2243  -43.7050 C.2       7 UNK         0.5000 
     36 O           1.5364  -20.3221  -44.1848 O.2       7 UNK        -0.5000 
     37 CA          3.2383  -18.9849  -43.1720 C.3       7 UNK         0.1400 
     38 CB          4.2018  -18.7464  -44.3447 C.3       7 UNK        -0.1800 
     39 N           3.3053  -17.8388  -42.2649 N.am      7 UNK        -0.5000 
     40 C           3.2312  -17.9169  -40.9293 C.2       6 UNK         0.5000 
     41 O           3.1140  -18.9759  -40.3119 O.2       6 UNK        -0.5000 
     42 CA          3.2979  -16.5901  -40.1461 C.3       6 UNK         0.1400 
     43 CB          4.7459  -16.2824  -39.7351 C.3       6 UNK        -0.1800 
     44 N           2.7637  -15.4517  -40.8958 N.am      6 UNK        -0.5000 
     45 C           1.4653  -15.2658  -41.1688 C.2       5 UNK         0.5000 
     46 O           0.5712  -16.0112  -40.7692 O.2       5 UNK        -0.5000 
     47 CA          1.1058  -14.0658  -42.0665 C.3       5 UNK         0.1400 
     48 CB          0.7546  -12.8394  -41.2117 C.3       5 UNK        -0.1800 
     49 N           2.1426  -13.6896  -43.0328 N.am      5 UNK        -0.5000 
     50 C           2.6536  -14.4738  -43.9909 C.2       4 UNK         0.5000 
     51 O           2.3873  -15.6717  -44.0915 O.2       4 UNK        -0.5000 
     52 CA          3.6084  -13.7990  -45.0009 C.3       4 UNK         0.1400 
     53 CB          4.0893  -14.7686  -46.0953 C.3       4 UNK        -0.1800 
     54 N           2.9816  -12.6438  -45.6455 N.am      4 UNK        -0.5000 
     55 C           2.8146  -11.4330  -45.0941 C.2       3 UNK         0.5000 
     56 O           3.2419  -11.1344  -43.9778 O.2       3 UNK        -0.5000 
     57 CA          2.0011  -10.3961  -45.8944 C.3       3 UNK         0.1400 
     58 CB          2.9410   -9.4121  -46.6054 C.3       3 UNK        -0.1800 
     59 N           1.0903  -10.9988  -46.8731 N.am      3 UNK        -0.5000 
     60 C           0.0224  -11.7487  -46.5545 C.2       2 UNK         0.5000 
     61 O          -0.3275  -11.9635  -45.3935 O.2       2 UNK        -0.5000 
     62 CA         -0.7940  -12.3767  -47.7020 C.3       2 UNK         0.1400 
     63 CB         -2.1994  -11.7598  -47.7756 C.3       2 UNK        -0.1800 
     64 N          -0.1703  -12.2689  -49.0192 N.am      2 UNK        -0.5000 
     65 C           0.9099  -12.9467  -49.4312 C.2       1 UNK         0.5000 
     66 O           1.5305  -13.7391  -48.7215 O.2       1 UNK        -0.5000 
     67 C          -1.7265  -22.2155  -47.4828 C.2       11 UNK         0.5000 
     68 O          -1.9647  -22.8391  -48.5164 O.2       11 UNK        -0.5000 
     69 N          -2.6612  -21.8680  -46.5863 N.am      12 UNK        -0.5000 
     70 CA         -4.0733  -22.2266  -46.6682 C.3       12 UNK         0.1400 
     71 CB         -4.8622  -21.4436  -45.6081 C.3       12 UNK        -0.1800 
     72 C          -4.3087  -23.7414  -46.5292 C.2       12 UNK         0.5000 
     73 O          -5.0115  -24.3190  -47.3604 O.2       12 UNK        -0.5000 
     74 N          -3.7089  -24.3565  -45.4977 N.am      13 UNK        -0.5000 
     75 CA         -3.8594  -25.7779  -45.1695 C.3       13 UNK         0.1400 
     76 CB         -3.1467  -26.0857  -43.8450 C.3       13 UNK        -0.1800 
     77 C          -3.3725  -26.7337  -46.2731 C.2       13 UNK         0.5000 
     78 O          -3.9994  -27.7714  -46.4920 O.2       13 UNK        -0.5000 
     79 N          -2.2988  -26.3590  -46.9803 N.am      14 UNK        -0.5000 
     80 CA         -1.7252  -27.0846  -48.1164 C.3       14 UNK         0.1400 
     81 CB         -0.2627  -26.6381  -48.2952 C.3       14 UNK        -0.1800 
     82 C          -2.5529  -26.9181  -49.4115 C.2       14 UNK         0.5000 
     83 O          -1.9951  -26.5800  -50.4563 O.2       14 UNK        -0.5000 
     84 N          -3.8741  -27.1337  -49.3179 N.am      15 UNK        -0.5000 
     85 CA         -4.8825  -27.0290  -50.3816 C.3       15 UNK         0.1400 
     86 CB         -4.7287  -28.2001  -51.3741 C.3       15 UNK        -0.1800 
     87 C          -4.8801  -25.6541  -51.0840 C.2       15 UNK         0.5000 
     88 O          -4.9942  -25.5829  -52.3093 O.2       15 UNK        -0.5000 
     89 N          -4.6796  -24.5870  -50.2960 N.am      16 UNK        -0.5000 
     90 CA         -4.4731  -23.2009  -50.7289 C.3       16 UNK         0.1400 
     91 CB         -5.7844  -22.6026  -51.2787 C.3       16 UNK        -0.1800 
     92 C          -3.2843  -23.0264  -51.7015 C.2       16 UNK         0.5000 
     93 O          -3.3203  -22.1386  -52.5514 O.2       16 UNK        -0.5000 
     94 N          -2.2701  -23.8963  -51.5975 N.am      17 UNK        -0.5000 
     95 CA         -1.1123  -24.0149  -52.4901 C.3       17 UNK         0.1400 
     96 CB         -0.2534  -22.7322  -52.4586 C.3       17 UNK        -0.1800 
     97 C          -1.4848  -24.4558  -53.9256 C.2       17 UNK         0.5000 
     98 O          -0.6807  -24.2743  -54.8405 O.2       17 UNK        -0.5000 
     99 N          -2.6837  -25.0402  -54.0867 N.am      18 UNK        -0.5000 
    100 CA        -3.3006  -25.5465  -55.3152 C.3       18 UNK         0.1400 
    101 CB        -2.6118  -26.8614  -55.7344 C.3       18 UNK        -0.1800 
    102 C         -3.3474  -24.5037  -56.4595 C.2       18 UNK         0.5000 
    103 O         -2.6577  -24.6781  -57.4644 O.2       18 UNK        -0.5000 
    104 N         -4.1239  -23.4164  -56.3512 N.am      19 UNK        -0.5000 
    105 CA        -5.0314  -23.0243  -55.2693 C.3       19 UNK         0.1400 
    106 CB        -6.4222  -23.6459  -55.5003 C.3       19 UNK        -0.1800 
    107 C         -5.0636  -21.4837  -55.1841 C.2       19 UNK         0.5000 
    108 O         -6.1361  -20.8852  -55.0906 O.2       19 UNK        -0.5000 
    109 N         -3.8795  -20.8665  -55.2934 N.am      20 UNK        -0.5000 
    110 CA        -3.6897  -19.4207  -55.4152 C.3       20 UNK         0.1400 
    111 CB        -2.3829  -19.1724  -56.1864 C.3       20 UNK        -0.1800 
    112 C         -3.6662  -18.6561  -54.0767 C.2       20 UNK         0.5000 
    113 O         -3.8065  -17.4316  -54.0969 O.2       20 UNK        -0.5000 
    114 N         -3.4527  -19.3506  -52.9510 N.am      21 UNK        -0.5000 
    115 CA        -3.3542  -18.7416  -51.6234 C.3       21 UNK         0.1400 
    116 CB        -2.5903  -19.6789  -50.6741 C.3       21 UNK        -0.1800 
    117 C         -4.7245  -18.3658  -51.0314 C.2       21 UNK         0.5000 
    118 O         -5.7715  -18.6903  -51.5958 O.2       21 UNK        -0.5000 
    119 N         -4.6797  -17.7035  -49.8709 N.am      22 UNK        -0.5000 
    120 CA        -5.8449  -17.2739  -49.0831 C.3       22 UNK         0.1400 
    121 C         -6.6794  -18.4130  -48.4196 C.2       22 UNK         0.5000 
    122 N         -6.2441  -19.6665  -48.4482 N.am      22 UNK        -0.7600 
    123 O         -7.7532  -18.1539  -47.8831 O.2       22 UNK        -0.5000 
    124 C124       -5.4518  -16.1732  -48.0650 C.3       23 UNK        -0.0398 
    125 S125       -4.1632  -16.6879  -46.8698 S.3       23 UNK        -0.2404 
    126 C126       -2.8247  -15.5069  -47.2220 C.3       23 UNK        -0.0205 
    127 H127        0.6666   -8.2142  -50.5638 H         1 UNK         0.0600 
    128 H128        0.5547   -8.9372  -52.1715 H         1 UNK         0.0600 
    129 H129        2.0869   -8.2581  -51.6139 H         1 UNK         0.0600 
    130 H130        0.5340  -11.1681  -52.0968 H         1 UNK         0.3000 
    131 H131        2.4963  -12.7383  -50.8287 H         1 UNK         0.0600 
    132 H132        1.4109  -13.5132  -52.8459 H         1 UNK         0.0800 
    133 H133        1.1513  -14.6750  -51.5899 H         1 UNK         0.0800 
    134 H134       -0.9427  -15.8719  -52.8419 H         1 UNK         0.0800 
    135 H135       -2.5238  -15.3138  -52.3662 H         1 UNK         0.0800 
    136 H136       -2.9047  -14.7239  -49.8478 H         1 UNK         0.1150 
    137 H137       -0.7571  -17.2563  -47.1439 H         1 UNK         0.1150 
    138 H138        0.3926  -17.0710  -51.2619 H         1 UNK         0.1150 
    139 H139        1.8933  -18.0504  -49.6219 H         1 UNK         0.0800 
    140 H140        1.5158  -18.0579  -47.9245 H         1 UNK         0.0800 
    141 H141       -0.8581  -19.7180  -47.1610 H         1 UNK         0.0800 
    142 H142        0.8017  -19.9962  -46.7133 H         1 UNK         0.0800 
    143 H143        0.3822  -22.4388  -47.7677 H         1 UNK         0.0600 
    144 H144        0.4107  -21.4907  -45.1454 H         1 UNK         0.3000 
    145 H145       -0.2111  -24.5019  -43.3646 H         1 UNK         0.0600 
    146 H146        1.9879  -23.8578  -42.4084 H         1 UNK         0.0600 
    147 H147        2.1879  -24.5847  -43.9951 H         1 UNK         0.0600 
    148 H148        2.3275  -22.8424  -43.8089 H         1 UNK         0.0600 
    149 H149        0.3969  -21.7492  -42.6905 H         1 UNK         0.3000 
    150 H150       -3.0069  -20.7567  -42.1939 H         1 UNK         0.0600 
    151 H151       -2.2397  -21.9008  -40.1039 H         1 UNK         0.0600 
    152 H152       -2.0375  -20.1593  -39.9964 H         1 UNK         0.0600 
    153 H153       -0.6396  -21.1927  -40.2919 H         1 UNK         0.0600 
    154 H154       -0.5518  -19.3277  -41.9381 H         1 UNK         0.3000 
    155 H155       -0.2484  -18.2555  -45.2986 H         1 UNK         0.0600 
    156 H156       -2.0560  -16.7727  -44.3505 H         1 UNK         0.0600 
    157 H157       -0.4783  -15.9989  -44.3812 H         1 UNK         0.0600 
    158 H158       -1.1292  -16.6279  -42.8650 H         1 UNK         0.0600 
    159 H159        1.3024  -17.3202  -43.2929 H         1 UNK         0.3000 
    160 H160        3.5545  -19.8928  -42.6540 H         1 UNK         0.0600 
    161 H161        3.9144  -17.8726  -44.9303 H         1 UNK         0.0600 
    162 H162        4.2142  -19.6029  -45.0200 H         1 UNK         0.0600 
    163 H163        5.2224  -18.5951  -43.9930 H         1 UNK         0.0600 
    164 H164        3.3411  -16.9266  -42.7036 H         1 UNK         0.3000 
    165 H165        2.7042  -16.7120  -39.2376 H         1 UNK         0.0600 
    166 H166        4.7990  -15.3844  -39.1193 H         1 UNK         0.0600 
    167 H167        5.1682  -17.1010  -39.1508 H         1 UNK         0.0600 
    168 H168        5.3885  -16.1335  -40.6038 H         1 UNK         0.0600 
    169 H169        3.4309  -14.7870  -41.2593 H         1 UNK         0.3000 
    170 H170        0.2185  -14.3434  -42.6379 H         1 UNK         0.0600 
    171 H171        0.3979  -12.0168  -41.8322 H         1 UNK         0.0600 
    172 H172       -0.0361  -13.0727  -40.4973 H         1 UNK         0.0600 
    173 H173        1.6163  -12.4842  -40.6453 H         1 UNK         0.0600 
    174 H174        2.4255  -12.7152  -43.0373 H         1 UNK         0.3000 
    175 H175        4.4851  -13.4617  -44.4443 H         1 UNK         0.0600 
    176 H176        3.2556  -15.1624  -46.6788 H         1 UNK         0.0600 
    177 H177        4.7761  -14.2767  -46.7841 H         1 UNK         0.0600 
    178 H178        4.6198  -15.6168  -45.6616 H         1 UNK         0.0600 
    179 H179        2.5636  -12.8139  -46.5505 H         1 UNK         0.3000 
    180 H180        1.3978   -9.8323  -45.1799 H         1 UNK         0.0600 
    181 H181        3.5954   -9.9225  -47.3130 H         1 UNK         0.0600 
    182 H182        3.5773   -8.8925  -45.8879 H         1 UNK         0.0600 
    183 H183        2.3808   -8.6534  -47.1523 H         1 UNK         0.0600 
    184 H184        1.3248  -10.8649  -47.8497 H         1 UNK         0.3000 
    185 H185       -0.8935  -13.4369  -47.4675 H         1 UNK         0.0600 
    186 H186       -2.8039  -12.2451  -48.5422 H         1 UNK         0.0600 
    187 H187       -2.7277  -11.8723  -46.8280 H         1 UNK         0.0600 
    188 H188       -2.1580  -10.6943  -48.0046 H         1 UNK         0.0600 
    189 H189       -0.6002  -11.6293  -49.6713 H         1 UNK         0.3000 
    190 H190       -2.3851  -21.3137  -45.7796 H         1 UNK         0.3000 
    191 H191       -4.4402  -21.9196  -47.6479 H         1 UNK         0.0600 
    192 H192       -4.7713  -20.3685  -45.7668 H         1 UNK         0.0600 
    193 H193       -5.9239  -21.6897  -45.6477 H         1 UNK         0.0600 
    194 H194       -4.5098  -21.6610  -44.5991 H         1 UNK         0.0600 
    195 H195       -3.1619  -23.8023  -44.8460 H         1 UNK         0.3000 
    196 H196       -4.9257  -25.9651  -45.0278 H         1 UNK         0.0600 
    197 H197       -3.2617  -27.1357  -43.5728 H         1 UNK         0.0600 
    198 H198       -3.5583  -25.4936  -43.0276 H         1 UNK         0.0600 
    199 H199       -2.0788  -25.8783  -43.9083 H         1 UNK         0.0600 
    200 H200       -1.8191  -25.5046  -46.7107 H         1 UNK         0.3000 
    201 H201       -1.7186  -28.1503  -47.8792 H         1 UNK         0.0600 
    202 H202        0.3147  -26.8072  -47.3862 H         1 UNK         0.0600 
    203 H203       -0.1966  -25.5768  -48.5399 H         1 UNK         0.0600 
    204 H204        0.2258  -27.1943  -49.0962 H         1 UNK         0.0600 
    205 H205       -4.2239  -27.3960  -48.4011 H         1 UNK         0.3000 
    206 H206       -5.8557  -27.1247  -49.8984 H         1 UNK         0.0600 
    207 H207       -4.7525  -29.1599  -50.8582 H         1 UNK         0.0600 
    208 H208       -5.5393  -28.2051  -52.1037 H         1 UNK         0.0600 
    209 H209       -3.7907  -28.1398  -51.9274 H         1 UNK         0.0600 
    210 H210       -4.6185  -24.7366  -49.2930 H         1 UNK         0.3000 
    211 H211       -4.2130  -22.6400  -49.8340 H         1 UNK         0.0600 
    212 H212       -6.1007  -23.0941  -52.1987 H         1 UNK         0.0600 
    213 H213       -5.6715  -21.5405  -51.4994 H         1 UNK         0.0600 
    214 H214       -6.5929  -22.6958  -50.5538 H         1 UNK         0.0600 
    215 H215       -2.3335  -24.6251  -50.8945 H         1 UNK         0.3000 
    216 H216       -0.5059  -24.8226  -52.0786 H         1 UNK         0.0600 
    217 H217        0.7023  -22.8904  -52.9590 H         1 UNK         0.0600 
    218 H218       -0.7461  -21.8979  -52.9582 H         1 UNK         0.0600 
    219 H219       -0.0366  -22.4278  -51.4342 H         1 UNK         0.0600 
    220 H220       -3.2725  -25.1278  -53.2647 H         1 UNK         0.3000 
    221 H221       -4.3320  -25.7950  -55.0658 H         1 UNK         0.0600 
    222 H222       -1.5596  -26.7099  -55.9777 H         1 UNK         0.0600 
    223 H223       -2.6667  -27.6037  -54.9380 H         1 UNK         0.0600 
    224 H224       -3.0937  -27.2922  -56.6129 H         1 UNK         0.0600 
    225 H225       -4.0954  -22.7534  -57.1129 H         1 UNK         0.3000 
    226 H226       -4.6642  -23.3829  -54.3117 H         1 UNK         0.0600 
    227 H227       -6.3773  -24.7337  -55.5376 H         1 UNK         0.0600 
    228 H228       -7.1057  -23.3823  -54.6921 H         1 UNK         0.0600 
    229 H229       -6.8654  -23.2984  -56.4342 H         1 UNK         0.0600 
    230 H230       -3.0451  -21.4347  -55.3213 H         1 UNK         0.3000 
    231 H231       -4.5105  -19.0088  -56.0062 H         1 UNK         0.0600 
    232 H232       -1.5194  -19.5693  -55.6511 H         1 UNK         0.0600 
    233 H233       -2.2129  -18.1056  -56.3381 H         1 UNK         0.0600 
    234 H234       -2.4111  -19.6377  -57.1719 H         1 UNK         0.0600 
    235 H235       -3.3972  -20.3666  -52.9885 H         1 UNK         0.3000 
    236 H236       -2.7741  -17.8260  -51.7251 H         1 UNK         0.0600 
    237 H237       -1.6896  -20.0757  -51.1427 H         1 UNK         0.0600 
    238 H238       -2.2783  -19.1524  -49.7722 H         1 UNK         0.0600 
    239 H239       -3.2032  -20.5182  -50.3526 H         1 UNK         0.0600 
    240 H240       -3.7823  -17.4919  -49.4575 H         1 UNK         0.3000 
    241 H241       -6.5335  -16.8078  -49.7905 H         1 UNK         0.0600 
    242 H242       -5.3756  -19.8883  -48.9016 H         1 UNK         0.3800 
    243 H243       -6.8071  -20.3895  -48.0311 H         1 UNK         0.3800 
    244 H244       -6.3258  -15.8395  -47.5031 H         1 UNK         0.0800 
    245 H245       -5.1116  -15.2922  -48.6099 H         1 UNK         0.0800 
    246 H246       -2.2137  -15.3929  -46.3263 H         1 UNK         0.0800 
    247 H247       -3.2438  -14.5196  -47.4185 H         1 UNK         0.0800 
@<TRIPOS>BOND
     1    1    2 1    
     2    1  127 1    
     3    1  128 1    
     4    1  129 1    
     5    2    3 2    
     6    2    4 am   BACKBONE|DICT|INTERRES
     7    4    5 1    
     8    4  130 1    
     9    5    6 1    
    10    5   65 1    
    11    5  131 1    
    12    6    7 1    
    13    6  132 1    
    14    6  133 1    
    15    7    8 1    
    16    8    9 1    
    17    8  134 1    
    18    8  135 1    
    19    9   10 ar   
    20    9   14 ar   
    21   10   11 ar   
    22   10  136 1    
    23   11   12 ar   
    24   11  126 1    
    25   12   13 ar   
    26   12  137 1    
    27   13   14 ar   
    28   13   15 1    
    29   14  138 1    
    30   15   16 1    
    31   15  139 1    
    32   15  140 1    
    33   16   17 1    
    34   17   18 1    
    35   17  141 1    
    36   17  142 1    
    37   18   19 1    
    38   18   67 1    
    39   18  143 1    
    40   19   20 am   BACKBONE|DICT|INTERRES
    41   19  144 1    
    42   20   21 2    
    43   20   22 1    
    44   22   23 1    
    45   22   24 1    
    46   22  145 1    
    47   23  146 1    
    48   23  147 1    
    49   23  148 1    
    50   24   25 am   BACKBONE|DICT|INTERRES
    51   24  149 1    
    52   25   26 2    
    53   25   27 1    
    54   27   28 1    
    55   27   29 1    
    56   27  150 1    
    57   28  151 1    
    58   28  152 1    
    59   28  153 1    
    60   29   30 am   BACKBONE|DICT|INTERRES
    61   29  154 1    
    62   30   31 2    
    63   30   32 1    
    64   32   33 1    
    65   32   34 1    
    66   32  155 1    
    67   33  156 1    
    68   33  157 1    
    69   33  158 1    
    70   34   35 am   BACKBONE|DICT|INTERRES
    71   34  159 1    
    72   35   36 2    
    73   35   37 1    
    74   37   38 1    
    75   37   39 1    
    76   37  160 1    
    77   38  161 1    
    78   38  162 1    
    79   38  163 1    
    80   39   40 am   BACKBONE|DICT|INTERRES
    81   39  164 1    
    82   40   41 2    
    83   40   42 1    
    84   42   43 1    
    85   42   44 1    
    86   42  165 1    
    87   43  166 1    
    88   43  167 1    
    89   43  168 1    
    90   44   45 am   BACKBONE|DICT|INTERRES
    91   44  169 1    
    92   45   46 2    
    93   45   47 1    
    94   47   48 1    
    95   47   49 1    
    96   47  170 1    
    97   48  171 1    
    98   48  172 1    
    99   48  173 1    
   100   49   50 am   BACKBONE|DICT|INTERRES
   101   49  174 1    
   102   50   51 2    
   103   50   52 1    
   104   52   53 1    
   105   52   54 1    
   106   52  175 1    
   107   53  176 1    
   108   53  177 1    
   109   53  178 1    
   110   54   55 am   BACKBONE|DICT|INTERRES
   111   54  179 1    
   112   55   56 2    
   113   55   57 1    
   114   57   58 1    
   115   57   59 1    
   116   57  180 1    
   117   58  181 1    
   118   58  182 1    
   119   58  183 1    
   120   59   60 am   BACKBONE|DICT|INTERRES
   121   59  184 1    
   122   60   61 2    
   123   60   62 1    
   124   62   63 1    
   125   62   64 1    
   126   62  185 1    
   127   63  186 1    
   128   63  187 1    
   129   63  188 1    
   130   64   65 am   BACKBONE|DICT|INTERRES
   131   64  189 1    
   132   65   66 2    
   133   67   68 2    
   134   67   69 am   BACKBONE|DICT|INTERRES
   135   69   70 1    
   136   69  190 1    
   137   70   71 1    
   138   70   72 1    
   139   70  191 1    
   140   71  192 1    
   141   71  193 1    
   142   71  194 1    
   143   72   73 2    
   144   72   74 am   BACKBONE|DICT|INTERRES
   145   74   75 1    
   146   74  195 1    
   147   75   76 1    
   148   75   77 1    
   149   75  196 1    
   150   76  197 1    
   151   76  198 1    
   152   76  199 1    
   153   77   78 2    
   154   77   79 am   BACKBONE|DICT|INTERRES
   155   79   80 1    
   156   79  200 1    
   157   80   81 1    
   158   80   82 1    
   159   80  201 1    
   160   81  202 1    
   161   81  203 1    
   162   81  204 1    
   163   82   83 2    
   164   82   84 am   BACKBONE|DICT|INTERRES
   165   84   85 1    
   166   84  205 1    
   167   85   86 1    
   168   85   87 1    
   169   85  206 1    
   170   86  207 1    
   171   86  208 1    
   172   86  209 1    
   173   87   88 2    
   174   87   89 am   BACKBONE|DICT|INTERRES
   175   89   90 1    
   176   89  210 1    
   177   90   91 1    
   178   90   92 1    
   179   90  211 1    
   180   91  212 1    
   181   91  213 1    
   182   91  214 1    
   183   92   93 2    
   184   92   94 am   BACKBONE|DICT|INTERRES
   185   94   95 1    
   186   94  215 1    
   187   95   96 1    
   188   95   97 1    
   189   95  216 1    
   190   96  217 1    
   191   96  218 1    
   192   96  219 1    
   193   97   98 2    
   194   97   99 am   BACKBONE|DICT|INTERRES
   195   99  100 1    
   196   99  220 1    
   197  100  101 1    
   198  100  102 1    
   199  100  221 1    
   200  101  222 1    
   201  101  223 1    
   202  101  224 1    
   203  102  103 2    
   204  102  104 am   BACKBONE|DICT|INTERRES
   205  104  105 1    
   206  104  225 1    
   207  105  106 1    
   208  105  107 1    
   209  105  226 1    
   210  106  227 1    
   211  106  228 1    
   212  106  229 1    
   213  107  108 2    
   214  107  109 am   BACKBONE|DICT|INTERRES
   215  109  110 1    
   216  109  230 1    
   217  110  111 1    
   218  110  112 1    
   219  110  231 1    
   220  111  232 1    
   221  111  233 1    
   222  111  234 1    
   223  112  113 2    
   224  112  114 am   BACKBONE|DICT|INTERRES
   225  114  115 1    
   226  114  235 1    
   227  115  116 1    
   228  115  117 1    
   229  115  236 1    
   230  116  237 1    
   231  116  238 1    
   232  116  239 1    
   233  117  118 2    
   234  117  119 am   BACKBONE|DICT|INTERRES
   235  119  120 1    
   236  119  240 1    
   237  120  121 1    
   238  120  124 1    
   239  120  241 1    
   240  121  122 am   BACKBONE|DICT|INTERRES
   241  121  123 2    
   242  122  242 1    
   243  122  243 1    
   244  124  125 1    
   245  124  244 1    
   246  124  245 1    
   247  125  126 1    
   248  126  246 1    
   249  126  247 1    
@<TRIPOS>SUBSTRUCTURE
     1 UNK         1 GROUP             0       ****    0 ROOT    
