@<TRIPOS>MOLECULE
3R540
247   249    1
SMALL
USER_CHARGES


@<TRIPOS>ATOM
      1 CA          3.1250  -17.1398  -46.9773 C.3       0 UNK        -0.1800 
      2 C           2.4488  -15.7876  -47.1432 C.2       0 UNK         0.5000 
      3 O           2.0940  -15.1524  -46.1523 O.2       0 UNK        -0.5000 
      4 N           2.2952  -15.3239  -48.3902 N.am      1 UNK        -0.5000 
      5 CA          1.6362  -14.0580  -48.7510 C.3       1 UNK         0.1400 
      6 C6          1.4349  -13.9197  -50.2798 C.3       23 UNK        -0.0398 
      7 S7          0.3616  -15.2373  -50.9411 S.3       23 UNK        -0.2404 
      8 C8          1.5618  -16.3339  -51.7561 C.3       23 UNK        -0.0205 
      9 C9          1.0757  -17.7740  -51.7378 C.ar      23 UNK        -0.0193 
     10 C10         0.2517  -18.2581  -52.7570 C.ar      23 UNK        -0.1150 
     11 C11        -0.1917  -19.5842  -52.7412 C.ar      23 UNK        -0.0193 
     12 C12         0.1825  -20.4250  -51.6880 C.ar      23 UNK        -0.1150 
     13 C13         1.0119  -19.9532  -50.6645 C.ar      23 UNK        -0.0193 
     14 C14         1.4590  -18.6287  -50.7011 C.ar      23 UNK        -0.1150 
     15 C15         1.4718  -20.8873  -49.5530 C.3       23 UNK        -0.0205 
     16 S16         1.1240  -20.2345  -47.8876 S.3       23 UNK        -0.2404 
     17 C17         1.9033  -21.5237  -46.8516 C.3       23 UNK        -0.0398 
     18 CA          0.9387  -22.4996  -46.1285 C.3       11 UNK         0.1400 
     19 N           0.3643  -21.9408  -44.9001 N.am      11 UNK        -0.5000 
     20 C          -0.1573  -22.6862  -43.9128 C.2       10 UNK         0.5000 
     21 O          -0.2405  -23.9147  -43.9593 O.2       10 UNK        -0.5000 
     22 CA         -0.6968  -21.9408  -42.6794 C.3       10 UNK         0.1400 
     23 CB          0.4475  -21.4480  -41.7805 C.3       10 UNK        -0.1800 
     24 N          -1.5555  -20.8198  -43.0545 N.am      10 UNK        -0.5000 
     25 C          -2.7933  -20.9584  -43.5495 C.2       9 UNK         0.5000 
     26 O          -3.3627  -22.0436  -43.6652 O.2       9 UNK        -0.5000 
     27 CA         -3.5158  -19.6770  -44.0058 C.3       9 UNK         0.1400 
     28 CB         -4.3639  -19.1013  -42.8624 C.3       9 UNK        -0.1800 
     29 N          -2.6014  -18.6450  -44.4949 N.am      9 UNK        -0.5000 
     30 C          -1.8585  -18.7544  -45.6048 C.2       8 UNK         0.5000 
     31 O          -1.8933  -19.7340  -46.3471 O.2       8 UNK        -0.5000 
     32 CA         -0.8751  -17.6045  -45.8914 C.3       8 UNK         0.1400 
     33 CB         -1.5963  -16.3625  -46.4376 C.3       8 UNK        -0.1800 
     34 N          -0.1054  -17.2354  -44.7036 N.am      8 UNK        -0.5000 
     35 C           0.7580  -18.0406  -44.0703 C.2       7 UNK         0.5000 
     36 O           1.0166  -19.1877  -44.4309 O.2       7 UNK        -0.5000 
     37 CA          1.4186  -17.4872  -42.7975 C.3       7 UNK         0.1400 
     38 CB          2.7578  -16.8174  -43.1231 C.3       7 UNK        -0.1800 
     39 N           0.5519  -16.5473  -42.0844 N.am      7 UNK        -0.5000 
     40 C          -0.4952  -16.9374  -41.3461 C.2       6 UNK         0.5000 
     41 O          -0.8306  -18.1148  -41.2066 O.2       6 UNK        -0.5000 
     42 CA         -1.3186  -15.8285  -40.6669 C.3       6 UNK         0.1400 
     43 CB         -0.4947  -15.1178  -39.5810 C.3       6 UNK        -0.1800 
     44 N          -1.8705  -14.8301  -41.5863 N.am      6 UNK        -0.5000 
     45 C          -2.6502  -15.0829  -42.6470 C.2       5 UNK         0.5000 
     46 O          -2.8908  -16.2119  -43.0676 O.2       5 UNK        -0.5000 
     47 CA         -3.2803  -13.8770  -43.3700 C.3       5 UNK         0.1400 
     48 CB         -4.7722  -13.7787  -43.0180 C.3       5 UNK        -0.1800 
     49 N          -2.6388  -12.6010  -43.0397 N.am      5 UNK        -0.5000 
     50 C          -1.5062  -12.1002  -43.5522 C.2       4 UNK         0.5000 
     51 O          -1.0641  -11.0155  -43.1708 O.2       4 UNK        -0.5000 
     52 CA         -0.7602  -12.8645  -44.6720 C.3       4 UNK         0.1400 
     53 CB         -1.2903  -12.4460  -46.0524 C.3       4 UNK        -0.1800 
     54 N           0.6756  -12.6076  -44.6253 N.am      4 UNK        -0.5000 
     55 C           1.4973  -13.0331  -43.6567 C.2       3 UNK         0.5000 
     56 O           1.1456  -13.7889  -42.7470 O.2       3 UNK        -0.5000 
     57 CA          2.9477  -12.5285  -43.7480 C.3       3 UNK         0.1400 
     58 CB          3.9325  -13.2659  -42.8224 C.3       3 UNK        -0.1800 
     59 N           3.4121  -12.6076  -45.1314 N.am      3 UNK        -0.5000 
     60 C           4.1246  -11.6661  -45.7640 C.2       2 UNK         0.5000 
     61 O           4.5035  -10.6249  -45.2259 O.2       2 UNK        -0.5000 
     62 CA          4.4795  -11.9124  -47.2465 C.3       2 UNK         0.1400 
     63 CB          5.9557  -12.3170  -47.3832 C.3       2 UNK        -0.1800 
     64 N           3.6534  -12.9331  -47.8942 N.am      2 UNK        -0.5000 
     65 C           2.3493  -12.8105  -48.1807 C.2       1 UNK         0.5000 
     66 O           1.7038  -11.7815  -47.9793 O.2       1 UNK        -0.5000 
     67 C          -0.1196  -23.1180  -47.0661 C.2       11 UNK         0.5000 
     68 O           0.2283  -24.0050  -47.8446 O.2       11 UNK        -0.5000 
     69 N          -1.3828  -22.6770  -46.9561 N.am      12 UNK        -0.5000 
     70 CA         -2.5404  -23.1694  -47.7085 C.3       12 UNK         0.1400 
     71 CB         -3.8136  -22.5012  -47.1657 C.3       12 UNK        -0.1800 
     72 C          -2.7073  -24.6984  -47.6575 C.2       12 UNK         0.5000 
     73 O          -2.9726  -25.3194  -48.6866 O.2       12 UNK        -0.5000 
     74 N          -2.5119  -25.2744  -46.4634 N.am      13 UNK        -0.5000 
     75 CA         -2.5980  -26.7115  -46.2091 C.3       13 UNK         0.1400 
     76 CB         -2.6873  -26.9429  -44.6932 C.3       13 UNK        -0.1800 
     77 C          -1.4211  -27.5046  -46.8070 C.2       13 UNK         0.5000 
     78 O          -1.6071  -28.6579  -47.1956 O.2       13 UNK        -0.5000 
     79 N          -0.2379  -26.8796  -46.8711 N.am      14 UNK        -0.5000 
     80 CA          0.9760  -27.4656  -47.4388 C.3       14 UNK         0.1400 
     81 CB          2.2081  -26.7528  -46.8585 C.3       14 UNK        -0.1800 
     82 C           0.9726  -27.3962  -48.9750 C.2       14 UNK         0.5000 
     83 O           1.3265  -28.3759  -49.6319 O.2       14 UNK        -0.5000 
     84 N           0.5600  -26.2425  -49.5160 N.am      15 UNK        -0.5000 
     85 CA          0.4450  -25.9844  -50.9507 C.3       15 UNK         0.1400 
     86 CB          0.3492  -24.4666  -51.1755 C.3       15 UNK        -0.1800 
     87 C          -0.7580  -26.6916  -51.5999 C.2       15 UNK         0.5000 
     88 O          -0.7168  -26.9560  -52.8020 O.2       15 UNK        -0.5000 
     89 N          -1.8045  -26.9556  -50.8014 N.am      16 UNK        -0.5000 
     90 CA         -3.1310  -27.4355  -51.2021 C.3       16 UNK         0.1400 
     91 CB         -3.0610  -28.8691  -51.7686 C.3       16 UNK        -0.1800 
     92 C          -3.8167  -26.4269  -52.1467 C.2       16 UNK         0.5000 
     93 O          -4.3057  -26.7992  -53.2155 O.2       16 UNK        -0.5000 
     94 N          -3.7928  -25.1519  -51.7421 N.am      17 UNK        -0.5000 
     95 CA         -4.2498  -24.0065  -52.5212 C.3       17 UNK         0.1400 
     96 CB         -3.0572  -23.4257  -53.2972 C.3       17 UNK        -0.1800 
     97 C          -4.8683  -22.9618  -51.5822 C.2       17 UNK         0.5000 
     98 O          -4.5981  -22.9797  -50.3802 O.2       17 UNK        -0.5000 
     99 N          -5.6892  -22.0665  -52.1437 N.am      18 UNK        -0.5000 
    100 CA        -6.5217  -21.0894  -51.4331 C.3       18 UNK         0.1400 
    101 CB        -7.6698  -20.6607  -52.3646 C.3       18 UNK        -0.1800 
    102 C         -5.7564  -19.8823  -50.8402 C.2       18 UNK         0.5000 
    103 O         -6.1741  -18.7375  -51.0330 O.2       18 UNK        -0.5000 
    104 N         -4.6705  -20.1626  -50.1067 N.am      19 UNK        -0.5000 
    105 CA        -3.8463  -19.2864  -49.2575 C.3       19 UNK         0.1400 
    106 CB        -4.6925  -18.7253  -48.0960 C.3       19 UNK        -0.1800 
    107 C         -3.0947  -18.1429  -49.9670 C.2       19 UNK         0.5000 
    108 O         -1.9255  -17.9121  -49.6681 O.2       19 UNK        -0.5000 
    109 N         -3.7867  -17.4341  -50.8581 N.am      20 UNK        -0.5000 
    110 CA        -3.3105  -16.2809  -51.6152 C.3       20 UNK         0.1400 
    111 CB        -3.2858  -15.0290  -50.7189 C.3       20 UNK        -0.1800 
    112 C         -4.1801  -16.0414  -52.8603 C.2       20 UNK         0.5000 
    113 O         -3.6708  -15.5410  -53.8627 O.2       20 UNK        -0.5000 
    114 N         -5.4622  -16.4357  -52.8071 N.am      21 UNK        -0.5000 
    115 CA        -6.4221  -16.3812  -53.9139 C.3       21 UNK         0.1400 
    116 CB        -7.8156  -16.0793  -53.3338 C.3       21 UNK        -0.1800 
    117 C         -6.4013  -17.6880  -54.7375 C.2       21 UNK         0.5000 
    118 O         -7.4484  -18.1622  -55.1811 O.2       21 UNK        -0.5000 
    119 N         -5.2051  -18.2666  -54.8801 N.am      22 UNK        -0.5000 
    120 CA        -4.9057  -19.5574  -55.5085 C.3       22 UNK         0.1400 
    121 C         -5.3218  -19.6314  -57.0044 C.2       22 UNK         0.5000 
    122 N         -5.8375  -20.7659  -57.4578 N.am      22 UNK        -0.7600 
    123 O         -5.1365  -18.6859  -57.7678 O.2       22 UNK        -0.5000 
    124 C124       -3.4031  -19.9019  -55.3513 C.3       23 UNK        -0.0398 
    125 S125       -2.8058  -19.7718  -53.6281 S.3       23 UNK        -0.2404 
    126 C126       -1.0399  -20.1103  -53.8872 C.3       23 UNK        -0.0205 
    127 H127        3.9893  -17.0484  -46.3199 H         1 UNK         0.0600 
    128 H128        3.4624  -17.5466  -47.9305 H         1 UNK         0.0600 
    129 H129        2.4325  -17.8517  -46.5311 H         1 UNK         0.0600 
    130 H130        2.5976  -15.8917  -49.1666 H         1 UNK         0.3000 
    131 H131        0.6473  -14.0820  -48.2906 H         1 UNK         0.0600 
    132 H132        0.9536  -12.9685  -50.5151 H         1 UNK         0.0800 
    133 H133        2.3918  -13.9122  -50.8042 H         1 UNK         0.0800 
    134 H134        1.7168  -15.9985  -52.7826 H         1 UNK         0.0800 
    135 H135        2.5327  -16.2702  -51.2637 H         1 UNK         0.0800 
    136 H136       -0.0426  -17.6029  -53.5648 H         1 UNK         0.1150 
    137 H137       -0.1570  -21.4510  -51.6774 H         1 UNK         0.1150 
    138 H138        2.1024  -18.2633  -49.9143 H         1 UNK         0.1150 
    139 H139        0.9923  -21.8616  -49.6501 H         1 UNK         0.0800 
    140 H140        2.5445  -21.0518  -49.6621 H         1 UNK         0.0800 
    141 H141        2.5365  -21.0231  -46.1177 H         1 UNK         0.0800 
    142 H142        2.5916  -22.0999  -47.4716 H         1 UNK         0.0800 
    143 H143        1.5605  -23.3385  -45.8072 H         1 UNK         0.0600 
    144 H144        0.4252  -20.9304  -44.7911 H         1 UNK         0.3000 
    145 H145       -1.2931  -22.6467  -42.0971 H         1 UNK         0.0600 
    146 H146        0.0634  -20.9347  -40.8986 H         1 UNK         0.0600 
    147 H147        1.0538  -22.2850  -41.4321 H         1 UNK         0.0600 
    148 H148        1.1119  -20.7614  -42.3035 H         1 UNK         0.0600 
    149 H149       -1.1658  -19.8909  -42.9718 H         1 UNK         0.3000 
    150 H150       -4.1845  -19.9490  -44.8252 H         1 UNK         0.0600 
    151 H151       -5.0703  -19.8423  -42.4861 H         1 UNK         0.0600 
    152 H152       -4.9424  -18.2398  -43.1965 H         1 UNK         0.0600 
    153 H153       -3.7420  -18.7818  -42.0248 H         1 UNK         0.0600 
    154 H154       -2.5453  -17.7934  -43.9397 H         1 UNK         0.3000 
    155 H155       -0.1731  -17.9435  -46.6542 H         1 UNK         0.0600 
    156 H156       -2.1372  -16.5974  -47.3535 H         1 UNK         0.0600 
    157 H157       -0.8854  -15.5724  -46.6794 H         1 UNK         0.0600 
    158 H158       -2.3187  -15.9642  -45.7266 H         1 UNK         0.0600 
    159 H159       -0.2546  -16.3129  -44.3262 H         1 UNK         0.3000 
    160 H160        1.6268  -18.3337  -42.1399 H         1 UNK         0.0600 
    161 H161        2.6199  -15.9556  -43.7726 H         1 UNK         0.0600 
    162 H162        3.4285  -17.5094  -43.6337 H         1 UNK         0.0600 
    163 H163        3.2609  -16.4806  -42.2168 H         1 UNK         0.0600 
    164 H164        0.7566  -15.5551  -42.1860 H         1 UNK         0.3000 
    165 H165       -2.1658  -16.3136  -40.1780 H         1 UNK         0.0600 
    166 H166       -1.1146  -14.4347  -39.0002 H         1 UNK         0.0600 
    167 H167       -0.0637  -15.8365  -38.8827 H         1 UNK         0.0600 
    168 H168        0.3268  -14.5417  -40.0092 H         1 UNK         0.0600 
    169 H169       -1.7035  -13.8645  -41.3441 H         1 UNK         0.3000 
    170 H170       -3.2137  -14.0576  -44.4432 H         1 UNK         0.0600 
    171 H171       -5.2971  -14.7000  -43.2752 H         1 UNK         0.0600 
    172 H172       -4.9253  -13.6010  -41.9527 H         1 UNK         0.0600 
    173 H173       -5.2545  -12.9692  -43.5663 H         1 UNK         0.0600 
    174 H174       -3.1110  -12.0574  -42.3321 H         1 UNK         0.3000 
    175 H175       -0.8919  -13.9396  -44.5550 H         1 UNK         0.0600 
    176 H176       -1.1140  -11.3871  -46.2459 H         1 UNK         0.0600 
    177 H177       -0.8099  -13.0136  -46.8474 H         1 UNK         0.0600 
    178 H178       -2.3634  -12.6187  -46.1376 H         1 UNK         0.0600 
    179 H179        1.0456  -11.9886  -45.3322 H         1 UNK         0.3000 
    180 H180        2.9080  -11.4854  -43.4277 H         1 UNK         0.0600 
    181 H181        4.1018  -14.2906  -43.1482 H         1 UNK         0.0600 
    182 H182        3.5691  -13.2958  -41.7945 H         1 UNK         0.0600 
    183 H183        4.8995  -12.7632  -42.8075 H         1 UNK         0.0600 
    184 H184        3.1003  -13.4273  -45.6443 H         1 UNK         0.3000 
    185 H185        4.3320  -10.9696  -47.7775 H         1 UNK         0.0600 
    186 H186        6.6107  -11.5635  -46.9437 H         1 UNK         0.0600 
    187 H187        6.1610  -13.2633  -46.8809 H         1 UNK         0.0600 
    188 H188        6.2415  -12.4221  -48.4300 H         1 UNK         0.0600 
    189 H189        4.0978  -13.8201  -48.0806 H         1 UNK         0.3000 
    190 H190       -1.5479  -21.8770  -46.3562 H         1 UNK         0.3000 
    191 H191       -2.4013  -22.8754  -48.7503 H         1 UNK         0.0600 
    192 H192       -3.7384  -21.4174  -47.1899 H         1 UNK         0.0600 
    193 H193       -4.6879  -22.7810  -47.7536 H         1 UNK         0.0600 
    194 H194       -4.0125  -22.7929  -46.1347 H         1 UNK         0.0600 
    195 H195       -2.2706  -24.6856  -45.6781 H         1 UNK         0.3000 
    196 H196       -3.5163  -27.0854  -46.6670 H         1 UNK         0.0600 
    197 H197       -2.7710  -28.0060  -44.4637 H         1 UNK         0.0600 
    198 H198       -3.5625  -26.4497  -44.2699 H         1 UNK         0.0600 
    199 H199       -1.8051  -26.5626  -44.1759 H         1 UNK         0.0600 
    200 H200       -0.1846  -25.9130  -46.5820 H         1 UNK         0.3000 
    201 H201        1.0297  -28.5172  -47.1487 H         1 UNK         0.0600 
    202 H202        2.2343  -26.8341  -45.7717 H         1 UNK         0.0600 
    203 H203        2.2251  -25.6932  -47.1151 H         1 UNK         0.0600 
    204 H204        3.1286  -27.1962  -47.2400 H         1 UNK         0.0600 
    205 H205        0.3345  -25.4661  -48.8961 H         1 UNK         0.3000 
    206 H206        1.3497  -26.3478  -51.4424 H         1 UNK         0.0600 
    207 H207        1.2411  -23.9612  -50.8061 H         1 UNK         0.0600 
    208 H208        0.2577  -24.2302  -52.2364 H         1 UNK         0.0600 
    209 H209       -0.5160  -24.0383  -50.6671 H         1 UNK         0.0600 
    210 H210       -1.7494  -26.6296  -49.8441 H         1 UNK         0.3000 
    211 H211       -3.7352  -27.4707  -50.2944 H         1 UNK         0.0600 
    212 H212       -2.5179  -28.9109  -52.7130 H         1 UNK         0.0600 
    213 H213       -4.0613  -29.2628  -51.9512 H         1 UNK         0.0600 
    214 H214       -2.5688  -29.5440  -51.0684 H         1 UNK         0.0600 
    215 H215       -3.4630  -24.9352  -50.8064 H         1 UNK         0.3000 
    216 H216       -5.0212  -24.3246  -53.2256 H         1 UNK         0.0600 
    217 H217       -3.3854  -22.6435  -53.9796 H         1 UNK         0.0600 
    218 H218       -2.5638  -24.1896  -53.8986 H         1 UNK         0.0600 
    219 H219       -2.3116  -22.9947  -52.6275 H         1 UNK         0.0600 
    220 H220       -5.8214  -22.1029  -53.1429 H         1 UNK         0.3000 
    221 H221       -6.9759  -21.6007  -50.5817 H         1 UNK         0.0600 
    222 H222       -7.2961  -20.1530  -53.2528 H         1 UNK         0.0600 
    223 H223       -8.2556  -21.5199  -52.6913 H         1 UNK         0.0600 
    224 H224       -8.3561  -19.9789  -51.8606 H         1 UNK         0.0600 
    225 H225       -4.4256  -21.1488  -50.0621 H         1 UNK         0.3000 
    226 H226       -3.0759  -19.9308  -48.8323 H         1 UNK         0.0600 
    227 H227       -5.1409  -19.5249  -47.5072 H         1 UNK         0.0600 
    228 H228       -4.0835  -18.1271  -47.4192 H         1 UNK         0.0600 
    229 H229       -5.4981  -18.0834  -48.4534 H         1 UNK         0.0600 
    230 H230       -4.7299  -17.7633  -51.0479 H         1 UNK         0.3000 
    231 H231       -2.2968  -16.4927  -51.9618 H         1 UNK         0.0600 
    232 H232       -4.2775  -14.7938  -50.3312 H         1 UNK         0.0600 
    233 H233       -2.9317  -14.1597  -51.2742 H         1 UNK         0.0600 
    234 H234       -2.6167  -15.1618  -49.8686 H         1 UNK         0.0600 
    235 H235       -5.8089  -16.8901  -51.9721 H         1 UNK         0.3000 
    236 H236       -6.1573  -15.5675  -54.5919 H         1 UNK         0.0600 
    237 H237       -8.1573  -16.8806  -52.6770 H         1 UNK         0.0600 
    238 H238       -7.8107  -15.1533  -52.7586 H         1 UNK         0.0600 
    239 H239       -8.5558  -15.9626  -54.1262 H         1 UNK         0.0600 
    240 H240       -4.4073  -17.7849  -54.4926 H         1 UNK         0.3000 
    241 H241       -5.4809  -20.3070  -54.9628 H         1 UNK         0.0600 
    242 H242       -6.0955  -20.8290  -58.4307 H         1 UNK         0.3800 
    243 H243       -5.9926  -21.5601  -56.8567 H         1 UNK         0.3800 
    244 H244       -3.2048  -20.9126  -55.7117 H         1 UNK         0.0800 
    245 H245       -2.8011  -19.2326  -55.9692 H         1 UNK         0.0800 
    246 H246       -0.7069  -19.6485  -54.8180 H         1 UNK         0.0800 
    247 H247       -0.8933  -21.1844  -54.0098 H         1 UNK         0.0800 
@<TRIPOS>BOND
     1    1    2 1    
     2    1  127 1    
     3    1  128 1    
     4    1  129 1    
     5    2    3 2    
     6    2    4 am   BACKBONE|DICT|INTERRES
     7    4    5 1    
     8    4  130 1    
     9    5    6 1    
    10    5   65 1    
    11    5  131 1    
    12    6    7 1    
    13    6  132 1    
    14    6  133 1    
    15    7    8 1    
    16    8    9 1    
    17    8  134 1    
    18    8  135 1    
    19    9   10 ar   
    20    9   14 ar   
    21   10   11 ar   
    22   10  136 1    
    23   11   12 ar   
    24   11  126 1    
    25   12   13 ar   
    26   12  137 1    
    27   13   14 ar   
    28   13   15 1    
    29   14  138 1    
    30   15   16 1    
    31   15  139 1    
    32   15  140 1    
    33   16   17 1    
    34   17   18 1    
    35   17  141 1    
    36   17  142 1    
    37   18   19 1    
    38   18   67 1    
    39   18  143 1    
    40   19   20 am   BACKBONE|DICT|INTERRES
    41   19  144 1    
    42   20   21 2    
    43   20   22 1    
    44   22   23 1    
    45   22   24 1    
    46   22  145 1    
    47   23  146 1    
    48   23  147 1    
    49   23  148 1    
    50   24   25 am   BACKBONE|DICT|INTERRES
    51   24  149 1    
    52   25   26 2    
    53   25   27 1    
    54   27   28 1    
    55   27   29 1    
    56   27  150 1    
    57   28  151 1    
    58   28  152 1    
    59   28  153 1    
    60   29   30 am   BACKBONE|DICT|INTERRES
    61   29  154 1    
    62   30   31 2    
    63   30   32 1    
    64   32   33 1    
    65   32   34 1    
    66   32  155 1    
    67   33  156 1    
    68   33  157 1    
    69   33  158 1    
    70   34   35 am   BACKBONE|DICT|INTERRES
    71   34  159 1    
    72   35   36 2    
    73   35   37 1    
    74   37   38 1    
    75   37   39 1    
    76   37  160 1    
    77   38  161 1    
    78   38  162 1    
    79   38  163 1    
    80   39   40 am   BACKBONE|DICT|INTERRES
    81   39  164 1    
    82   40   41 2    
    83   40   42 1    
    84   42   43 1    
    85   42   44 1    
    86   42  165 1    
    87   43  166 1    
    88   43  167 1    
    89   43  168 1    
    90   44   45 am   BACKBONE|DICT|INTERRES
    91   44  169 1    
    92   45   46 2    
    93   45   47 1    
    94   47   48 1    
    95   47   49 1    
    96   47  170 1    
    97   48  171 1    
    98   48  172 1    
    99   48  173 1    
   100   49   50 am   BACKBONE|DICT|INTERRES
   101   49  174 1    
   102   50   51 2    
   103   50   52 1    
   104   52   53 1    
   105   52   54 1    
   106   52  175 1    
   107   53  176 1    
   108   53  177 1    
   109   53  178 1    
   110   54   55 am   BACKBONE|DICT|INTERRES
   111   54  179 1    
   112   55   56 2    
   113   55   57 1    
   114   57   58 1    
   115   57   59 1    
   116   57  180 1    
   117   58  181 1    
   118   58  182 1    
   119   58  183 1    
   120   59   60 am   BACKBONE|DICT|INTERRES
   121   59  184 1    
   122   60   61 2    
   123   60   62 1    
   124   62   63 1    
   125   62   64 1    
   126   62  185 1    
   127   63  186 1    
   128   63  187 1    
   129   63  188 1    
   130   64   65 am   BACKBONE|DICT|INTERRES
   131   64  189 1    
   132   65   66 2    
   133   67   68 2    
   134   67   69 am   BACKBONE|DICT|INTERRES
   135   69   70 1    
   136   69  190 1    
   137   70   71 1    
   138   70   72 1    
   139   70  191 1    
   140   71  192 1    
   141   71  193 1    
   142   71  194 1    
   143   72   73 2    
   144   72   74 am   BACKBONE|DICT|INTERRES
   145   74   75 1    
   146   74  195 1    
   147   75   76 1    
   148   75   77 1    
   149   75  196 1    
   150   76  197 1    
   151   76  198 1    
   152   76  199 1    
   153   77   78 2    
   154   77   79 am   BACKBONE|DICT|INTERRES
   155   79   80 1    
   156   79  200 1    
   157   80   81 1    
   158   80   82 1    
   159   80  201 1    
   160   81  202 1    
   161   81  203 1    
   162   81  204 1    
   163   82   83 2    
   164   82   84 am   BACKBONE|DICT|INTERRES
   165   84   85 1    
   166   84  205 1    
   167   85   86 1    
   168   85   87 1    
   169   85  206 1    
   170   86  207 1    
   171   86  208 1    
   172   86  209 1    
   173   87   88 2    
   174   87   89 am   BACKBONE|DICT|INTERRES
   175   89   90 1    
   176   89  210 1    
   177   90   91 1    
   178   90   92 1    
   179   90  211 1    
   180   91  212 1    
   181   91  213 1    
   182   91  214 1    
   183   92   93 2    
   184   92   94 am   BACKBONE|DICT|INTERRES
   185   94   95 1    
   186   94  215 1    
   187   95   96 1    
   188   95   97 1    
   189   95  216 1    
   190   96  217 1    
   191   96  218 1    
   192   96  219 1    
   193   97   98 2    
   194   97   99 am   BACKBONE|DICT|INTERRES
   195   99  100 1    
   196   99  220 1    
   197  100  101 1    
   198  100  102 1    
   199  100  221 1    
   200  101  222 1    
   201  101  223 1    
   202  101  224 1    
   203  102  103 2    
   204  102  104 am   BACKBONE|DICT|INTERRES
   205  104  105 1    
   206  104  225 1    
   207  105  106 1    
   208  105  107 1    
   209  105  226 1    
   210  106  227 1    
   211  106  228 1    
   212  106  229 1    
   213  107  108 2    
   214  107  109 am   BACKBONE|DICT|INTERRES
   215  109  110 1    
   216  109  230 1    
   217  110  111 1    
   218  110  112 1    
   219  110  231 1    
   220  111  232 1    
   221  111  233 1    
   222  111  234 1    
   223  112  113 2    
   224  112  114 am   BACKBONE|DICT|INTERRES
   225  114  115 1    
   226  114  235 1    
   227  115  116 1    
   228  115  117 1    
   229  115  236 1    
   230  116  237 1    
   231  116  238 1    
   232  116  239 1    
   233  117  118 2    
   234  117  119 am   BACKBONE|DICT|INTERRES
   235  119  120 1    
   236  119  240 1    
   237  120  121 1    
   238  120  124 1    
   239  120  241 1    
   240  121  122 am   BACKBONE|DICT|INTERRES
   241  121  123 2    
   242  122  242 1    
   243  122  243 1    
   244  124  125 1    
   245  124  244 1    
   246  124  245 1    
   247  125  126 1    
   248  126  246 1    
   249  126  247 1    
@<TRIPOS>SUBSTRUCTURE
     1 UNK         1 GROUP             0       ****    0 ROOT    
