@<TRIPOS>MOLECULE
3R540
247   249    1
SMALL
USER_CHARGES


@<TRIPOS>ATOM
      1 CA          0.8005  -10.2041  -51.0457 C.3       0 UNK        -0.1800 
      2 C           1.8950  -10.7548  -50.1435 C.2       0 UNK         0.5000 
      3 O           2.4733  -10.0043  -49.3556 O.2       0 UNK        -0.5000 
      4 N           2.1838  -12.0581  -50.2572 N.am      1 UNK        -0.5000 
      5 CA          3.1556  -12.7904  -49.4384 C.3       1 UNK         0.1400 
      6 C6          3.2614  -14.2642  -49.8886 C.3       23 UNK        -0.0398 
      7 S7          4.6738  -15.1500  -49.1331 S.3       23 UNK        -0.2404 
      8 C8          3.8263  -16.4521  -48.1740 C.3       23 UNK        -0.0205 
      9 C9          3.6127  -17.7356  -48.9710 C.ar      23 UNK        -0.0193 
     10 C10         3.0030  -17.7048  -50.2270 C.ar      23 UNK        -0.1150 
     11 C11         2.7913  -18.8718  -50.9637 C.ar      23 UNK        -0.0193 
     12 C12         3.2046  -20.0950  -50.4243 C.ar      23 UNK        -0.1150 
     13 C13         3.8349  -20.1449  -49.1754 C.ar      23 UNK        -0.0193 
     14 C14         4.0265  -18.9643  -48.4512 C.ar      23 UNK        -0.1150 
     15 C15         4.3559  -21.4635  -48.6223 C.3       23 UNK        -0.0205 
     16 S16         3.3488  -22.0766  -47.2385 S.3       23 UNK        -0.2404 
     17 C17         1.8353  -22.5784  -48.1163 C.3       23 UNK        -0.0398 
     18 CA          0.9158  -23.4429  -47.2248 C.3       11 UNK         0.1400 
     19 N           0.3520  -22.6904  -46.0987 N.am      11 UNK        -0.5000 
     20 C          -0.3404  -23.2392  -45.0903 C.2       10 UNK         0.5000 
     21 O          -0.5330  -24.4503  -44.9713 O.2       10 UNK        -0.5000 
     22 CA         -0.9723  -22.2679  -44.0755 C.3       10 UNK         0.1400 
     23 CB          0.0690  -21.7648  -43.0648 C.3       10 UNK        -0.1800 
     24 N          -1.6275  -21.1302  -44.7242 N.am      10 UNK        -0.5000 
     25 C          -2.6910  -21.2385  -45.5329 C.2       9 UNK         0.5000 
     26 O          -3.2611  -22.3007  -45.7718 O.2       9 UNK        -0.5000 
     27 CA         -3.1857  -19.9614  -46.2306 C.3       9 UNK         0.1400 
     28 CB         -4.1201  -19.1645  -45.3075 C.3       9 UNK        -0.1800 
     29 N          -2.1010  -19.1057  -46.7069 N.am      9 UNK        -0.5000 
     30 C          -1.1833  -19.4643  -47.6178 C.2       8 UNK         0.5000 
     31 O          -1.1737  -20.5549  -48.1856 O.2       8 UNK        -0.5000 
     32 CA         -0.0444  -18.4649  -47.8839 C.3       8 UNK         0.1400 
     33 CB         -0.4996  -17.3397  -48.8199 C.3       8 UNK        -0.1800 
     34 N           0.4708  -17.8813  -46.6476 N.am      8 UNK        -0.5000 
     35 C           1.0948  -18.5723  -45.6840 C.2       7 UNK         0.5000 
     36 O           1.3343  -19.7773  -45.7464 O.2       7 UNK        -0.5000 
     37 CA          1.4510  -17.7843  -44.4111 C.3       7 UNK         0.1400 
     38 CB          2.7350  -16.9663  -44.6146 C.3       7 UNK        -0.1800 
     39 N           0.3650  -16.8920  -43.9999 N.am      7 UNK        -0.5000 
     40 C          -0.8291  -17.3134  -43.5580 C.2       6 UNK         0.5000 
     41 O          -1.1180  -18.4989  -43.3968 O.2       6 UNK        -0.5000 
     42 CA         -1.8916  -16.2291  -43.3014 C.3       6 UNK         0.1400 
     43 CB         -1.7281  -15.6275  -41.8980 C.3       6 UNK        -0.1800 
     44 N          -1.8525  -15.1543  -44.2946 N.am      6 UNK        -0.5000 
     45 C          -2.1341  -15.2929  -45.5961 C.2       5 UNK         0.5000 
     46 O          -2.4815  -16.3667  -46.0862 O.2       5 UNK        -0.5000 
     47 CA         -1.9954  -14.0513  -46.5096 C.3       5 UNK         0.1400 
     48 CB         -3.0241  -14.0681  -47.6546 C.3       5 UNK        -0.1800 
     49 N          -2.0873  -12.7561  -45.8251 N.am      5 UNK        -0.5000 
     50 C          -1.1545  -12.2257  -45.0273 C.2       4 UNK         0.5000 
     51 O          -0.1501  -12.8346  -44.6548 O.2       4 UNK        -0.5000 
     52 CA         -1.3927  -10.7906  -44.5376 C.3       4 UNK         0.1400 
     53 CB         -1.6468  -10.7634  -43.0225 C.3       4 UNK        -0.1800 
     54 N          -0.1978  -10.0143  -44.8385 N.am      4 UNK        -0.5000 
     55 C           0.0135   -9.3447  -45.9756 C.2       3 UNK         0.5000 
     56 O          -0.8574   -9.1394  -46.8220 O.2       3 UNK        -0.5000 
     57 CA          1.4515   -8.8571  -46.2311 C.3       3 UNK         0.1400 
     58 CB          1.8800   -7.7593  -45.2371 C.3       3 UNK        -0.1800 
     59 N           2.4184   -9.9604  -46.2920 N.am      3 UNK        -0.5000 
     60 C           2.8200  -10.7896  -45.3141 C.2       2 UNK         0.5000 
     61 O           2.4855  -10.6613  -44.1348 O.2       2 UNK        -0.5000 
     62 CA          3.7672  -11.9455  -45.7105 C.3       2 UNK         0.1400 
     63 CB          3.4911  -13.2392  -44.9150 C.3       2 UNK        -0.1800 
     64 N           3.8135  -12.2162  -47.1533 N.am      2 UNK        -0.5000 
     65 C           2.8243  -12.6776  -47.9337 C.2       1 UNK         0.5000 
     66 O           1.7006  -12.9878  -47.5343 O.2       1 UNK        -0.5000 
     67 C          -0.1845  -24.1136  -48.0702 C.2       11 UNK         0.5000 
     68 O          -0.0568  -25.2911  -48.4065 O.2       11 UNK        -0.5000 
     69 N          -1.2594  -23.3712  -48.3672 N.am      12 UNK        -0.5000 
     70 CA         -2.4280  -23.8634  -49.0916 C.3       12 UNK         0.1400 
     71 CB         -3.3835  -22.7056  -49.3930 C.3       12 UNK        -0.1800 
     72 C          -3.1611  -24.9893  -48.3463 C.2       12 UNK         0.5000 
     73 O          -3.5040  -25.9898  -48.9706 O.2       12 UNK        -0.5000 
     74 N          -3.3456  -24.8388  -47.0277 N.am      13 UNK        -0.5000 
     75 CA         -3.9461  -25.8484  -46.1550 C.3       13 UNK         0.1400 
     76 CB         -4.1384  -25.2708  -44.7450 C.3       13 UNK        -0.1800 
     77 C          -3.1316  -27.1534  -46.1062 C.2       13 UNK         0.5000 
     78 O          -3.7206  -28.2331  -46.1624 O.2       13 UNK        -0.5000 
     79 N          -1.7967  -27.0343  -46.0569 N.am      14 UNK        -0.5000 
     80 CA         -0.8630  -28.1610  -46.1273 C.3       14 UNK         0.1400 
     81 CB          0.5536  -27.6737  -45.7872 C.3       14 UNK        -0.1800 
     82 C          -0.8867  -28.8754  -47.4941 C.2       14 UNK         0.5000 
     83 O          -0.7807  -30.1014  -47.5413 O.2       14 UNK        -0.5000 
     84 N          -1.0542  -28.1021  -48.5751 N.am      15 UNK        -0.5000 
     85 CA         -1.1887  -28.5905  -49.9500 C.3       15 UNK         0.1400 
     86 CB         -0.8339  -27.4448  -50.9120 C.3       15 UNK        -0.1800 
     87 C          -2.5897  -29.1507  -50.2799 C.2       15 UNK         0.5000 
     88 O          -2.7512  -29.7639  -51.3359 O.2       15 UNK        -0.5000 
     89 N          -3.5708  -28.9138  -49.3960 N.am      16 UNK        -0.5000 
     90 CA         -5.0036  -29.1972  -49.5425 C.3       16 UNK         0.1400 
     91 CB         -5.2682  -30.7146  -49.6350 C.3       16 UNK        -0.1800 
     92 C          -5.6591  -28.3875  -50.6851 C.2       16 UNK         0.5000 
     93 O          -6.5425  -28.8915  -51.3817 O.2       16 UNK        -0.5000 
     94 N          -5.2086  -27.1395  -50.8479 N.am      17 UNK        -0.5000 
     95 CA         -5.7099  -26.1502  -51.7968 C.3       17 UNK         0.1400 
     96 CB         -4.4958  -25.4662  -52.4495 C.3       17 UNK        -0.1800 
     97 C          -6.5956  -25.1159  -51.0753 C.2       17 UNK         0.5000 
     98 O          -6.6860  -25.1205  -49.8443 O.2       17 UNK        -0.5000 
     99 N          -7.2317  -24.2335  -51.8580 N.am      18 UNK        -0.5000 
    100 CA        -8.0190  -23.1001  -51.3657 C.3       18 UNK         0.1400 
    101 CB        -8.7625  -22.4509  -52.5432 C.3       18 UNK        -0.1800 
    102 C         -7.1293  -22.0679  -50.6454 C.2       18 UNK         0.5000 
    103 O         -6.0633  -21.7248  -51.1601 O.2       18 UNK        -0.5000 
    104 N         -7.5813  -21.6148  -49.4696 N.am      19 UNK        -0.5000 
    105 CA        -6.8510  -20.7321  -48.5578 C.3       19 UNK         0.1400 
    106 CB        -7.6365  -20.6385  -47.2389 C.3       19 UNK        -0.1800 
    107 C         -6.5638  -19.3243  -49.1202 C.2       19 UNK         0.5000 
    108 O         -7.2177  -18.8806  -50.0672 O.2       19 UNK        -0.5000 
    109 N         -5.6077  -18.6443  -48.4721 N.am      20 UNK        -0.5000 
    110 CA        -5.0626  -17.3254  -48.8001 C.3       20 UNK         0.1400 
    111 CB        -6.1371  -16.2237  -48.6507 C.3       20 UNK        -0.1800 
    112 C         -4.3259  -17.3407  -50.1552 C.2       20 UNK         0.5000 
    113 O         -3.5251  -18.2490  -50.3821 O.2       20 UNK        -0.5000 
    114 N         -4.5894  -16.3390  -51.0066 N.am      21 UNK        -0.5000 
    115 CA        -3.9299  -16.0701  -52.2888 C.3       21 UNK         0.1400 
    116 CB        -4.1620  -17.2260  -53.2893 C.3       21 UNK        -0.1800 
    117 C         -2.4441  -15.6822  -52.1115 C.2       21 UNK         0.5000 
    118 O         -2.0721  -15.1674  -51.0543 O.2       21 UNK        -0.5000 
    119 N         -1.6372  -15.8882  -53.1619 N.am      22 UNK        -0.5000 
    120 CA        -0.2045  -15.5440  -53.2347 C.3       22 UNK         0.1400 
    121 C          0.0790  -14.0110  -53.1255 C.2       22 UNK         0.5000 
    122 N         -0.7890  -13.1577  -53.6553 N.am      22 UNK        -0.7600 
    123 O          1.0833  -13.5832  -52.5595 O.2       22 UNK        -0.5000 
    124 C124        0.6813  -16.3763  -52.2677 C.3       23 UNK        -0.0398 
    125 S125        0.4670  -18.1903  -52.3973 S.3       23 UNK        -0.2404 
    126 C126        2.1882  -18.8023  -52.3660 C.3       23 UNK        -0.0205 
    127 H127        0.3305  -10.9901  -51.6366 H         1 UNK         0.0600 
    128 H128        1.2144   -9.4629  -51.7292 H         1 UNK         0.0600 
    129 H129        0.0278   -9.7238  -50.4452 H         1 UNK         0.0600 
    130 H130        1.6912  -12.6103  -50.9543 H         1 UNK         0.3000 
    131 H131        4.1230  -12.3165  -49.6187 H         1 UNK         0.0600 
    132 H132        3.3968  -14.3090  -50.9703 H         1 UNK         0.0800 
    133 H133        2.3230  -14.7815  -49.6826 H         1 UNK         0.0800 
    134 H134        4.4309  -16.6577  -47.2896 H         1 UNK         0.0800 
    135 H135        2.8659  -16.0885  -47.8069 H         1 UNK         0.0800 
    136 H136        2.7120  -16.7592  -50.6423 H         1 UNK         0.1150 
    137 H137        3.0651  -21.0055  -50.9897 H         1 UNK         0.1150 
    138 H138        4.5076  -19.0072  -47.4841 H         1 UNK         0.1150 
    139 H139        4.4073  -22.2226  -49.4043 H         1 UNK         0.0800 
    140 H140        5.3794  -21.3218  -48.2723 H         1 UNK         0.0800 
    141 H141        2.1336  -23.1317  -49.0089 H         1 UNK         0.0800 
    142 H142        1.3146  -21.6843  -48.4636 H         1 UNK         0.0800 
    143 H143        1.5193  -24.2502  -46.8036 H         1 UNK         0.0600 
    144 H144        0.5020  -21.6867  -46.1036 H         1 UNK         0.3000 
    145 H145       -1.7365  -22.8190  -43.5235 H         1 UNK         0.0600 
    146 H146       -0.3912  -21.1260  -42.3107 H         1 UNK         0.0600 
    147 H147        0.5391  -22.5991  -42.5428 H         1 UNK         0.0600 
    148 H148        0.8609  -21.1929  -43.5479 H         1 UNK         0.0600 
    149 H149       -1.2462  -20.2096  -44.5335 H         1 UNK         0.3000 
    150 H150       -3.7554  -20.2732  -47.1062 H         1 UNK         0.0600 
    151 H151       -4.9776  -19.7675  -45.0065 H         1 UNK         0.0600 
    152 H152       -4.5045  -18.2690  -45.7947 H         1 UNK         0.0600 
    153 H153       -3.6103  -18.8499  -44.3972 H         1 UNK         0.0600 
    154 H154       -2.0661  -18.1633  -46.3258 H         1 UNK         0.3000 
    155 H155        0.7723  -19.0045  -48.3686 H         1 UNK         0.0600 
    156 H156       -1.3395  -16.7799  -48.4122 H         1 UNK         0.0600 
    157 H157       -0.8221  -17.7436  -49.7793 H         1 UNK         0.0600 
    158 H158        0.3103  -16.6366  -49.0104 H         1 UNK         0.0600 
    159 H159        0.2739  -16.9056  -46.4903 H         1 UNK         0.3000 
    160 H160        1.6263  -18.5054  -43.6097 H         1 UNK         0.0600 
    161 H161        2.6018  -16.1871  -45.3650 H         1 UNK         0.0600 
    162 H162        3.5571  -17.6041  -44.9423 H         1 UNK         0.0600 
    163 H163        3.0466  -16.4855  -43.6872 H         1 UNK         0.0600 
    164 H164        0.5194  -15.8991  -44.1014 H         1 UNK         0.3000 
    165 H165       -2.8730  -16.7041  -43.3577 H         1 UNK         0.0600 
    166 H166       -2.5246  -14.9160  -41.6794 H         1 UNK         0.0600 
    167 H167       -1.7678  -16.4043  -41.1332 H         1 UNK         0.0600 
    168 H168       -0.7753  -15.1074  -41.7902 H         1 UNK         0.0600 
    169 H169       -1.4910  -14.2585  -43.9918 H         1 UNK         0.3000 
    170 H170       -1.0026  -14.1158  -46.9604 H         1 UNK         0.0600 
    171 H171       -2.9264  -14.9654  -48.2660 H         1 UNK         0.0600 
    172 H172       -4.0455  -14.0365  -47.2742 H         1 UNK         0.0600 
    173 H173       -2.8858  -13.2178  -48.3228 H         1 UNK         0.0600 
    174 H174       -2.9023  -12.2025  -46.0466 H         1 UNK         0.3000 
    175 H175       -2.2610  -10.3635  -45.0438 H         1 UNK         0.0600 
    176 H176       -2.5333  -11.3444  -42.7653 H         1 UNK         0.0600 
    177 H177       -0.8069  -11.1788  -42.4636 H         1 UNK         0.0600 
    178 H178       -1.8107   -9.7449  -42.6703 H         1 UNK         0.0600 
    179 H179        0.6220  -10.2247  -44.2751 H         1 UNK         0.3000 
    180 H180        1.4582   -8.4088  -47.2259 H         1 UNK         0.0600 
    181 H181        1.8787   -8.1086  -44.2047 H         1 UNK         0.0600 
    182 H182        1.2020   -6.9067  -45.2897 H         1 UNK         0.0600 
    183 H183        2.8808   -7.3927  -45.4649 H         1 UNK         0.0600 
    184 H184        2.7280  -10.1753  -47.2335 H         1 UNK         0.3000 
    185 H185        4.7687  -11.6081  -45.4403 H         1 UNK         0.0600 
    186 H186        3.6211  -13.0772  -43.8446 H         1 UNK         0.0600 
    187 H187        2.4729  -13.5982  -45.0655 H         1 UNK         0.0600 
    188 H188        4.1750  -14.0362  -45.2069 H         1 UNK         0.0600 
    189 H189        4.6924  -11.9853  -47.5961 H         1 UNK         0.3000 
    190 H190       -1.2688  -22.3872  -48.1056 H         1 UNK         0.3000 
    191 H191       -2.0793  -24.2684  -50.0434 H         1 UNK         0.0600 
    192 H192       -3.7272  -22.2217  -48.4806 H         1 UNK         0.0600 
    193 H193       -4.2621  -23.0703  -49.9233 H         1 UNK         0.0600 
    194 H194       -2.9112  -21.9484  -50.0192 H         1 UNK         0.0600 
    195 H195       -3.0865  -23.9577  -46.5898 H         1 UNK         0.3000 
    196 H196       -4.9313  -26.0890  -46.5601 H         1 UNK         0.0600 
    197 H197       -4.5861  -26.0079  -44.0774 H         1 UNK         0.0600 
    198 H198       -4.7996  -24.4043  -44.7622 H         1 UNK         0.0600 
    199 H199       -3.1908  -24.9593  -44.3046 H         1 UNK         0.0600 
    200 H200       -1.3911  -26.1078  -45.9770 H         1 UNK         0.3000 
    201 H201       -1.1603  -28.8888  -45.3695 H         1 UNK         0.0600 
    202 H202        0.5879  -27.2259  -44.7938 H         1 UNK         0.0600 
    203 H203        0.9075  -26.9292  -46.5003 H         1 UNK         0.0600 
    204 H204        1.2639  -28.5013  -45.7966 H         1 UNK         0.0600 
    205 H205       -1.0695  -27.0950  -48.4515 H         1 UNK         0.3000 
    206 H206       -0.4699  -29.3978  -50.1039 H         1 UNK         0.0600 
    207 H207        0.1699  -27.0650  -50.7211 H         1 UNK         0.0600 
    208 H208       -0.8627  -27.7796  -51.9496 H         1 UNK         0.0600 
    209 H209       -1.5307  -26.6116  -50.8178 H         1 UNK         0.0600 
    210 H210       -3.3253  -28.3638  -48.5832 H         1 UNK         0.3000 
    211 H211       -5.4696  -28.8422  -48.6222 H         1 UNK         0.0600 
    212 H212       -4.8968  -31.1373  -50.5687 H         1 UNK         0.0600 
    213 H213       -6.3366  -30.9271  -49.5843 H         1 UNK         0.0600 
    214 H214       -4.7929  -31.2478  -48.8117 H         1 UNK         0.0600 
    215 H215       -4.5383  -26.7827  -50.1672 H         1 UNK         0.3000 
    216 H216       -6.3055  -26.6342  -52.5732 H         1 UNK         0.0600 
    217 H217       -3.8961  -24.9269  -51.7158 H         1 UNK         0.0600 
    218 H218       -4.8035  -24.7502  -53.2121 H         1 UNK         0.0600 
    219 H219       -3.8481  -26.1966  -52.9351 H         1 UNK         0.0600 
    220 H220       -7.0869  -24.2733  -52.8561 H         1 UNK         0.3000 
    221 H221       -8.7601  -23.4855  -50.6621 H         1 UNK         0.0600 
    222 H222       -9.4285  -23.1626  -53.0314 H         1 UNK         0.0600 
    223 H223       -8.0703  -22.0673  -53.2938 H         1 UNK         0.0600 
    224 H224       -9.3739  -21.6139  -52.2035 H         1 UNK         0.0600 
    225 H225       -8.4845  -21.9291  -49.1470 H         1 UNK         0.3000 
    226 H226       -5.8913  -21.2083  -48.3504 H         1 UNK         0.0600 
    227 H227       -7.7764  -21.6230  -46.7919 H         1 UNK         0.0600 
    228 H228       -7.1121  -20.0259  -46.5047 H         1 UNK         0.0600 
    229 H229       -8.6213  -20.1946  -47.3905 H         1 UNK         0.0600 
    230 H230       -5.1362  -19.1095  -47.7133 H         1 UNK         0.3000 
    231 H231       -4.2926  -17.1265  -48.0535 H         1 UNK         0.0600 
    232 H232       -6.9306  -16.3169  -49.3926 H         1 UNK         0.0600 
    233 H233       -5.7021  -15.2292  -48.7523 H         1 UNK         0.0600 
    234 H234       -6.6007  -16.2663  -47.6651 H         1 UNK         0.0600 
    235 H235       -5.2486  -15.6350  -50.7081 H         1 UNK         0.3000 
    236 H236       -4.4228  -15.1851  -52.6932 H         1 UNK         0.0600 
    237 H237       -3.9005  -16.9309  -54.3057 H         1 UNK         0.0600 
    238 H238       -3.5700  -18.1072  -53.0386 H         1 UNK         0.0600 
    239 H239       -5.2101  -17.5253  -53.3063 H         1 UNK         0.0600 
    240 H240       -2.0256  -16.3150  -53.9899 H         1 UNK         0.3000 
    241 H241        0.1076  -15.8081  -54.2455 H         1 UNK         0.0600 
    242 H242       -0.6113  -12.1683  -53.5952 H         1 UNK         0.3800 
    243 H243       -1.6196  -13.4884  -54.1197 H         1 UNK         0.3800 
    244 H244        0.4937  -16.0759  -51.2379 H         1 UNK         0.0800 
    245 H245        1.7253  -16.1397  -52.4742 H         1 UNK         0.0800 
    246 H246        2.8168  -18.1778  -53.0021 H         1 UNK         0.0800 
    247 H247        2.1965  -19.7932  -52.8223 H         1 UNK         0.0800 
@<TRIPOS>BOND
     1    1    2 1    
     2    1  127 1    
     3    1  128 1    
     4    1  129 1    
     5    2    3 2    
     6    2    4 am   BACKBONE|DICT|INTERRES
     7    4    5 1    
     8    4  130 1    
     9    5    6 1    
    10    5   65 1    
    11    5  131 1    
    12    6    7 1    
    13    6  132 1    
    14    6  133 1    
    15    7    8 1    
    16    8    9 1    
    17    8  134 1    
    18    8  135 1    
    19    9   10 ar   
    20    9   14 ar   
    21   10   11 ar   
    22   10  136 1    
    23   11   12 ar   
    24   11  126 1    
    25   12   13 ar   
    26   12  137 1    
    27   13   14 ar   
    28   13   15 1    
    29   14  138 1    
    30   15   16 1    
    31   15  139 1    
    32   15  140 1    
    33   16   17 1    
    34   17   18 1    
    35   17  141 1    
    36   17  142 1    
    37   18   19 1    
    38   18   67 1    
    39   18  143 1    
    40   19   20 am   BACKBONE|DICT|INTERRES
    41   19  144 1    
    42   20   21 2    
    43   20   22 1    
    44   22   23 1    
    45   22   24 1    
    46   22  145 1    
    47   23  146 1    
    48   23  147 1    
    49   23  148 1    
    50   24   25 am   BACKBONE|DICT|INTERRES
    51   24  149 1    
    52   25   26 2    
    53   25   27 1    
    54   27   28 1    
    55   27   29 1    
    56   27  150 1    
    57   28  151 1    
    58   28  152 1    
    59   28  153 1    
    60   29   30 am   BACKBONE|DICT|INTERRES
    61   29  154 1    
    62   30   31 2    
    63   30   32 1    
    64   32   33 1    
    65   32   34 1    
    66   32  155 1    
    67   33  156 1    
    68   33  157 1    
    69   33  158 1    
    70   34   35 am   BACKBONE|DICT|INTERRES
    71   34  159 1    
    72   35   36 2    
    73   35   37 1    
    74   37   38 1    
    75   37   39 1    
    76   37  160 1    
    77   38  161 1    
    78   38  162 1    
    79   38  163 1    
    80   39   40 am   BACKBONE|DICT|INTERRES
    81   39  164 1    
    82   40   41 2    
    83   40   42 1    
    84   42   43 1    
    85   42   44 1    
    86   42  165 1    
    87   43  166 1    
    88   43  167 1    
    89   43  168 1    
    90   44   45 am   BACKBONE|DICT|INTERRES
    91   44  169 1    
    92   45   46 2    
    93   45   47 1    
    94   47   48 1    
    95   47   49 1    
    96   47  170 1    
    97   48  171 1    
    98   48  172 1    
    99   48  173 1    
   100   49   50 am   BACKBONE|DICT|INTERRES
   101   49  174 1    
   102   50   51 2    
   103   50   52 1    
   104   52   53 1    
   105   52   54 1    
   106   52  175 1    
   107   53  176 1    
   108   53  177 1    
   109   53  178 1    
   110   54   55 am   BACKBONE|DICT|INTERRES
   111   54  179 1    
   112   55   56 2    
   113   55   57 1    
   114   57   58 1    
   115   57   59 1    
   116   57  180 1    
   117   58  181 1    
   118   58  182 1    
   119   58  183 1    
   120   59   60 am   BACKBONE|DICT|INTERRES
   121   59  184 1    
   122   60   61 2    
   123   60   62 1    
   124   62   63 1    
   125   62   64 1    
   126   62  185 1    
   127   63  186 1    
   128   63  187 1    
   129   63  188 1    
   130   64   65 am   BACKBONE|DICT|INTERRES
   131   64  189 1    
   132   65   66 2    
   133   67   68 2    
   134   67   69 am   BACKBONE|DICT|INTERRES
   135   69   70 1    
   136   69  190 1    
   137   70   71 1    
   138   70   72 1    
   139   70  191 1    
   140   71  192 1    
   141   71  193 1    
   142   71  194 1    
   143   72   73 2    
   144   72   74 am   BACKBONE|DICT|INTERRES
   145   74   75 1    
   146   74  195 1    
   147   75   76 1    
   148   75   77 1    
   149   75  196 1    
   150   76  197 1    
   151   76  198 1    
   152   76  199 1    
   153   77   78 2    
   154   77   79 am   BACKBONE|DICT|INTERRES
   155   79   80 1    
   156   79  200 1    
   157   80   81 1    
   158   80   82 1    
   159   80  201 1    
   160   81  202 1    
   161   81  203 1    
   162   81  204 1    
   163   82   83 2    
   164   82   84 am   BACKBONE|DICT|INTERRES
   165   84   85 1    
   166   84  205 1    
   167   85   86 1    
   168   85   87 1    
   169   85  206 1    
   170   86  207 1    
   171   86  208 1    
   172   86  209 1    
   173   87   88 2    
   174   87   89 am   BACKBONE|DICT|INTERRES
   175   89   90 1    
   176   89  210 1    
   177   90   91 1    
   178   90   92 1    
   179   90  211 1    
   180   91  212 1    
   181   91  213 1    
   182   91  214 1    
   183   92   93 2    
   184   92   94 am   BACKBONE|DICT|INTERRES
   185   94   95 1    
   186   94  215 1    
   187   95   96 1    
   188   95   97 1    
   189   95  216 1    
   190   96  217 1    
   191   96  218 1    
   192   96  219 1    
   193   97   98 2    
   194   97   99 am   BACKBONE|DICT|INTERRES
   195   99  100 1    
   196   99  220 1    
   197  100  101 1    
   198  100  102 1    
   199  100  221 1    
   200  101  222 1    
   201  101  223 1    
   202  101  224 1    
   203  102  103 2    
   204  102  104 am   BACKBONE|DICT|INTERRES
   205  104  105 1    
   206  104  225 1    
   207  105  106 1    
   208  105  107 1    
   209  105  226 1    
   210  106  227 1    
   211  106  228 1    
   212  106  229 1    
   213  107  108 2    
   214  107  109 am   BACKBONE|DICT|INTERRES
   215  109  110 1    
   216  109  230 1    
   217  110  111 1    
   218  110  112 1    
   219  110  231 1    
   220  111  232 1    
   221  111  233 1    
   222  111  234 1    
   223  112  113 2    
   224  112  114 am   BACKBONE|DICT|INTERRES
   225  114  115 1    
   226  114  235 1    
   227  115  116 1    
   228  115  117 1    
   229  115  236 1    
   230  116  237 1    
   231  116  238 1    
   232  116  239 1    
   233  117  118 2    
   234  117  119 am   BACKBONE|DICT|INTERRES
   235  119  120 1    
   236  119  240 1    
   237  120  121 1    
   238  120  124 1    
   239  120  241 1    
   240  121  122 am   BACKBONE|DICT|INTERRES
   241  121  123 2    
   242  122  242 1    
   243  122  243 1    
   244  124  125 1    
   245  124  244 1    
   246  124  245 1    
   247  125  126 1    
   248  126  246 1    
   249  126  247 1    
@<TRIPOS>SUBSTRUCTURE
     1 UNK         1 GROUP             0       ****    0 ROOT    
