@<TRIPOS>MOLECULE
3R540
247   249    1
SMALL
USER_CHARGES


@<TRIPOS>ATOM
      1 CA         -4.2321  -15.1940  -47.9807 C.3       0 UNK        -0.1800 
      2 C          -3.3524  -14.0805  -48.5318 C.2       0 UNK         0.5000 
      3 O          -3.8548  -13.0056  -48.8608 O.2       0 UNK        -0.5000 
      4 N          -2.0443  -14.3404  -48.6381 N.am      1 UNK        -0.5000 
      5 CA         -1.0189  -13.4013  -49.1067 C.3       1 UNK         0.1400 
      6 C6          0.3560  -14.0943  -49.2982 C.3       23 UNK        -0.0398 
      7 S7          0.2807  -15.6321  -50.2676 S.3       23 UNK        -0.2404 
      8 C8          2.0426  -16.0825  -50.3146 C.3       23 UNK        -0.0205 
      9 C9          2.2223  -17.5882  -50.4157 C.ar      23 UNK        -0.0193 
     10 C10         1.7284  -18.2796  -51.5245 C.ar      23 UNK        -0.1150 
     11 C11         1.8658  -19.6664  -51.6188 C.ar      23 UNK        -0.0193 
     12 C12         2.5247  -20.3590  -50.5966 C.ar      23 UNK        -0.1150 
     13 C13         3.0546  -19.6768  -49.4948 C.ar      23 UNK        -0.0193 
     14 C14         2.8931  -18.2900  -49.4097 C.ar      23 UNK        -0.1150 
     15 C15         3.8384  -20.4415  -48.4289 C.3       23 UNK        -0.0205 
     16 S16         3.3447  -20.0708  -46.7078 S.3       23 UNK        -0.2404 
     17 C17         1.5799  -20.5050  -46.7410 C.3       23 UNK        -0.0398 
     18 CA          1.3260  -22.0178  -46.5585 C.3       11 UNK         0.1400 
     19 N           1.5135  -22.4741  -45.1790 N.am      11 UNK        -0.5000 
     20 C           1.5199  -23.7647  -44.8066 C.2       10 UNK         0.5000 
     21 O           1.4526  -24.7048  -45.5984 O.2       10 UNK        -0.5000 
     22 CA          1.5359  -24.0598  -43.2928 C.3       10 UNK         0.1400 
     23 CB          2.9761  -24.0797  -42.7605 C.3       10 UNK        -0.1800 
     24 N           0.7489  -23.0971  -42.5218 N.am      10 UNK        -0.5000 
     25 C          -0.5552  -22.8547  -42.7079 C.2       9 UNK         0.5000 
     26 O          -1.2706  -23.5370  -43.4398 O.2       9 UNK        -0.5000 
     27 CA         -1.1671  -21.6255  -42.0122 C.3       9 UNK         0.1400 
     28 CB         -2.1343  -22.0601  -40.9013 C.3       9 UNK        -0.1800 
     29 N          -0.2238  -20.6516  -41.4567 N.am      9 UNK        -0.5000 
     30 C           0.7417  -19.9819  -42.1018 C.2       8 UNK         0.5000 
     31 O           1.1322  -20.2544  -43.2385 O.2       8 UNK        -0.5000 
     32 CA          1.3271  -18.7775  -41.3363 C.3       8 UNK         0.1400 
     33 CB          2.5025  -18.1134  -42.0742 C.3       8 UNK        -0.1800 
     34 N           0.2813  -17.7791  -41.1108 N.am      8 UNK        -0.5000 
     35 C          -0.6772  -17.8492  -40.1762 C.2       7 UNK         0.5000 
     36 O          -0.7048  -18.7056  -39.2910 O.2       7 UNK        -0.5000 
     37 CA         -1.8368  -16.8503  -40.3090 C.3       7 UNK         0.1400 
     38 CB         -1.4323  -15.4615  -39.7910 C.3       7 UNK        -0.1800 
     39 N          -2.2765  -16.7556  -41.7027 N.am      7 UNK        -0.5000 
     40 C          -3.1129  -17.6217  -42.2962 C.2       6 UNK         0.5000 
     41 O          -3.6542  -18.5582  -41.7087 O.2       6 UNK        -0.5000 
     42 CA         -3.3934  -17.4128  -43.7985 C.3       6 UNK         0.1400 
     43 CB         -4.5966  -16.4794  -43.9998 C.3       6 UNK        -0.1800 
     44 N          -2.2379  -16.8635  -44.5069 N.am      6 UNK        -0.5000 
     45 C          -1.1681  -17.5824  -44.8733 C.2       5 UNK         0.5000 
     46 O          -1.1198  -18.8094  -44.7978 O.2       5 UNK        -0.5000 
     47 CA          0.0560  -16.8053  -45.4058 C.3       5 UNK         0.1400 
     48 CB          0.1956  -16.9843  -46.9215 C.3       5 UNK        -0.1800 
     49 N           0.0473  -15.3688  -45.1011 N.am      5 UNK        -0.5000 
     50 C           0.1298  -14.8366  -43.8741 C.2       4 UNK         0.5000 
     51 O           0.1960  -15.5130  -42.8477 O.2       4 UNK        -0.5000 
     52 CA          0.0784  -13.2996  -43.7992 C.3       4 UNK         0.1400 
     53 CB          0.3541  -12.7396  -42.3879 C.3       4 UNK        -0.1800 
     54 N           0.9251  -12.6687  -44.8154 N.am      4 UNK        -0.5000 
     55 C           2.2665  -12.6365  -44.8707 C.2       3 UNK         0.5000 
     56 O           2.9964  -13.1485  -44.0215 O.2       3 UNK        -0.5000 
     57 CA          2.9190  -11.9284  -46.0828 C.3       3 UNK         0.1400 
     58 CB          3.8011  -12.9123  -46.8708 C.3       3 UNK        -0.1800 
     59 N           1.9604  -11.3307  -47.0155 N.am      3 UNK        -0.5000 
     60 C           1.2209  -10.2322  -46.8044 C.2       2 UNK         0.5000 
     61 O           1.3469   -9.5027  -45.8212 O.2       2 UNK        -0.5000 
     62 CA          0.1185   -9.9317  -47.8461 C.3       2 UNK         0.1400 
     63 CB          0.5737   -8.8207  -48.8045 C.3       2 UNK        -0.1800 
     64 N          -0.2941  -11.1034  -48.6341 N.am      2 UNK        -0.5000 
     65 C          -0.8388  -12.2205  -48.1291 C.2       1 UNK         0.5000 
     66 O          -1.0828  -12.3737  -46.9289 O.2       1 UNK        -0.5000 
     67 C          -0.0817  -22.3649  -47.0651 C.2       11 UNK         0.5000 
     68 O          -0.2054  -22.9601  -48.1336 O.2       11 UNK        -0.5000 
     69 N          -1.1116  -22.0036  -46.2863 N.am      12 UNK        -0.5000 
     70 CA         -2.5149  -22.2537  -46.6128 C.3       12 UNK         0.1400 
     71 CB         -3.4223  -21.5738  -45.5783 C.3       12 UNK        -0.1800 
     72 C          -2.8502  -23.7479  -46.7537 C.2       12 UNK         0.5000 
     73 O          -3.5832  -24.1114  -47.6731 O.2       12 UNK        -0.5000 
     74 N          -2.2768  -24.5811  -45.8768 N.am      13 UNK        -0.5000 
     75 CA         -2.3847  -26.0377  -45.9144 C.3       13 UNK         0.1400 
     76 CB         -1.7908  -26.6253  -44.6251 C.3       13 UNK        -0.1800 
     77 C          -1.7115  -26.6543  -47.1540 C.2       13 UNK         0.5000 
     78 O          -2.2950  -27.5419  -47.7766 O.2       13 UNK        -0.5000 
     79 N          -0.5090  -26.1700  -47.4973 N.am      14 UNK        -0.5000 
     80 CA          0.2596  -26.6234  -48.6577 C.3       14 UNK         0.1400 
     81 CB          1.7047  -26.1123  -48.5498 C.3       14 UNK        -0.1800 
     82 C          -0.3687  -26.1906  -49.9940 C.2       14 UNK         0.5000 
     83 O          -0.4429  -26.9963  -50.9226 O.2       14 UNK        -0.5000 
     84 N          -0.8069  -24.9279  -50.0652 N.am      15 UNK        -0.5000 
     85 CA         -1.4097  -24.3225  -51.2512 C.3       15 UNK         0.1400 
     86 CB         -1.3773  -22.7967  -51.0937 C.3       15 UNK        -0.1800 
     87 C          -2.8555  -24.7760  -51.5126 C.2       15 UNK         0.5000 
     88 O          -3.2960  -24.7102  -52.6594 O.2       15 UNK        -0.5000 
     89 N          -3.5623  -25.1864  -50.4483 N.am      16 UNK        -0.5000 
     90 CA         -5.0134  -25.3827  -50.3710 C.3       16 UNK         0.1400 
     91 CB         -5.5030  -26.4790  -51.3415 C.3       16 UNK        -0.1800 
     92 C          -5.7377  -24.0302  -50.5348 C.2       16 UNK         0.5000 
     93 O          -6.5285  -23.8565  -51.4617 O.2       16 UNK        -0.5000 
     94 N          -5.4109  -23.1114  -49.6136 N.am      17 UNK        -0.5000 
     95 CA         -5.7250  -21.6802  -49.5559 C.3       17 UNK         0.1400 
     96 CB         -7.1792  -21.3434  -49.9432 C.3       17 UNK        -0.1800 
     97 C          -4.6896  -20.8729  -50.3574 C.2       17 UNK         0.5000 
     98 O          -4.7513  -20.8166  -51.5881 O.2       17 UNK        -0.5000 
     99 N          -3.7374  -20.2725  -49.6296 N.am      18 UNK        -0.5000 
    100 CA        -2.6608  -19.4429  -50.1718 C.3       18 UNK         0.1400 
    101 CB        -1.6706  -19.0978  -49.0518 C.3       18 UNK        -0.1800 
    102 C         -3.2014  -18.1690  -50.8409 C.2       18 UNK         0.5000 
    103 O         -4.2088  -17.6226  -50.3861 O.2       18 UNK        -0.5000 
    104 N         -2.5463  -17.7535  -51.9322 N.am      19 UNK        -0.5000 
    105 CA        -2.9191  -16.6898  -52.8765 C.3       19 UNK         0.1400 
    106 CB        -3.0568  -15.3164  -52.1907 C.3       19 UNK        -0.1800 
    107 C         -4.1758  -17.0120  -53.7091 C.2       19 UNK         0.5000 
    108 O         -4.1677  -16.7874  -54.9191 O.2       19 UNK        -0.5000 
    109 N         -5.2205  -17.5421  -53.0621 N.am      20 UNK        -0.5000 
    110 CA        -6.4907  -17.9345  -53.6658 C.3       20 UNK         0.1400 
    111 CB        -7.4790  -18.3305  -52.5582 C.3       20 UNK        -0.1800 
    112 C         -6.3342  -19.0620  -54.7004 C.2       20 UNK         0.5000 
    113 O         -6.8037  -18.9115  -55.8295 O.2       20 UNK        -0.5000 
    114 N         -5.6697  -20.1571  -54.3070 N.am      21 UNK        -0.5000 
    115 CA        -5.4141  -21.2996  -55.1822 C.3       21 UNK         0.1400 
    116 CB        -5.4621  -22.5964  -54.3644 C.3       21 UNK        -0.1800 
    117 C         -4.0716  -21.1716  -55.9173 C.2       21 UNK         0.5000 
    118 O         -4.0179  -21.4402  -57.1184 O.2       21 UNK        -0.5000 
    119 N         -3.0134  -20.7823  -55.1923 N.am      22 UNK        -0.5000 
    120 CA        -1.6361  -20.7303  -55.7147 C.3       22 UNK         0.1400 
    121 C         -1.2345  -19.4029  -56.4226 C.2       22 UNK         0.5000 
    122 N         -2.0772  -18.3792  -56.4604 N.am      22 UNK        -0.7600 
    123 O         -0.1405  -19.3073  -56.9721 O.2       22 UNK        -0.5000 
    124 C124       -0.5998  -21.1954  -54.6600 C.3       23 UNK        -0.0398 
    125 S125       -0.3907  -20.0806  -53.2281 S.3       23 UNK        -0.2404 
    126 C126        1.3638  -20.4065  -52.8521 C.3       23 UNK        -0.0205 
    127 H127       -4.7404  -14.8577  -47.0774 H         1 UNK         0.0600 
    128 H128       -3.6547  -16.0862  -47.7360 H         1 UNK         0.0600 
    129 H129       -4.9875  -15.4722  -48.7156 H         1 UNK         0.0600 
    130 H130       -1.7044  -15.2562  -48.3910 H         1 UNK         0.3000 
    131 H131       -1.3498  -13.0053  -50.0691 H         1 UNK         0.0600 
    132 H132        0.8023  -14.3372  -48.3322 H         1 UNK         0.0800 
    133 H133        1.0538  -13.4202  -49.7983 H         1 UNK         0.0800 
    134 H134        2.5163  -15.5992  -51.1700 H         1 UNK         0.0800 
    135 H135        2.5458  -15.7022  -49.4245 H         1 UNK         0.0800 
    136 H136        1.2291  -17.7351  -52.3137 H         1 UNK         0.1150 
    137 H137        2.6515  -21.4298  -50.6738 H         1 UNK         0.1150 
    138 H138        3.2974  -17.7578  -48.5601 H         1 UNK         0.1150 
    139 H139        3.7539  -21.5172  -48.5897 H         1 UNK         0.0800 
    140 H140        4.8960  -20.2013  -48.5432 H         1 UNK         0.0800 
    141 H141        1.1609  -20.1448  -47.6817 H         1 UNK         0.0800 
    142 H142        1.0764  -19.9390  -45.9564 H         1 UNK         0.0800 
    143 H143        2.0301  -22.5656  -47.1883 H         1 UNK         0.0600 
    144 H144        1.5328  -21.7520  -44.4637 H         1 UNK         0.3000 
    145 H145        1.0972  -25.0481  -43.1410 H         1 UNK         0.0600 
    146 H146        3.0041  -24.3611  -41.7077 H         1 UNK         0.0600 
    147 H147        3.5833  -24.8033  -43.3060 H         1 UNK         0.0600 
    148 H148        3.4559  -23.1052  -42.8616 H         1 UNK         0.0600 
    149 H149        1.2606  -22.4715  -41.9177 H         1 UNK         0.3000 
    150 H150       -1.7445  -21.0961  -42.7727 H         1 UNK         0.0600 
    151 H151       -2.8840  -22.7557  -41.2811 H         1 UNK         0.0600 
    152 H152       -2.6695  -21.2041  -40.4889 H         1 UNK         0.0600 
    153 H153       -1.6090  -22.5552  -40.0838 H         1 UNK         0.0600 
    154 H154       -0.4534  -20.3119  -40.5289 H         1 UNK         0.3000 
    155 H155        1.6956  -19.1393  -40.3743 H         1 UNK         0.0600 
    156 H156        2.9174  -17.2907  -41.4918 H         1 UNK         0.0600 
    157 H157        3.3078  -18.8276  -42.2501 H         1 UNK         0.0600 
    158 H158        2.1995  -17.7148  -43.0418 H         1 UNK         0.0600 
    159 H159        0.2298  -17.0258  -41.7932 H         1 UNK         0.3000 
    160 H160       -2.6672  -17.2081  -39.6963 H         1 UNK         0.0600 
    161 H161       -0.5635  -15.0668  -40.3174 H         1 UNK         0.0600 
    162 H162       -1.1776  -15.5038  -38.7313 H         1 UNK         0.0600 
    163 H163       -2.2467  -14.7456  -39.9015 H         1 UNK         0.0600 
    164 H164       -1.8097  -16.0602  -42.2681 H         1 UNK         0.3000 
    165 H165       -3.6447  -18.3847  -44.2285 H         1 UNK         0.0600 
    166 H166       -4.8512  -16.3893  -45.0557 H         1 UNK         0.0600 
    167 H167       -5.4788  -16.8642  -43.4864 H         1 UNK         0.0600 
    168 H168       -4.4019  -15.4784  -43.6131 H         1 UNK         0.0600 
    169 H169       -2.2127  -15.8638  -44.6364 H         1 UNK         0.3000 
    170 H170        0.9375  -17.2432  -44.9352 H         1 UNK         0.0600 
    171 H171        0.2244  -18.0379  -47.1909 H         1 UNK         0.0600 
    172 H172       -0.6397  -16.5364  -47.4571 H         1 UNK         0.0600 
    173 H173        1.1199  -16.5385  -47.2879 H         1 UNK         0.0600 
    174 H174       -0.0222  -14.7369  -45.8845 H         1 UNK         0.3000 
    175 H175       -0.9449  -13.0227  -44.0567 H         1 UNK         0.0600 
    176 H176       -0.4153  -13.0633  -41.6868 H         1 UNK         0.0600 
    177 H177        1.3136  -13.0748  -41.9935 H         1 UNK         0.0600 
    178 H178        0.3520  -11.6497  -42.3882 H         1 UNK         0.0600 
    179 H179        0.4107  -12.2517  -45.5838 H         1 UNK         0.3000 
    180 H180        3.5556  -11.1338  -45.6888 H         1 UNK         0.0600 
    181 H181        3.2184  -13.7407  -47.2758 H         1 UNK         0.0600 
    182 H182        4.5785  -13.3392  -46.2358 H         1 UNK         0.0600 
    183 H183        4.3030  -12.4156  -47.7014 H         1 UNK         0.0600 
    184 H184        1.8030  -11.8376  -47.8720 H         1 UNK         0.3000 
    185 H185       -0.7560   -9.5755  -47.2979 H         1 UNK         0.0600 
    186 H186        0.8598   -7.9229  -48.2549 H         1 UNK         0.0600 
    187 H187        1.4344   -9.1296  -49.3991 H         1 UNK         0.0600 
    188 H188       -0.2255   -8.5382  -49.4900 H         1 UNK         0.0600 
    189 H189       -0.1161  -11.0502  -49.6272 H         1 UNK         0.3000 
    190 H190       -0.9252  -21.5117  -45.4238 H         1 UNK         0.3000 
    191 H191       -2.7038  -21.7936  -47.5825 H         1 UNK         0.0600 
    192 H192       -3.2685  -21.9791  -44.5780 H         1 UNK         0.0600 
    193 H193       -4.4745  -21.7137  -45.8293 H         1 UNK         0.0600 
    194 H194       -3.2375  -20.5005  -45.5377 H         1 UNK         0.0600 
    195 H195       -1.7413  -24.1841  -45.1078 H         1 UNK         0.3000 
    196 H196       -3.4456  -26.2941  -45.9485 H         1 UNK         0.0600 
    197 H197       -1.8710  -27.7130  -44.6169 H         1 UNK         0.0600 
    198 H198       -2.3156  -26.2530  -43.7451 H         1 UNK         0.0600 
    199 H199       -0.7358  -26.3711  -44.5161 H         1 UNK         0.0600 
    200 H200       -0.0801  -25.4542  -46.9218 H         1 UNK         0.3000 
    201 H201        0.2872  -27.7150  -48.6415 H         1 UNK         0.0600 
    202 H202        2.1907  -26.4950  -47.6522 H         1 UNK         0.0600 
    203 H203        1.7456  -25.0229  -48.5126 H         1 UNK         0.0600 
    204 H204        2.2999  -26.4357  -49.4046 H         1 UNK         0.0600 
    205 H205       -0.6598  -24.3097  -49.2689 H         1 UNK         0.3000 
    206 H206       -0.8119  -24.5908  -52.1247 H         1 UNK         0.0600 
    207 H207       -0.3551  -22.4237  -51.0291 H         1 UNK         0.0600 
    208 H208       -1.8568  -22.3074  -51.9418 H         1 UNK         0.0600 
    209 H209       -1.9070  -22.4791  -50.1954 H         1 UNK         0.0600 
    210 H210       -3.0922  -25.1708  -49.5518 H         1 UNK         0.3000 
    211 H211       -5.2220  -25.7317  -49.3585 H         1 UNK         0.0600 
    212 H212       -5.4059  -26.1823  -52.3859 H         1 UNK         0.0600 
    213 H213       -6.5560  -26.7026  -51.1678 H         1 UNK         0.0600 
    214 H214       -4.9456  -27.4052  -51.2020 H         1 UNK         0.0600 
    215 H215       -4.7474  -23.4214  -48.9059 H         1 UNK         0.3000 
    216 H216       -5.6189  -21.4093  -48.5042 H         1 UNK         0.0600 
    217 H217       -7.3629  -21.4734  -51.0100 H         1 UNK         0.0600 
    218 H218       -7.4076  -20.3044  -49.7042 H         1 UNK         0.0600 
    219 H219       -7.8891  -21.9667  -49.3995 H         1 UNK         0.0600 
    220 H220       -3.7997  -20.3077  -48.6248 H         1 UNK         0.3000 
    221 H221       -2.1374  -20.0338  -50.9228 H         1 UNK         0.0600 
    222 H222       -1.2310  -19.9981  -48.6245 H         1 UNK         0.0600 
    223 H223       -2.1500  -18.5392  -48.2469 H         1 UNK         0.0600 
    224 H224       -0.8483  -18.4914  -49.4346 H         1 UNK         0.0600 
    225 H225       -1.7362  -18.2898  -52.2160 H         1 UNK         0.3000 
    226 H226       -2.0870  -16.6210  -53.5793 H         1 UNK         0.0600 
    227 H227       -2.1520  -15.0494  -51.6498 H         1 UNK         0.0600 
    228 H228       -3.2321  -14.5328  -52.9286 H         1 UNK         0.0600 
    229 H229       -3.8886  -15.2859  -51.4870 H         1 UNK         0.0600 
    230 H230       -5.1238  -17.6766  -52.0597 H         1 UNK         0.3000 
    231 H231       -6.8947  -17.0621  -54.1835 H         1 UNK         0.0600 
    232 H232       -7.1016  -19.1618  -51.9633 H         1 UNK         0.0600 
    233 H233       -8.4384  -18.6344  -52.9788 H         1 UNK         0.0600 
    234 H234       -7.6686  -17.4962  -51.8827 H         1 UNK         0.0600 
    235 H235       -5.3352  -20.2301  -53.3493 H         1 UNK         0.3000 
    236 H236       -6.1997  -21.3687  -55.9379 H         1 UNK         0.0600 
    237 H237       -6.4427  -22.7334  -53.9095 H         1 UNK         0.0600 
    238 H238       -5.2700  -23.4671  -54.9924 H         1 UNK         0.0600 
    239 H239       -4.7206  -22.6001  -53.5656 H         1 UNK         0.0600 
    240 H240       -3.1346  -20.5680  -54.2138 H         1 UNK         0.3000 
    241 H241       -1.5710  -21.4743  -56.5111 H         1 UNK         0.0600 
    242 H242       -1.8002  -17.5343  -56.9339 H         1 UNK         0.3800 
    243 H243       -2.9820  -18.4202  -56.0158 H         1 UNK         0.3800 
    244 H244        0.3677  -21.3368  -55.1449 H         1 UNK         0.0800 
    245 H245       -0.8791  -22.1802  -54.2831 H         1 UNK         0.0800 
    246 H246        1.5000  -21.4824  -52.7308 H         1 UNK         0.0800 
    247 H247        1.9739  -20.1093  -53.7061 H         1 UNK         0.0800 
@<TRIPOS>BOND
     1    1    2 1    
     2    1  127 1    
     3    1  128 1    
     4    1  129 1    
     5    2    3 2    
     6    2    4 am   BACKBONE|DICT|INTERRES
     7    4    5 1    
     8    4  130 1    
     9    5    6 1    
    10    5   65 1    
    11    5  131 1    
    12    6    7 1    
    13    6  132 1    
    14    6  133 1    
    15    7    8 1    
    16    8    9 1    
    17    8  134 1    
    18    8  135 1    
    19    9   10 ar   
    20    9   14 ar   
    21   10   11 ar   
    22   10  136 1    
    23   11   12 ar   
    24   11  126 1    
    25   12   13 ar   
    26   12  137 1    
    27   13   14 ar   
    28   13   15 1    
    29   14  138 1    
    30   15   16 1    
    31   15  139 1    
    32   15  140 1    
    33   16   17 1    
    34   17   18 1    
    35   17  141 1    
    36   17  142 1    
    37   18   19 1    
    38   18   67 1    
    39   18  143 1    
    40   19   20 am   BACKBONE|DICT|INTERRES
    41   19  144 1    
    42   20   21 2    
    43   20   22 1    
    44   22   23 1    
    45   22   24 1    
    46   22  145 1    
    47   23  146 1    
    48   23  147 1    
    49   23  148 1    
    50   24   25 am   BACKBONE|DICT|INTERRES
    51   24  149 1    
    52   25   26 2    
    53   25   27 1    
    54   27   28 1    
    55   27   29 1    
    56   27  150 1    
    57   28  151 1    
    58   28  152 1    
    59   28  153 1    
    60   29   30 am   BACKBONE|DICT|INTERRES
    61   29  154 1    
    62   30   31 2    
    63   30   32 1    
    64   32   33 1    
    65   32   34 1    
    66   32  155 1    
    67   33  156 1    
    68   33  157 1    
    69   33  158 1    
    70   34   35 am   BACKBONE|DICT|INTERRES
    71   34  159 1    
    72   35   36 2    
    73   35   37 1    
    74   37   38 1    
    75   37   39 1    
    76   37  160 1    
    77   38  161 1    
    78   38  162 1    
    79   38  163 1    
    80   39   40 am   BACKBONE|DICT|INTERRES
    81   39  164 1    
    82   40   41 2    
    83   40   42 1    
    84   42   43 1    
    85   42   44 1    
    86   42  165 1    
    87   43  166 1    
    88   43  167 1    
    89   43  168 1    
    90   44   45 am   BACKBONE|DICT|INTERRES
    91   44  169 1    
    92   45   46 2    
    93   45   47 1    
    94   47   48 1    
    95   47   49 1    
    96   47  170 1    
    97   48  171 1    
    98   48  172 1    
    99   48  173 1    
   100   49   50 am   BACKBONE|DICT|INTERRES
   101   49  174 1    
   102   50   51 2    
   103   50   52 1    
   104   52   53 1    
   105   52   54 1    
   106   52  175 1    
   107   53  176 1    
   108   53  177 1    
   109   53  178 1    
   110   54   55 am   BACKBONE|DICT|INTERRES
   111   54  179 1    
   112   55   56 2    
   113   55   57 1    
   114   57   58 1    
   115   57   59 1    
   116   57  180 1    
   117   58  181 1    
   118   58  182 1    
   119   58  183 1    
   120   59   60 am   BACKBONE|DICT|INTERRES
   121   59  184 1    
   122   60   61 2    
   123   60   62 1    
   124   62   63 1    
   125   62   64 1    
   126   62  185 1    
   127   63  186 1    
   128   63  187 1    
   129   63  188 1    
   130   64   65 am   BACKBONE|DICT|INTERRES
   131   64  189 1    
   132   65   66 2    
   133   67   68 2    
   134   67   69 am   BACKBONE|DICT|INTERRES
   135   69   70 1    
   136   69  190 1    
   137   70   71 1    
   138   70   72 1    
   139   70  191 1    
   140   71  192 1    
   141   71  193 1    
   142   71  194 1    
   143   72   73 2    
   144   72   74 am   BACKBONE|DICT|INTERRES
   145   74   75 1    
   146   74  195 1    
   147   75   76 1    
   148   75   77 1    
   149   75  196 1    
   150   76  197 1    
   151   76  198 1    
   152   76  199 1    
   153   77   78 2    
   154   77   79 am   BACKBONE|DICT|INTERRES
   155   79   80 1    
   156   79  200 1    
   157   80   81 1    
   158   80   82 1    
   159   80  201 1    
   160   81  202 1    
   161   81  203 1    
   162   81  204 1    
   163   82   83 2    
   164   82   84 am   BACKBONE|DICT|INTERRES
   165   84   85 1    
   166   84  205 1    
   167   85   86 1    
   168   85   87 1    
   169   85  206 1    
   170   86  207 1    
   171   86  208 1    
   172   86  209 1    
   173   87   88 2    
   174   87   89 am   BACKBONE|DICT|INTERRES
   175   89   90 1    
   176   89  210 1    
   177   90   91 1    
   178   90   92 1    
   179   90  211 1    
   180   91  212 1    
   181   91  213 1    
   182   91  214 1    
   183   92   93 2    
   184   92   94 am   BACKBONE|DICT|INTERRES
   185   94   95 1    
   186   94  215 1    
   187   95   96 1    
   188   95   97 1    
   189   95  216 1    
   190   96  217 1    
   191   96  218 1    
   192   96  219 1    
   193   97   98 2    
   194   97   99 am   BACKBONE|DICT|INTERRES
   195   99  100 1    
   196   99  220 1    
   197  100  101 1    
   198  100  102 1    
   199  100  221 1    
   200  101  222 1    
   201  101  223 1    
   202  101  224 1    
   203  102  103 2    
   204  102  104 am   BACKBONE|DICT|INTERRES
   205  104  105 1    
   206  104  225 1    
   207  105  106 1    
   208  105  107 1    
   209  105  226 1    
   210  106  227 1    
   211  106  228 1    
   212  106  229 1    
   213  107  108 2    
   214  107  109 am   BACKBONE|DICT|INTERRES
   215  109  110 1    
   216  109  230 1    
   217  110  111 1    
   218  110  112 1    
   219  110  231 1    
   220  111  232 1    
   221  111  233 1    
   222  111  234 1    
   223  112  113 2    
   224  112  114 am   BACKBONE|DICT|INTERRES
   225  114  115 1    
   226  114  235 1    
   227  115  116 1    
   228  115  117 1    
   229  115  236 1    
   230  116  237 1    
   231  116  238 1    
   232  116  239 1    
   233  117  118 2    
   234  117  119 am   BACKBONE|DICT|INTERRES
   235  119  120 1    
   236  119  240 1    
   237  120  121 1    
   238  120  124 1    
   239  120  241 1    
   240  121  122 am   BACKBONE|DICT|INTERRES
   241  121  123 2    
   242  122  242 1    
   243  122  243 1    
   244  124  125 1    
   245  124  244 1    
   246  124  245 1    
   247  125  126 1    
   248  126  246 1    
   249  126  247 1    
@<TRIPOS>SUBSTRUCTURE
     1 UNK         1 GROUP             0       ****    0 ROOT    
