@<TRIPOS>MOLECULE
3R540
247   249    1
SMALL
USER_CHARGES


@<TRIPOS>ATOM
      1 CA          6.2325  -10.7044  -49.4705 C.3       0 UNK        -0.1800 
      2 C           5.6782  -11.8103  -48.5846 C.2       0 UNK         0.5000 
      3 O           6.0045  -11.8705  -47.3990 O.2       0 UNK        -0.5000 
      4 N           4.8228  -12.6768  -49.1445 N.am      1 UNK        -0.5000 
      5 CA          4.2068  -13.8217  -48.4571 C.3       1 UNK         0.1400 
      6 C6          3.5664  -14.8185  -49.4510 C.3       23 UNK        -0.0398 
      7 S7          2.1784  -14.1341  -50.4286 S.3       23 UNK        -0.2404 
      8 C8          0.7800  -15.1556  -49.8604 C.3       23 UNK        -0.0205 
      9 C9          0.8823  -16.5862  -50.3704 C.ar      23 UNK        -0.0193 
     10 C10         0.4756  -16.9045  -51.6710 C.ar      23 UNK        -0.1150 
     11 C11         0.5699  -18.2182  -52.1421 C.ar      23 UNK        -0.0193 
     12 C12         1.0883  -19.2117  -51.3081 C.ar      23 UNK        -0.1150 
     13 C13         1.4897  -18.9073  -50.0059 C.ar      23 UNK        -0.0193 
     14 C14         1.3771  -17.5956  -49.5394 C.ar      23 UNK        -0.1150 
     15 C15         2.0143  -20.0003  -49.0926 C.3       23 UNK        -0.0205 
     16 S16         0.6967  -20.5502  -47.9797 S.3       23 UNK        -0.2404 
     17 C17         1.4608  -22.0051  -47.1876 C.3       23 UNK        -0.0398 
     18 CA          0.5214  -22.6916  -46.1638 C.3       11 UNK         0.1400 
     19 N           0.1351  -21.7580  -45.0999 N.am      11 UNK        -0.5000 
     20 C           0.6317  -21.7765  -43.8559 C.2       10 UNK         0.5000 
     21 O           1.3417  -22.6824  -43.4173 O.2       10 UNK        -0.5000 
     22 CA          0.3267  -20.5668  -42.9499 C.3       10 UNK         0.1400 
     23 CB          1.5199  -19.5994  -42.9633 C.3       10 UNK        -0.1800 
     24 N          -0.8778  -19.8341  -43.3365 N.am      10 UNK        -0.5000 
     25 C          -2.1287  -20.2898  -43.1801 C.2       9 UNK         0.5000 
     26 O          -2.3975  -21.3698  -42.6529 O.2       9 UNK        -0.5000 
     27 CA         -3.2770  -19.4153  -43.7264 C.3       9 UNK         0.1400 
     28 CB         -3.9462  -18.6405  -42.5857 C.3       9 UNK        -0.1800 
     29 N          -2.8709  -18.4701  -44.7702 N.am      9 UNK        -0.5000 
     30 C          -2.3576  -18.8260  -45.9563 C.2       8 UNK         0.5000 
     31 O          -2.1544  -19.9960  -46.2748 O.2       8 UNK        -0.5000 
     32 CA         -1.9734  -17.7001  -46.9350 C.3       8 UNK         0.1400 
     33 CB         -3.1447  -17.4089  -47.8851 C.3       8 UNK        -0.1800 
     34 N          -1.5776  -16.4434  -46.2980 N.am      8 UNK        -0.5000 
     35 C          -0.6106  -16.2759  -45.3860 C.2       7 UNK         0.5000 
     36 O           0.0844  -17.1926  -44.9463 O.2       7 UNK        -0.5000 
     37 CA         -0.4026  -14.8431  -44.8531 C.3       7 UNK         0.1400 
     38 CB         -1.1742  -13.7565  -45.6374 C.3       7 UNK        -0.1800 
     39 N          -0.7137  -14.7438  -43.4269 N.am      7 UNK        -0.5000 
     40 C          -1.8692  -15.0447  -42.8127 C.2       6 UNK         0.5000 
     41 O          -2.8623  -15.4890  -43.3931 O.2       6 UNK        -0.5000 
     42 CA         -1.9026  -14.7777  -41.2895 C.3       6 UNK         0.1400 
     43 CB         -3.0996  -15.4140  -40.5523 C.3       6 UNK        -0.1800 
     44 N          -0.6363  -15.1074  -40.6270 N.am      6 UNK        -0.5000 
     45 C          -0.0294  -16.3028  -40.5995 C.2       5 UNK         0.5000 
     46 O          -0.5228  -17.3415  -41.0402 O.2       5 UNK        -0.5000 
     47 CA          1.3983  -16.3163  -40.0153 C.3       5 UNK         0.1400 
     48 CB          1.6470  -17.5738  -39.1648 C.3       5 UNK        -0.1800 
     49 N           2.4373  -16.2323  -41.0477 N.am      5 UNK        -0.5000 
     50 C           2.5798  -15.2587  -41.9584 C.2       4 UNK         0.5000 
     51 O           1.8117  -14.2991  -42.0658 O.2       4 UNK        -0.5000 
     52 CA          3.7837  -15.3900  -42.9135 C.3       4 UNK         0.1400 
     53 CB          3.4957  -16.4169  -44.0185 C.3       4 UNK        -0.1800 
     54 N           4.1286  -14.1093  -43.5340 N.am      4 UNK        -0.5000 
     55 C           4.6935  -13.0800  -42.8833 C.2       3 UNK         0.5000 
     56 O           5.0761  -13.1481  -41.7139 O.2       3 UNK        -0.5000 
     57 CA          4.8801  -11.7536  -43.6513 C.3       3 UNK         0.1400 
     58 CB          6.3544  -11.5618  -44.0387 C.3       3 UNK        -0.1800 
     59 N           4.0584  -11.6512  -44.8579 N.am      3 UNK        -0.5000 
     60 C           2.7279  -11.4768  -44.8689 C.2       2 UNK         0.5000 
     61 O           2.0599  -11.2853  -43.8532 O.2       2 UNK        -0.5000 
     62 CA          2.0129  -11.5366  -46.2363 C.3       2 UNK         0.1400 
     63 CB          1.5890  -10.1314  -46.6890 C.3       2 UNK        -0.1800 
     64 N           2.8061  -12.1544  -47.2999 N.am      2 UNK        -0.5000 
     65 C           3.2356  -13.4243  -47.3210 C.2       1 UNK         0.5000 
     66 O           2.9348  -14.2522  -46.4614 O.2       1 UNK        -0.5000 
     67 C          -0.6879  -23.3515  -46.8589 C.2       11 UNK         0.5000 
     68 O          -0.4767  -24.2628  -47.6606 O.2       11 UNK        -0.5000 
     69 N          -1.9138  -22.8918  -46.5627 N.am      12 UNK        -0.5000 
     70 CA         -3.1776  -23.2241  -47.2325 C.3       12 UNK         0.1400 
     71 CB         -4.3432  -22.6325  -46.4233 C.3       12 UNK        -0.1800 
     72 C          -3.4333  -24.7192  -47.4920 C.2       12 UNK         0.5000 
     73 O          -3.9353  -25.0714  -48.5587 O.2       12 UNK        -0.5000 
     74 N          -3.0594  -25.5691  -46.5278 N.am      13 UNK        -0.5000 
     75 CA         -3.2159  -27.0228  -46.5937 C.3       13 UNK         0.1400 
     76 CB         -2.9762  -27.6071  -45.1929 C.3       13 UNK        -0.1800 
     77 C          -2.3006  -27.7136  -47.6260 C.2       13 UNK         0.5000 
     78 O          -2.6224  -28.8223  -48.0559 O.2       13 UNK        -0.5000 
     79 N          -1.1825  -27.0714  -47.9896 N.am      14 UNK        -0.5000 
     80 CA         -0.1740  -27.6074  -48.9037 C.3       14 UNK         0.1400 
     81 CB          1.2015  -27.5450  -48.2196 C.3       14 UNK        -0.1800 
     82 C          -0.1449  -26.8366  -50.2321 C.2       14 UNK         0.5000 
     83 O          -0.0857  -27.4581  -51.2935 O.2       14 UNK        -0.5000 
     84 N          -0.1744  -25.5003  -50.1546 N.am      15 UNK        -0.5000 
     85 CA         -0.0339  -24.6007  -51.3007 C.3       15 UNK         0.1400 
     86 CB          0.5693  -23.2752  -50.8078 C.3       15 UNK        -0.1800 
     87 C          -1.3564  -24.3320  -52.0400 C.2       15 UNK         0.5000 
     88 O          -1.3198  -23.7812  -53.1399 O.2       15 UNK        -0.5000 
     89 N          -2.4931  -24.6695  -51.4091 N.am      16 UNK        -0.5000 
     90 CA         -3.8663  -24.3484  -51.8270 C.3       16 UNK         0.1400 
     91 CB         -4.2043  -24.9864  -53.1881 C.3       16 UNK        -0.1800 
     92 C          -4.1698  -22.8337  -51.7920 C.2       16 UNK         0.5000 
     93 O          -5.1236  -22.3737  -52.4262 O.2       16 UNK        -0.5000 
     94 N          -3.3496  -22.0780  -51.0501 N.am      17 UNK        -0.5000 
     95 CA         -3.4707  -20.6408  -50.8385 C.3       17 UNK         0.1400 
     96 CB         -2.2257  -20.1456  -50.0922 C.3       17 UNK        -0.1800 
     97 C          -4.7575  -20.3186  -50.0684 C.2       17 UNK         0.5000 
     98 O          -5.0547  -20.9938  -49.0825 O.2       17 UNK        -0.5000 
     99 N          -5.5267  -19.3432  -50.5693 N.am      18 UNK        -0.5000 
    100 CA        -6.8756  -18.9386  -50.1409 C.3       18 UNK         0.1400 
    101 CB        -6.8807  -18.4339  -48.6849 C.3       18 UNK        -0.1800 
    102 C         -7.9689  -20.0084  -50.3668 C.2       18 UNK         0.5000 
    103 O         -9.0692  -19.6578  -50.7923 O.2       18 UNK        -0.5000 
    104 N         -7.6459  -21.2829  -50.1124 N.am      19 UNK        -0.5000 
    105 CA        -8.5016  -22.4574  -50.2821 C.3       19 UNK         0.1400 
    106 CB        -7.7630  -23.6938  -49.7449 C.3       19 UNK        -0.1800 
    107 C         -8.9487  -22.6801  -51.7386 C.2       19 UNK         0.5000 
    108 O        -10.1234  -22.9660  -51.9745 O.2       19 UNK        -0.5000 
    109 N         -8.0156  -22.5163  -52.6841 N.am      20 UNK        -0.5000 
    110 CA        -8.2640  -22.5654  -54.1249 C.3       20 UNK         0.1400 
    111 CB        -8.0457  -23.9939  -54.6553 C.3       20 UNK        -0.1800 
    112 C         -7.4055  -21.5153  -54.8517 C.2       20 UNK         0.5000 
    113 O         -6.9891  -21.7402  -55.9895 O.2       20 UNK        -0.5000 
    114 N         -7.1431  -20.3890  -54.1691 N.am      21 UNK        -0.5000 
    115 CA        -6.4201  -19.2031  -54.6465 C.3       21 UNK         0.1400 
    116 CB        -7.3037  -18.4172  -55.6371 C.3       21 UNK        -0.1800 
    117 C         -5.0130  -19.5040  -55.2115 C.2       21 UNK         0.5000 
    118 O         -4.6036  -18.8877  -56.1967 O.2       21 UNK        -0.5000 
    119 N         -4.3116  -20.4576  -54.5826 N.am      22 UNK        -0.5000 
    120 CA        -2.9924  -20.9802  -54.9897 C.3       22 UNK         0.1400 
    121 C         -3.0320  -21.9025  -56.2482 C.2       22 UNK         0.5000 
    122 N         -4.1921  -22.3220  -56.7418 N.am      22 UNK        -0.7600 
    123 O         -1.9886  -22.2706  -56.7810 O.2       22 UNK        -0.5000 
    124 C124       -1.8768  -19.8939  -55.0907 C.3       23 UNK        -0.0398 
    125 S125       -1.6837  -18.9179  -53.5593 S.3       23 UNK        -0.2404 
    126 C126        0.1035  -18.5786  -53.5435 C.3       23 UNK        -0.0205 
    127 H127        5.8499  -10.7711  -50.4892 H         1 UNK         0.0600 
    128 H128        7.3200  -10.7665  -49.5104 H         1 UNK         0.0600 
    129 H129        5.9601   -9.7292  -49.0672 H         1 UNK         0.0600 
    130 H130        4.5704  -12.5693  -50.1173 H         1 UNK         0.3000 
    131 H131        5.0222  -14.3563  -47.9649 H         1 UNK         0.0600 
    132 H132        4.3241  -15.1676  -50.1536 H         1 UNK         0.0800 
    133 H133        3.2477  -15.7096  -48.9124 H         1 UNK         0.0800 
    134 H134       -0.1500  -14.7102  -50.2165 H         1 UNK         0.0800 
    135 H135        0.7286  -15.1350  -48.7702 H         1 UNK         0.0800 
    136 H136        0.0803  -16.1310  -52.3144 H         1 UNK         0.1150 
    137 H137        1.1579  -20.2284  -51.6664 H         1 UNK         0.1150 
    138 H138        1.6697  -17.3671  -48.5241 H         1 UNK         0.1150 
    139 H139        2.3789  -20.8459  -49.6779 H         1 UNK         0.0800 
    140 H140        2.8589  -19.6312  -48.5090 H         1 UNK         0.0800 
    141 H141        2.3741  -21.6823  -46.6862 H         1 UNK         0.0800 
    142 H142        1.7761  -22.7105  -47.9580 H         1 UNK         0.0800 
    143 H143        1.0760  -23.5272  -45.7326 H         1 UNK         0.0600 
    144 H144       -0.4316  -20.9691  -45.3905 H         1 UNK         0.3000 
    145 H145        0.1926  -20.9342  -41.9304 H         1 UNK         0.0600 
    146 H146        1.3445  -18.7413  -42.3165 H         1 UNK         0.0600 
    147 H147        1.7154  -19.2240  -43.9687 H         1 UNK         0.0600 
    148 H148        2.4283  -20.0907  -42.6128 H         1 UNK         0.0600 
    149 H149       -0.7367  -18.9311  -43.7749 H         1 UNK         0.3000 
    150 H150       -4.0180  -20.0879  -44.1630 H         1 UNK         0.0600 
    151 H151       -3.2342  -17.9677  -42.1116 H         1 UNK         0.0600 
    152 H152       -4.3238  -19.3166  -41.8176 H         1 UNK         0.0600 
    153 H153       -4.7872  -18.0464  -42.9438 H         1 UNK         0.0600 
    154 H154       -2.9630  -17.4850  -44.5529 H         1 UNK         0.3000 
    155 H155       -1.1268  -18.0577  -47.5245 H         1 UNK         0.0600 
    156 H156       -3.5627  -18.3295  -48.2898 H         1 UNK         0.0600 
    157 H157       -2.8270  -16.7945  -48.7278 H         1 UNK         0.0600 
    158 H158       -3.9561  -16.8896  -47.3739 H         1 UNK         0.0600 
    159 H159       -2.1116  -15.6293  -46.5636 H         1 UNK         0.3000 
    160 H160        0.6624  -14.6289  -44.9501 H         1 UNK         0.0600 
    161 H161       -2.2543  -13.9019  -45.5963 H         1 UNK         0.0600 
    162 H162       -0.8754  -13.7406  -46.6865 H         1 UNK         0.0600 
    163 H163       -0.9706  -12.7666  -45.2294 H         1 UNK         0.0600 
    164 H164        0.0681  -14.4556  -42.8434 H         1 UNK         0.3000 
    165 H165       -2.0166  -13.6967  -41.1982 H         1 UNK         0.0600 
    166 H166       -3.1834  -15.0171  -39.5407 H         1 UNK         0.0600 
    167 H167       -4.0412  -15.2000  -41.0590 H         1 UNK         0.0600 
    168 H168       -3.0058  -16.4948  -40.4684 H         1 UNK         0.0600 
    169 H169       -0.1145  -14.3128  -40.2831 H         1 UNK         0.3000 
    170 H170        1.5097  -15.4482  -39.3625 H         1 UNK         0.0600 
    171 H171        1.6187  -18.4827  -39.7671 H         1 UNK         0.0600 
    172 H172        2.6169  -17.5302  -38.6690 H         1 UNK         0.0600 
    173 H173        0.8896  -17.6735  -38.3862 H         1 UNK         0.0600 
    174 H174        3.1030  -16.9909  -41.0537 H         1 UNK         0.3000 
    175 H175        4.6457  -15.7336  -42.3378 H         1 UNK         0.0600 
    176 H176        2.5982  -16.1621  -44.5817 H         1 UNK         0.0600 
    177 H177        4.3241  -16.4847  -44.7238 H         1 UNK         0.0600 
    178 H178        3.3470  -17.4113  -43.5987 H         1 UNK         0.0600 
    179 H179        3.8033  -13.9701  -44.4827 H         1 UNK         0.3000 
    180 H180        4.5976  -10.9432  -42.9762 H         1 UNK         0.0600 
    181 H181        6.5105  -10.6069  -44.5409 H         1 UNK         0.0600 
    182 H182        6.6993  -12.3520  -44.7068 H         1 UNK         0.0600 
    183 H183        6.9963  -11.5739  -43.1569 H         1 UNK         0.0600 
    184 H184        4.5414  -11.7781  -45.7397 H         1 UNK         0.3000 
    185 H185        1.1155  -12.1400  -46.1042 H         1 UNK         0.0600 
    186 H186        2.4524   -9.4871  -46.8594 H         1 UNK         0.0600 
    187 H187        1.0108  -10.1717  -47.6124 H         1 UNK         0.0600 
    188 H188        0.9628   -9.6499  -45.9367 H         1 UNK         0.0600 
    189 H189        3.1086  -11.5465  -48.0470 H         1 UNK         0.3000 
    190 H190       -1.9647  -22.0877  -45.9511 H         1 UNK         0.3000 
    191 H191       -3.1546  -22.7313  -48.2049 H         1 UNK         0.0600 
    192 H192       -4.2872  -21.5451  -46.3861 H         1 UNK         0.0600 
    193 H193       -4.3542  -23.0048  -45.3984 H         1 UNK         0.0600 
    194 H194       -5.3031  -22.8825  -46.8777 H         1 UNK         0.0600 
    195 H195       -2.6362  -25.1917  -45.6927 H         1 UNK         0.3000 
    196 H196       -4.2477  -27.2377  -46.8799 H         1 UNK         0.0600 
    197 H197       -3.6733  -27.1899  -44.4661 H         1 UNK         0.0600 
    198 H198       -1.9630  -27.4064  -44.8421 H         1 UNK         0.0600 
    199 H199       -3.1160  -28.6890  -45.1906 H         1 UNK         0.0600 
    200 H200       -1.0163  -26.1371  -47.6295 H         1 UNK         0.3000 
    201 H201       -0.3807  -28.6539  -49.1371 H         1 UNK         0.0600 
    202 H202        1.2156  -28.1497  -47.3127 H         1 UNK         0.0600 
    203 H203        1.4715  -26.5245  -47.9441 H         1 UNK         0.0600 
    204 H204        1.9836  -27.9269  -48.8771 H         1 UNK         0.0600 
    205 H205       -0.2310  -25.0590  -49.2387 H         1 UNK         0.3000 
    206 H206        0.6599  -25.0410  -52.0201 H         1 UNK         0.0600 
    207 H207        1.5398  -23.4347  -50.3384 H         1 UNK         0.0600 
    208 H208       -0.0780  -22.7811  -50.0824 H         1 UNK         0.0600 
    209 H209        0.7215  -22.5830  -51.6363 H         1 UNK         0.0600 
    210 H210       -2.4141  -25.1212  -50.5074 H         1 UNK         0.3000 
    211 H211       -4.5236  -24.8047  -51.0872 H         1 UNK         0.0600 
    212 H212       -3.7367  -24.4554  -54.0180 H         1 UNK         0.0600 
    213 H213       -5.2796  -24.9741  -53.3557 H         1 UNK         0.0600 
    214 H214       -3.8850  -26.0277  -53.2294 H         1 UNK         0.0600 
    215 H215       -2.6081  -22.5425  -50.5512 H         1 UNK         0.3000 
    216 H216       -3.5130  -20.1644  -51.8168 H         1 UNK         0.0600 
    217 H217       -2.1775  -19.0568  -50.0900 H         1 UNK         0.0600 
    218 H218       -1.3140  -20.5005  -50.5713 H         1 UNK         0.0600 
    219 H219       -2.2105  -20.4848  -49.0555 H         1 UNK         0.0600 
    220 H220       -5.1824  -18.8511  -51.3810 H         1 UNK         0.3000 
    221 H221       -7.1404  -18.0914  -50.7757 H         1 UNK         0.0600 
    222 H222       -6.6372  -19.2234  -47.9735 H         1 UNK         0.0600 
    223 H223       -6.1638  -17.6250  -48.5470 H         1 UNK         0.0600 
    224 H224       -7.8630  -18.0459  -48.4129 H         1 UNK         0.0600 
    225 H225       -6.7169  -21.4459  -49.7315 H         1 UNK         0.3000 
    226 H226       -9.3980  -22.3033  -49.6783 H         1 UNK         0.0600 
    227 H227       -7.5142  -23.5773  -48.6898 H         1 UNK         0.0600 
    228 H228       -8.3793  -24.5890  -49.8371 H         1 UNK         0.0600 
    229 H229       -6.8344  -23.8761  -50.2869 H         1 UNK         0.0600 
    230 H230       -7.0524  -22.3332  -52.4126 H         1 UNK         0.3000 
    231 H231       -9.3012  -22.2862  -54.3213 H         1 UNK         0.0600 
    232 H232       -8.3607  -24.0744  -55.6963 H         1 UNK         0.0600 
    233 H233       -6.9963  -24.2794  -54.6113 H         1 UNK         0.0600 
    234 H234       -8.6207  -24.7238  -54.0856 H         1 UNK         0.0600 
    235 H235       -7.5386  -20.3167  -53.2431 H         1 UNK         0.3000 
    236 H236       -6.2620  -18.5685  -53.7737 H         1 UNK         0.0600 
    237 H237       -7.4722  -18.9776  -56.5574 H         1 UNK         0.0600 
    238 H238       -8.2763  -18.1881  -55.2017 H         1 UNK         0.0600 
    239 H239       -6.8417  -17.4677  -55.9102 H         1 UNK         0.0600 
    240 H240       -4.7552  -20.9634  -53.8235 H         1 UNK         0.3000 
    241 H241       -2.6994  -21.6499  -54.1815 H         1 UNK         0.0600 
    242 H242       -4.1905  -22.9233  -57.5498 H         1 UNK         0.3800 
    243 H243       -5.0791  -22.0244  -56.3477 H         1 UNK         0.3800 
    244 H244       -2.0647  -19.2111  -55.9195 H         1 UNK         0.0800 
    245 H245       -0.9221  -20.3723  -55.3127 H         1 UNK         0.0800 
    246 H246        0.3260  -17.7672  -54.2378 H         1 UNK         0.0800 
    247 H247        0.6543  -19.4509  -53.8984 H         1 UNK         0.0800 
@<TRIPOS>BOND
     1    1    2 1    
     2    1  127 1    
     3    1  128 1    
     4    1  129 1    
     5    2    3 2    
     6    2    4 am   BACKBONE|DICT|INTERRES
     7    4    5 1    
     8    4  130 1    
     9    5    6 1    
    10    5   65 1    
    11    5  131 1    
    12    6    7 1    
    13    6  132 1    
    14    6  133 1    
    15    7    8 1    
    16    8    9 1    
    17    8  134 1    
    18    8  135 1    
    19    9   10 ar   
    20    9   14 ar   
    21   10   11 ar   
    22   10  136 1    
    23   11   12 ar   
    24   11  126 1    
    25   12   13 ar   
    26   12  137 1    
    27   13   14 ar   
    28   13   15 1    
    29   14  138 1    
    30   15   16 1    
    31   15  139 1    
    32   15  140 1    
    33   16   17 1    
    34   17   18 1    
    35   17  141 1    
    36   17  142 1    
    37   18   19 1    
    38   18   67 1    
    39   18  143 1    
    40   19   20 am   BACKBONE|DICT|INTERRES
    41   19  144 1    
    42   20   21 2    
    43   20   22 1    
    44   22   23 1    
    45   22   24 1    
    46   22  145 1    
    47   23  146 1    
    48   23  147 1    
    49   23  148 1    
    50   24   25 am   BACKBONE|DICT|INTERRES
    51   24  149 1    
    52   25   26 2    
    53   25   27 1    
    54   27   28 1    
    55   27   29 1    
    56   27  150 1    
    57   28  151 1    
    58   28  152 1    
    59   28  153 1    
    60   29   30 am   BACKBONE|DICT|INTERRES
    61   29  154 1    
    62   30   31 2    
    63   30   32 1    
    64   32   33 1    
    65   32   34 1    
    66   32  155 1    
    67   33  156 1    
    68   33  157 1    
    69   33  158 1    
    70   34   35 am   BACKBONE|DICT|INTERRES
    71   34  159 1    
    72   35   36 2    
    73   35   37 1    
    74   37   38 1    
    75   37   39 1    
    76   37  160 1    
    77   38  161 1    
    78   38  162 1    
    79   38  163 1    
    80   39   40 am   BACKBONE|DICT|INTERRES
    81   39  164 1    
    82   40   41 2    
    83   40   42 1    
    84   42   43 1    
    85   42   44 1    
    86   42  165 1    
    87   43  166 1    
    88   43  167 1    
    89   43  168 1    
    90   44   45 am   BACKBONE|DICT|INTERRES
    91   44  169 1    
    92   45   46 2    
    93   45   47 1    
    94   47   48 1    
    95   47   49 1    
    96   47  170 1    
    97   48  171 1    
    98   48  172 1    
    99   48  173 1    
   100   49   50 am   BACKBONE|DICT|INTERRES
   101   49  174 1    
   102   50   51 2    
   103   50   52 1    
   104   52   53 1    
   105   52   54 1    
   106   52  175 1    
   107   53  176 1    
   108   53  177 1    
   109   53  178 1    
   110   54   55 am   BACKBONE|DICT|INTERRES
   111   54  179 1    
   112   55   56 2    
   113   55   57 1    
   114   57   58 1    
   115   57   59 1    
   116   57  180 1    
   117   58  181 1    
   118   58  182 1    
   119   58  183 1    
   120   59   60 am   BACKBONE|DICT|INTERRES
   121   59  184 1    
   122   60   61 2    
   123   60   62 1    
   124   62   63 1    
   125   62   64 1    
   126   62  185 1    
   127   63  186 1    
   128   63  187 1    
   129   63  188 1    
   130   64   65 am   BACKBONE|DICT|INTERRES
   131   64  189 1    
   132   65   66 2    
   133   67   68 2    
   134   67   69 am   BACKBONE|DICT|INTERRES
   135   69   70 1    
   136   69  190 1    
   137   70   71 1    
   138   70   72 1    
   139   70  191 1    
   140   71  192 1    
   141   71  193 1    
   142   71  194 1    
   143   72   73 2    
   144   72   74 am   BACKBONE|DICT|INTERRES
   145   74   75 1    
   146   74  195 1    
   147   75   76 1    
   148   75   77 1    
   149   75  196 1    
   150   76  197 1    
   151   76  198 1    
   152   76  199 1    
   153   77   78 2    
   154   77   79 am   BACKBONE|DICT|INTERRES
   155   79   80 1    
   156   79  200 1    
   157   80   81 1    
   158   80   82 1    
   159   80  201 1    
   160   81  202 1    
   161   81  203 1    
   162   81  204 1    
   163   82   83 2    
   164   82   84 am   BACKBONE|DICT|INTERRES
   165   84   85 1    
   166   84  205 1    
   167   85   86 1    
   168   85   87 1    
   169   85  206 1    
   170   86  207 1    
   171   86  208 1    
   172   86  209 1    
   173   87   88 2    
   174   87   89 am   BACKBONE|DICT|INTERRES
   175   89   90 1    
   176   89  210 1    
   177   90   91 1    
   178   90   92 1    
   179   90  211 1    
   180   91  212 1    
   181   91  213 1    
   182   91  214 1    
   183   92   93 2    
   184   92   94 am   BACKBONE|DICT|INTERRES
   185   94   95 1    
   186   94  215 1    
   187   95   96 1    
   188   95   97 1    
   189   95  216 1    
   190   96  217 1    
   191   96  218 1    
   192   96  219 1    
   193   97   98 2    
   194   97   99 am   BACKBONE|DICT|INTERRES
   195   99  100 1    
   196   99  220 1    
   197  100  101 1    
   198  100  102 1    
   199  100  221 1    
   200  101  222 1    
   201  101  223 1    
   202  101  224 1    
   203  102  103 2    
   204  102  104 am   BACKBONE|DICT|INTERRES
   205  104  105 1    
   206  104  225 1    
   207  105  106 1    
   208  105  107 1    
   209  105  226 1    
   210  106  227 1    
   211  106  228 1    
   212  106  229 1    
   213  107  108 2    
   214  107  109 am   BACKBONE|DICT|INTERRES
   215  109  110 1    
   216  109  230 1    
   217  110  111 1    
   218  110  112 1    
   219  110  231 1    
   220  111  232 1    
   221  111  233 1    
   222  111  234 1    
   223  112  113 2    
   224  112  114 am   BACKBONE|DICT|INTERRES
   225  114  115 1    
   226  114  235 1    
   227  115  116 1    
   228  115  117 1    
   229  115  236 1    
   230  116  237 1    
   231  116  238 1    
   232  116  239 1    
   233  117  118 2    
   234  117  119 am   BACKBONE|DICT|INTERRES
   235  119  120 1    
   236  119  240 1    
   237  120  121 1    
   238  120  124 1    
   239  120  241 1    
   240  121  122 am   BACKBONE|DICT|INTERRES
   241  121  123 2    
   242  122  242 1    
   243  122  243 1    
   244  124  125 1    
   245  124  244 1    
   246  124  245 1    
   247  125  126 1    
   248  126  246 1    
   249  126  247 1    
@<TRIPOS>SUBSTRUCTURE
     1 UNK         1 GROUP             0       ****    0 ROOT    
